MODEL 1
REMARK VINA RESULT:      -9.8      0.000      0.000
REMARK  Name = 26391
REMARK  6 active torsions:
REMARK  status: ('A' for Active; 'I' for Inactive)
REMARK    1  A    between atoms: C_4  and  C_13
REMARK    2  A    between atoms: C_4  and  C_23
REMARK    3  A    between atoms: C_18  and  O_19
REMARK    4  A    between atoms: O_19  and  C_21
REMARK    5  A    between atoms: C_28  and  O_29
REMARK    6  A    between atoms: O_29  and  C_31
REMARK                            x       y       z     vdW  Elec       q    Type
REMARK                         _______ _______ _______ _____ _____    ______ ____
ROOT
ATOM      1  O   UNL     1      35.316 -23.372 -13.745  0.00  0.00    -0.464 OA
ATOM      2  O   UNL     1      34.934 -26.222 -15.954  0.00  0.00    -0.270 OA
ATOM      3  N   UNL     1      36.632 -25.730 -14.512  0.00  0.00    -0.278 N 
ATOM      4  C   UNL     1      34.968 -23.961 -15.012  0.00  0.00    +0.238 C 
ATOM      5  C   UNL     1      35.480 -25.417 -15.196  0.00  0.00    +0.271 C 
ATOM      6  C   UNL     1      36.534 -23.699 -13.228  0.00  0.00    +0.153 C 
ATOM      7  C   UNL     1      37.205 -24.861 -13.584  0.00  0.00    +0.085 C 
ATOM      8  C   UNL     1      37.073 -22.851 -12.261  0.00  0.00    +0.038 C 
ATOM      9  C   UNL     1      38.424 -25.185 -12.984  0.00  0.00    +0.018 C 
ATOM     10  C   UNL     1      38.296 -23.162 -11.668  0.00  0.00    +0.003 C 
ATOM     11  C   UNL     1      38.971 -24.328 -12.030  0.00  0.00    +0.001 C 
ATOM     12  H   UNL     1      37.067 -26.596 -14.683  0.00  0.00    +0.155 HD
ENDROOT
BRANCH   4  13
ATOM     13  C   UNL     1      33.423 -24.018 -15.054  0.00  0.00    +0.026 C 
ATOM     14  C   UNL     1      32.737 -23.424 -16.110  0.00  0.00    +0.003 C 
ATOM     15  C   UNL     1      32.727 -24.664 -14.036  0.00  0.00    +0.003 C 
ATOM     16  C   UNL     1      31.344 -23.477 -16.148  0.00  0.00    +0.037 C 
ATOM     17  C   UNL     1      31.334 -24.717 -14.075  0.00  0.00    +0.037 C 
ATOM     18  C   UNL     1      30.643 -24.123 -15.131  0.00  0.00    +0.148 C 
BRANCH  18  19
ATOM     19  O   UNL     1      29.283 -24.173 -15.169  0.00  0.00    -0.424 OA
BRANCH  19  21
ATOM     20  O   UNL     1      28.612 -21.931 -15.231  0.00  0.00    -0.250 OA
ATOM     21  C   UNL     1      28.683 -23.040 -15.743  0.00  0.00    +0.322 C 
ATOM     22  C   UNL     1      28.129 -23.383 -17.094  0.00  0.00    +0.122 C 
ENDBRANCH  19  21
ENDBRANCH  18  19
ENDBRANCH   4  13
BRANCH   4  23
ATOM     23  C   UNL     1      35.538 -22.996 -16.078  0.00  0.00    +0.026 C 
ATOM     24  C   UNL     1      36.716 -22.300 -15.824  0.00  0.00    +0.003 C 
ATOM     25  C   UNL     1      34.870 -22.829 -17.289  0.00  0.00    +0.003 C 
ATOM     26  C   UNL     1      37.230 -21.430 -16.785  0.00  0.00    +0.037 C 
ATOM     27  C   UNL     1      35.384 -21.960 -18.250  0.00  0.00    +0.037 C 
ATOM     28  C   UNL     1      36.564 -21.260 -17.999  0.00  0.00    +0.148 C 
BRANCH  28  29
ATOM     29  O   UNL     1      37.065 -20.410 -18.936  0.00  0.00    -0.424 OA
BRANCH  29  31
ATOM     30  O   UNL     1      36.257 -21.613 -20.775  0.00  0.00    -0.250 OA
ATOM     31  C   UNL     1      36.487 -20.554 -20.208  0.00  0.00    +0.322 C 
ATOM     32  C   UNL     1      36.186 -19.204 -20.790  0.00  0.00    +0.122 C 
ENDBRANCH  29  31
ENDBRANCH  28  29
ENDBRANCH   4  23
TORSDOF 6
ENDMDL
MODEL 2
REMARK VINA RESULT:      -9.7      1.411      6.168
REMARK  Name = 26391
REMARK  6 active torsions:
REMARK  status: ('A' for Active; 'I' for Inactive)
REMARK    1  A    between atoms: C_4  and  C_13
REMARK    2  A    between atoms: C_4  and  C_23
REMARK    3  A    between atoms: C_18  and  O_19
REMARK    4  A    between atoms: O_19  and  C_21
REMARK    5  A    between atoms: C_28  and  O_29
REMARK    6  A    between atoms: O_29  and  C_31
REMARK                            x       y       z     vdW  Elec       q    Type
REMARK                         _______ _______ _______ _____ _____    ______ ____
ROOT
ATOM      1  O   UNL     1      35.739 -24.544 -16.226  0.00  0.00    -0.464 OA
ATOM      2  O   UNL     1      36.014 -21.135 -15.020  0.00  0.00    -0.270 OA
ATOM      3  N   UNL     1      36.599 -23.083 -13.987  0.00  0.00    -0.278 N 
ATOM      4  C   UNL     1      35.218 -23.214 -16.043  0.00  0.00    +0.238 C 
ATOM      5  C   UNL     1      35.994 -22.367 -14.995  0.00  0.00    +0.271 C 
ATOM      6  C   UNL     1      36.222 -25.173 -15.117  0.00  0.00    +0.153 C 
ATOM      7  C   UNL     1      36.660 -24.476 -13.999  0.00  0.00    +0.085 C 
ATOM      8  C   UNL     1      36.330 -26.562 -15.160  0.00  0.00    +0.038 C 
ATOM      9  C   UNL     1      37.203 -25.160 -12.909  0.00  0.00    +0.018 C 
ATOM     10  C   UNL     1      36.860 -27.252 -14.070  0.00  0.00    +0.003 C 
ATOM     11  C   UNL     1      37.296 -26.551 -12.945  0.00  0.00    +0.001 C 
ATOM     12  H   UNL     1      37.002 -22.596 -13.233  0.00  0.00    +0.155 HD
ENDROOT
BRANCH   4  13
ATOM     13  C   UNL     1      35.373 -22.496 -17.404  0.00  0.00    +0.026 C 
ATOM     14  C   UNL     1      34.297 -22.443 -18.286  0.00  0.00    +0.003 C 
ATOM     15  C   UNL     1      36.589 -21.907 -17.740  0.00  0.00    +0.003 C 
ATOM     16  C   UNL     1      34.438 -21.795 -19.513  0.00  0.00    +0.037 C 
ATOM     17  C   UNL     1      36.729 -21.260 -18.968  0.00  0.00    +0.037 C 
ATOM     18  C   UNL     1      35.653 -21.204 -19.854  0.00  0.00    +0.148 C 
BRANCH  18  19
ATOM     19  O   UNL     1      35.789 -20.573 -21.052  0.00  0.00    -0.424 OA
BRANCH  19  21
ATOM     20  O   UNL     1      35.846 -18.279 -20.588  0.00  0.00    -0.250 OA
ATOM     21  C   UNL     1      35.292 -19.259 -21.068  0.00  0.00    +0.322 C 
ATOM     22  C   UNL     1      33.964 -19.221 -21.764  0.00  0.00    +0.122 C 
ENDBRANCH  19  21
ENDBRANCH  18  19
ENDBRANCH   4  13
BRANCH   4  23
ATOM     23  C   UNL     1      33.732 -23.408 -15.661  0.00  0.00    +0.026 C 
ATOM     24  C   UNL     1      32.768 -23.515 -16.659  0.00  0.00    +0.003 C 
ATOM     25  C   UNL     1      33.365 -23.476 -14.319  0.00  0.00    +0.003 C 
ATOM     26  C   UNL     1      31.428 -23.691 -16.315  0.00  0.00    +0.037 C 
ATOM     27  C   UNL     1      32.025 -23.652 -13.974  0.00  0.00    +0.037 C 
ATOM     28  C   UNL     1      31.056 -23.759 -14.972  0.00  0.00    +0.148 C 
BRANCH  28  29
ATOM     29  O   UNL     1      29.749 -23.930 -14.636  0.00  0.00    -0.424 OA
BRANCH  29  31
ATOM     30  O   UNL     1      28.581 -22.011 -15.296  0.00  0.00    -0.250 OA
ATOM     31  C   UNL     1      28.852 -23.197 -15.430  0.00  0.00    +0.322 C 
ATOM     32  C   UNL     1      28.258 -24.083 -16.485  0.00  0.00    +0.122 C 
ENDBRANCH  29  31
ENDBRANCH  28  29
ENDBRANCH   4  23
TORSDOF 6
ENDMDL
MODEL 3
REMARK VINA RESULT:      -8.8      2.212      6.822
REMARK  Name = 26391
REMARK  6 active torsions:
REMARK  status: ('A' for Active; 'I' for Inactive)
REMARK    1  A    between atoms: C_4  and  C_13
REMARK    2  A    between atoms: C_4  and  C_23
REMARK    3  A    between atoms: C_18  and  O_19
REMARK    4  A    between atoms: O_19  and  C_21
REMARK    5  A    between atoms: C_28  and  O_29
REMARK    6  A    between atoms: O_29  and  C_31
REMARK                            x       y       z     vdW  Elec       q    Type
REMARK                         _______ _______ _______ _____ _____    ______ ____
ROOT
ATOM      1  O   UNL     1      32.969 -22.259 -16.471  0.00  0.00    -0.464 OA
ATOM      2  O   UNL     1      33.808 -24.789 -18.929  0.00  0.00    -0.270 OA
ATOM      3  N   UNL     1      32.182 -24.814 -17.330  0.00  0.00    -0.278 N 
ATOM      4  C   UNL     1      33.920 -23.050 -17.208  0.00  0.00    +0.238 C 
ATOM      5  C   UNL     1      33.300 -24.280 -17.928  0.00  0.00    +0.271 C 
ATOM      6  C   UNL     1      31.961 -22.933 -15.847  0.00  0.00    +0.153 C 
ATOM      7  C   UNL     1      31.547 -24.194 -16.254  0.00  0.00    +0.085 C 
ATOM      8  C   UNL     1      31.298 -22.283 -14.807  0.00  0.00    +0.038 C 
ATOM      9  C   UNL     1      30.472 -24.823 -15.622  0.00  0.00    +0.018 C 
ATOM     10  C   UNL     1      30.231 -22.910 -14.164  0.00  0.00    +0.003 C 
ATOM     11  C   UNL     1      29.818 -24.179 -14.571  0.00  0.00    +0.001 C 
ATOM     12  H   UNL     1      31.817 -25.662 -17.672  0.00  0.00    +0.155 HD
ENDROOT
BRANCH   4  13
ATOM     13  C   UNL     1      34.491 -22.125 -18.309  0.00  0.00    +0.026 C 
ATOM     14  C   UNL     1      35.867 -21.938 -18.410  0.00  0.00    +0.003 C 
ATOM     15  C   UNL     1      33.626 -21.486 -19.192  0.00  0.00    +0.003 C 
ATOM     16  C   UNL     1      36.382 -21.106 -19.404  0.00  0.00    +0.037 C 
ATOM     17  C   UNL     1      34.142 -20.653 -20.185  0.00  0.00    +0.037 C 
ATOM     18  C   UNL     1      35.519 -20.463 -20.290  0.00  0.00    +0.148 C 
BRANCH  18  19
ATOM     19  O   UNL     1      36.023 -19.649 -21.259  0.00  0.00    -0.424 OA
BRANCH  19  21
ATOM     20  O   UNL     1      35.341 -17.534 -20.523  0.00  0.00    -0.250 OA
ATOM     21  C   UNL     1      35.362 -18.415 -21.372  0.00  0.00    +0.322 C 
ATOM     22  C   UNL     1      34.671 -18.323 -22.700  0.00  0.00    +0.122 C 
ENDBRANCH  19  21
ENDBRANCH  18  19
ENDBRANCH   4  13
BRANCH   4  23
ATOM     23  C   UNL     1      35.000 -23.452 -16.177  0.00  0.00    +0.026 C 
ATOM     24  C   UNL     1      35.186 -24.794 -15.856  0.00  0.00    +0.003 C 
ATOM     25  C   UNL     1      35.781 -22.470 -15.572  0.00  0.00    +0.003 C 
ATOM     26  C   UNL     1      36.160 -25.157 -14.927  0.00  0.00    +0.037 C 
ATOM     27  C   UNL     1      36.755 -22.833 -14.643  0.00  0.00    +0.037 C 
ATOM     28  C   UNL     1      36.944 -24.177 -14.319  0.00  0.00    +0.148 C 
BRANCH  28  29
ATOM     29  O   UNL     1      37.894 -24.532 -13.411  0.00  0.00    -0.424 OA
BRANCH  29  31
ATOM     30  O   UNL     1      38.577 -23.087 -11.701  0.00  0.00    -0.250 OA
ATOM     31  C   UNL     1      37.774 -23.880 -12.172  0.00  0.00    +0.322 C 
ATOM     32  C   UNL     1      36.505 -24.300 -11.492  0.00  0.00    +0.122 C 
ENDBRANCH  29  31
ENDBRANCH  28  29
ENDBRANCH   4  23
TORSDOF 6
ENDMDL
MODEL 4
REMARK VINA RESULT:      -8.7      2.327      6.382
REMARK  Name = 26391
REMARK  6 active torsions:
REMARK  status: ('A' for Active; 'I' for Inactive)
REMARK    1  A    between atoms: C_4  and  C_13
REMARK    2  A    between atoms: C_4  and  C_23
REMARK    3  A    between atoms: C_18  and  O_19
REMARK    4  A    between atoms: O_19  and  C_21
REMARK    5  A    between atoms: C_28  and  O_29
REMARK    6  A    between atoms: O_29  and  C_31
REMARK                            x       y       z     vdW  Elec       q    Type
REMARK                         _______ _______ _______ _____ _____    ______ ____
ROOT
ATOM      1  O   UNL     1      33.304 -24.560 -15.941  0.00  0.00    -0.464 OA
ATOM      2  O   UNL     1      35.221 -22.158 -14.016  0.00  0.00    -0.270 OA
ATOM      3  N   UNL     1      32.961 -22.334 -14.264  0.00  0.00    -0.278 N 
ATOM      4  C   UNL     1      34.413 -23.656 -15.778  0.00  0.00    +0.238 C 
ATOM      5  C   UNL     1      34.256 -22.667 -14.589  0.00  0.00    +0.271 C 
ATOM      6  C   UNL     1      32.063 -24.065 -15.672  0.00  0.00    +0.153 C 
ATOM      7  C   UNL     1      31.863 -22.970 -14.842  0.00  0.00    +0.085 C 
ATOM      8  C   UNL     1      30.969 -24.741 -16.211  0.00  0.00    +0.038 C 
ATOM      9  C   UNL     1      30.569 -22.534 -14.548  0.00  0.00    +0.018 C 
ATOM     10  C   UNL     1      29.675 -24.303 -15.932  0.00  0.00    +0.003 C 
ATOM     11  C   UNL     1      29.475 -23.200 -15.101  0.00  0.00    +0.001 C 
ATOM     12  H   UNL     1      32.803 -21.624 -13.601  0.00  0.00    +0.155 HD
ENDROOT
BRANCH   4  13
ATOM     13  C   UNL     1      35.648 -24.535 -15.470  0.00  0.00    +0.026 C 
ATOM     14  C   UNL     1      36.893 -23.940 -15.288  0.00  0.00    +0.003 C 
ATOM     15  C   UNL     1      35.507 -25.917 -15.375  0.00  0.00    +0.003 C 
ATOM     16  C   UNL     1      38.006 -24.733 -15.009  0.00  0.00    +0.037 C 
ATOM     17  C   UNL     1      36.620 -26.709 -15.096  0.00  0.00    +0.037 C 
ATOM     18  C   UNL     1      37.870 -26.117 -14.914  0.00  0.00    +0.148 C 
BRANCH  18  19
ATOM     19  O   UNL     1      38.957 -26.891 -14.643  0.00  0.00    -0.424 OA
BRANCH  19  21
ATOM     20  O   UNL     1      40.766 -26.181 -15.949  0.00  0.00    -0.250 OA
ATOM     21  C   UNL     1      40.187 -26.252 -14.873  0.00  0.00    +0.322 C 
ATOM     22  C   UNL     1      40.704 -25.660 -13.596  0.00  0.00    +0.122 C 
ENDBRANCH  19  21
ENDBRANCH  18  19
ENDBRANCH   4  13
BRANCH   4  23
ATOM     23  C   UNL     1      34.548 -22.930 -17.136  0.00  0.00    +0.026 C 
ATOM     24  C   UNL     1      35.716 -22.236 -17.438  0.00  0.00    +0.003 C 
ATOM     25  C   UNL     1      33.499 -22.973 -18.052  0.00  0.00    +0.003 C 
ATOM     26  C   UNL     1      35.838 -21.581 -18.663  0.00  0.00    +0.037 C 
ATOM     27  C   UNL     1      33.621 -22.318 -19.277  0.00  0.00    +0.037 C 
ATOM     28  C   UNL     1      34.791 -21.622 -19.583  0.00  0.00    +0.148 C 
BRANCH  28  29
ATOM     29  O   UNL     1      34.909 -20.981 -20.778  0.00  0.00    -0.424 OA
BRANCH  29  31
ATOM     30  O   UNL     1      35.300 -18.677 -20.653  0.00  0.00    -0.250 OA
ATOM     31  C   UNL     1      34.536 -19.628 -20.743  0.00  0.00    +0.322 C 
ATOM     32  C   UNL     1      33.043 -19.505 -20.832  0.00  0.00    +0.122 C 
ENDBRANCH  29  31
ENDBRANCH  28  29
ENDBRANCH   4  23
TORSDOF 6
ENDMDL
