MODEL 1
REMARK VINA RESULT:      -8.7      0.000      0.000
REMARK  Name = 71490
REMARK  6 active torsions:
REMARK  status: ('A' for Active; 'I' for Inactive)
REMARK    1  A    between atoms: C_1  and  C_2
REMARK    2  A    between atoms: C_1  and  C_8
REMARK    3  A    between atoms: C_1  and  C_16
REMARK    4  A    between atoms: C_1  and  C_19
REMARK    5  A    between atoms: C_19  and  C_20
REMARK    6  A    between atoms: C_20  and  N_21
REMARK                            x       y       z     vdW  Elec       q    Type
REMARK                         _______ _______ _______ _____ _____    ______ ____
ROOT
ATOM      1  C   UNL     1      35.542 -24.592 -14.574  0.00  0.00    +0.104 C 
ENDROOT
BRANCH   1   2
ATOM      2  C   UNL     1      36.029 -24.132 -13.171  0.00  0.00    -0.011 C 
ATOM      3  C   UNL     1      37.047 -23.225 -13.118  0.00  0.00    -0.004 C 
ATOM      4  C   UNL     1      35.408 -24.665 -12.078  0.00  0.00    -0.004 C 
ATOM      5  C   UNL     1      37.484 -22.814 -11.859  0.00  0.00    -0.000 C 
ATOM      6  C   UNL     1      35.845 -24.253 -10.819  0.00  0.00    -0.000 C 
ATOM      7  C   UNL     1      36.884 -23.328 -10.710  0.00  0.00    -0.000 C 
ENDBRANCH   1   2
BRANCH   1   8
ATOM      8  C   UNL     1      36.062 -23.542 -15.600  0.00  0.00    -0.011 C 
ATOM      9  C   UNL     1      35.150 -22.971 -16.436  0.00  0.00    -0.004 C 
ATOM     10  C   UNL     1      37.396 -23.261 -15.596  0.00  0.00    -0.004 C 
ATOM     11  C   UNL     1      35.615 -22.029 -17.355  0.00  0.00    -0.000 C 
ATOM     12  C   UNL     1      37.862 -22.320 -16.514  0.00  0.00    -0.000 C 
ATOM     13  C   UNL     1      36.972 -21.704 -17.394  0.00  0.00    -0.000 C 
ENDBRANCH   1   8
BRANCH   1  16
ATOM     14  O   UNL     1      35.942 -26.549 -16.025  0.00  0.00    -0.275 OA
ATOM     15  N   UNL     1      36.766 -26.646 -13.900  0.00  0.00    -0.328 N 
ATOM     16  C   UNL     1      36.067 -26.025 -14.918  0.00  0.00    +0.226 C 
ATOM     17  H   UNL     1      37.131 -27.551 -14.035  0.00  0.00    +0.145 HD
ATOM     18  H   UNL     1      36.900 -26.184 -13.042  0.00  0.00    +0.145 HD
ENDBRANCH   1  16
BRANCH   1  19
ATOM     19  C   UNL     1      33.970 -24.737 -14.670  0.00  0.00    -0.005 C 
BRANCH  19  20
ATOM     20  C   UNL     1      33.176 -23.834 -13.719  0.00  0.00    -0.072 C 
BRANCH  20  21
ATOM     21  N   UNL     1      31.706 -23.826 -14.156  0.00  0.00    +0.389 N 
ATOM     22  C   UNL     1      31.208 -25.276 -14.172  0.00  0.00    -0.073 C 
ATOM     23  C   UNL     1      31.630 -23.212 -15.558  0.00  0.00    -0.073 C 
ATOM     24  C   UNL     1      29.812 -25.391 -14.774  0.00  0.00    -0.022 C 
ATOM     25  C   UNL     1      30.234 -23.331 -16.156  0.00  0.00    -0.022 C 
ATOM     26  C   UNL     1      29.740 -24.770 -16.162  0.00  0.00    -0.004 C 
ATOM     27  C   UNL     1      30.933 -22.986 -13.140  0.00  0.00    -0.096 C 
ENDBRANCH  20  21
ENDBRANCH  19  20
ENDBRANCH   1  19
TORSDOF 6
ENDMDL
MODEL 2
REMARK VINA RESULT:      -8.4      7.757     10.958
REMARK  Name = 71490
REMARK  6 active torsions:
REMARK  status: ('A' for Active; 'I' for Inactive)
REMARK    1  A    between atoms: C_1  and  C_2
REMARK    2  A    between atoms: C_1  and  C_8
REMARK    3  A    between atoms: C_1  and  C_16
REMARK    4  A    between atoms: C_1  and  C_19
REMARK    5  A    between atoms: C_19  and  C_20
REMARK    6  A    between atoms: C_20  and  N_21
REMARK                            x       y       z     vdW  Elec       q    Type
REMARK                         _______ _______ _______ _____ _____    ______ ____
ROOT
ATOM      1  C   UNL     1      35.362 -18.479 -21.479  0.00  0.00    +0.104 C 
ENDROOT
BRANCH   1   2
ATOM      2  C   UNL     1      35.015 -18.547 -22.994  0.00  0.00    -0.011 C 
ATOM      3  C   UNL     1      34.825 -19.780 -23.546  0.00  0.00    -0.004 C 
ATOM      4  C   UNL     1      34.923 -17.369 -23.677  0.00  0.00    -0.004 C 
ATOM      5  C   UNL     1      34.514 -19.840 -24.905  0.00  0.00    -0.000 C 
ATOM      6  C   UNL     1      34.612 -17.430 -25.035  0.00  0.00    -0.000 C 
ATOM      7  C   UNL     1      34.408 -18.666 -25.649  0.00  0.00    -0.000 C 
ENDBRANCH   1   2
BRANCH   1   8
ATOM      8  C   UNL     1      34.567 -19.622 -20.782  0.00  0.00    -0.011 C 
ATOM      9  C   UNL     1      35.283 -20.629 -20.207  0.00  0.00    -0.004 C 
ATOM     10  C   UNL     1      33.206 -19.543 -20.792  0.00  0.00    -0.004 C 
ATOM     11  C   UNL     1      34.572 -21.653 -19.581  0.00  0.00    -0.000 C 
ATOM     12  C   UNL     1      32.494 -20.567 -20.167  0.00  0.00    -0.000 C 
ATOM     13  C   UNL     1      33.177 -21.622 -19.562  0.00  0.00    -0.000 C 
ENDBRANCH   1   8
BRANCH   1  16
ATOM     14  O   UNL     1      37.390 -18.986 -20.168  0.00  0.00    -0.275 OA
ATOM     15  N   UNL     1      37.685 -18.420 -22.357  0.00  0.00    -0.328 N 
ATOM     16  C   UNL     1      36.900 -18.632 -21.240  0.00  0.00    +0.226 C 
ATOM     17  H   UNL     1      38.665 -18.498 -22.292  0.00  0.00    +0.145 HD
ATOM     18  H   UNL     1      37.266 -18.192 -23.218  0.00  0.00    +0.145 HD
ENDBRANCH   1  16
BRANCH   1  19
ATOM     19  C   UNL     1      35.020 -17.080 -20.825  0.00  0.00    -0.005 C 
BRANCH  19  20
ATOM     20  C   UNL     1      33.563 -16.629 -20.984  0.00  0.00    -0.072 C 
BRANCH  20  21
ATOM     21  N   UNL     1      33.537 -15.109 -21.192  0.00  0.00    +0.389 N 
ATOM     22  C   UNL     1      32.500 -14.516 -20.230  0.00  0.00    -0.073 C 
ATOM     23  C   UNL     1      33.145 -14.835 -22.647  0.00  0.00    -0.073 C 
ATOM     24  C   UNL     1      32.267 -13.033 -20.491  0.00  0.00    -0.022 C 
ATOM     25  C   UNL     1      32.910 -13.351 -22.902  0.00  0.00    -0.022 C 
ATOM     26  C   UNL     1      31.887 -12.764 -21.941  0.00  0.00    -0.004 C 
ATOM     27  C   UNL     1      34.940 -14.585 -20.887  0.00  0.00    -0.096 C 
ENDBRANCH  20  21
ENDBRANCH  19  20
ENDBRANCH   1  19
TORSDOF 6
ENDMDL
MODEL 3
REMARK VINA RESULT:      -7.7      2.761      4.379
REMARK  Name = 71490
REMARK  6 active torsions:
REMARK  status: ('A' for Active; 'I' for Inactive)
REMARK    1  A    between atoms: C_1  and  C_2
REMARK    2  A    between atoms: C_1  and  C_8
REMARK    3  A    between atoms: C_1  and  C_16
REMARK    4  A    between atoms: C_1  and  C_19
REMARK    5  A    between atoms: C_19  and  C_20
REMARK    6  A    between atoms: C_20  and  N_21
REMARK                            x       y       z     vdW  Elec       q    Type
REMARK                         _______ _______ _______ _____ _____    ______ ____
ROOT
ATOM      1  C   UNL     1      33.876 -22.635 -18.376  0.00  0.00    +0.104 C 
ENDROOT
BRANCH   1   2
ATOM      2  C   UNL     1      35.108 -22.499 -17.435  0.00  0.00    -0.011 C 
ATOM      3  C   UNL     1      35.010 -23.025 -16.181  0.00  0.00    -0.004 C 
ATOM      4  C   UNL     1      36.211 -21.861 -17.925  0.00  0.00    -0.004 C 
ATOM      5  C   UNL     1      36.115 -22.902 -15.338  0.00  0.00    -0.000 C 
ATOM      6  C   UNL     1      37.315 -21.737 -17.082  0.00  0.00    -0.000 C 
ATOM      7  C   UNL     1      37.267 -22.258 -15.789  0.00  0.00    -0.000 C 
ENDBRANCH   1   2
BRANCH   1   8
ATOM      8  C   UNL     1      33.948 -21.453 -19.387  0.00  0.00    -0.011 C 
ATOM      9  C   UNL     1      32.787 -20.801 -19.678  0.00  0.00    -0.004 C 
ATOM     10  C   UNL     1      35.166 -21.147 -19.917  0.00  0.00    -0.004 C 
ATOM     11  C   UNL     1      32.850 -19.742 -20.584  0.00  0.00    -0.000 C 
ATOM     12  C   UNL     1      35.229 -20.088 -20.822  0.00  0.00    -0.000 C 
ATOM     13  C   UNL     1      34.072 -19.385 -21.156  0.00  0.00    -0.000 C 
ENDBRANCH   1   8
BRANCH   1  16
ATOM     14  O   UNL     1      33.508 -25.066 -18.595  0.00  0.00    -0.275 OA
ATOM     15  N   UNL     1      34.243 -23.957 -20.447  0.00  0.00    -0.328 N 
ATOM     16  C   UNL     1      33.875 -24.013 -19.116  0.00  0.00    +0.226 C 
ATOM     17  H   UNL     1      34.268 -24.780 -20.986  0.00  0.00    +0.145 HD
ATOM     18  H   UNL     1      34.479 -23.093 -20.857  0.00  0.00    +0.145 HD
ENDBRANCH   1  16
BRANCH   1  19
ATOM     19  C   UNL     1      32.498 -22.626 -17.601  0.00  0.00    -0.005 C 
BRANCH  19  20
ATOM     20  C   UNL     1      32.487 -23.418 -16.287  0.00  0.00    -0.072 C 
BRANCH  20  21
ATOM     21  N   UNL     1      31.083 -23.339 -15.675  0.00  0.00    +0.389 N 
ATOM     22  C   UNL     1      30.543 -24.768 -15.539  0.00  0.00    -0.073 C 
ATOM     23  C   UNL     1      30.199 -22.514 -16.617  0.00  0.00    -0.073 C 
ATOM     24  C   UNL     1      29.080 -24.784 -15.113  0.00  0.00    -0.022 C 
ATOM     25  C   UNL     1      28.737 -22.535 -16.188  0.00  0.00    -0.022 C 
ATOM     26  C   UNL     1      28.208 -23.955 -16.045  0.00  0.00    -0.004 C 
ATOM     27  C   UNL     1      31.219 -22.665 -14.310  0.00  0.00    -0.096 C 
ENDBRANCH  20  21
ENDBRANCH  19  20
ENDBRANCH   1  19
TORSDOF 6
ENDMDL
MODEL 4
REMARK VINA RESULT:      -7.6      1.728      6.047
REMARK  Name = 71490
REMARK  6 active torsions:
REMARK  status: ('A' for Active; 'I' for Inactive)
REMARK    1  A    between atoms: C_1  and  C_2
REMARK    2  A    between atoms: C_1  and  C_8
REMARK    3  A    between atoms: C_1  and  C_16
REMARK    4  A    between atoms: C_1  and  C_19
REMARK    5  A    between atoms: C_19  and  C_20
REMARK    6  A    between atoms: C_20  and  N_21
REMARK                            x       y       z     vdW  Elec       q    Type
REMARK                         _______ _______ _______ _____ _____    ______ ____
ROOT
ATOM      1  C   UNL     1      34.271 -23.434 -15.551  0.00  0.00    +0.104 C 
ENDROOT
BRANCH   1   2
ATOM      2  C   UNL     1      34.653 -22.897 -16.960  0.00  0.00    -0.011 C 
ATOM      3  C   UNL     1      33.781 -23.124 -17.983  0.00  0.00    -0.004 C 
ATOM      4  C   UNL     1      35.838 -22.231 -17.084  0.00  0.00    -0.004 C 
ATOM      5  C   UNL     1      34.125 -22.642 -19.246  0.00  0.00    -0.000 C 
ATOM      6  C   UNL     1      36.182 -21.749 -18.347  0.00  0.00    -0.000 C 
ATOM      7  C   UNL     1      35.325 -21.955 -19.428  0.00  0.00    -0.000 C 
ENDBRANCH   1   2
BRANCH   1   8
ATOM      8  C   UNL     1      32.747 -23.172 -15.365  0.00  0.00    -0.011 C 
ATOM      9  C   UNL     1      31.943 -23.321 -16.456  0.00  0.00    -0.004 C 
ATOM     10  C   UNL     1      32.315 -22.808 -14.124  0.00  0.00    -0.004 C 
ATOM     11  C   UNL     1      30.578 -23.086 -16.290  0.00  0.00    -0.000 C 
ATOM     12  C   UNL     1      30.950 -22.574 -13.958  0.00  0.00    -0.000 C 
ATOM     13  C   UNL     1      30.081 -22.712 -15.041  0.00  0.00    -0.000 C 
ENDBRANCH   1   8
BRANCH   1  16
ATOM     14  O   UNL     1      35.622 -25.476 -15.868  0.00  0.00    -0.275 OA
ATOM     15  N   UNL     1      33.697 -25.683 -14.663  0.00  0.00    -0.328 N 
ATOM     16  C   UNL     1      34.603 -24.957 -15.414  0.00  0.00    +0.226 C 
ATOM     17  H   UNL     1      33.832 -26.649 -14.527  0.00  0.00    +0.145 HD
ATOM     18  H   UNL     1      32.917 -25.234 -14.263  0.00  0.00    +0.145 HD
ENDBRANCH   1  16
BRANCH   1  19
ATOM     19  C   UNL     1      35.100 -22.765 -14.384  0.00  0.00    -0.005 C 
BRANCH  19  20
ATOM     20  C   UNL     1      35.155 -23.572 -13.081  0.00  0.00    -0.072 C 
BRANCH  20  21
ATOM     21  N   UNL     1      36.614 -23.946 -12.792  0.00  0.00    +0.389 N 
ATOM     22  C   UNL     1      37.435 -23.666 -14.056  0.00  0.00    -0.073 C 
ATOM     23  C   UNL     1      36.661 -25.436 -12.434  0.00  0.00    -0.073 C 
ATOM     24  C   UNL     1      38.864 -24.180 -13.930  0.00  0.00    -0.022 C 
ATOM     25  C   UNL     1      38.092 -25.945 -12.313  0.00  0.00    -0.022 C 
ATOM     26  C   UNL     1      38.906 -25.658 -13.566  0.00  0.00    -0.004 C 
ATOM     27  C   UNL     1      37.083 -23.080 -11.623  0.00  0.00    -0.096 C 
ENDBRANCH  20  21
ENDBRANCH  19  20
ENDBRANCH   1  19
TORSDOF 6
ENDMDL
MODEL 5
REMARK VINA RESULT:      -7.4      1.979      5.443
REMARK  Name = 71490
REMARK  6 active torsions:
REMARK  status: ('A' for Active; 'I' for Inactive)
REMARK    1  A    between atoms: C_1  and  C_2
REMARK    2  A    between atoms: C_1  and  C_8
REMARK    3  A    between atoms: C_1  and  C_16
REMARK    4  A    between atoms: C_1  and  C_19
REMARK    5  A    between atoms: C_19  and  C_20
REMARK    6  A    between atoms: C_20  and  N_21
REMARK                            x       y       z     vdW  Elec       q    Type
REMARK                         _______ _______ _______ _____ _____    ______ ____
ROOT
ATOM      1  C   UNL     1      34.263 -23.980 -14.877  0.00  0.00    +0.104 C 
ENDROOT
BRANCH   1   2
ATOM      2  C   UNL     1      32.733 -23.896 -14.608  0.00  0.00    -0.011 C 
ATOM      3  C   UNL     1      32.113 -22.704 -14.837  0.00  0.00    -0.004 C 
ATOM      4  C   UNL     1      32.107 -25.022 -14.159  0.00  0.00    -0.004 C 
ATOM      5  C   UNL     1      30.741 -22.629 -14.595  0.00  0.00    -0.000 C 
ATOM      6  C   UNL     1      30.735 -24.948 -13.916  0.00  0.00    -0.000 C 
ATOM      7  C   UNL     1      30.052 -23.751 -14.134  0.00  0.00    -0.000 C 
ENDBRANCH   1   2
BRANCH   1   8
ATOM      8  C   UNL     1      34.514 -23.318 -16.264  0.00  0.00    -0.011 C 
ATOM      9  C   UNL     1      33.549 -23.462 -17.217  0.00  0.00    -0.004 C 
ATOM     10  C   UNL     1      35.683 -22.638 -16.438  0.00  0.00    -0.004 C 
ATOM     11  C   UNL     1      33.774 -22.869 -18.459  0.00  0.00    -0.000 C 
ATOM     12  C   UNL     1      35.907 -22.044 -17.680  0.00  0.00    -0.000 C 
ATOM     13  C   UNL     1      34.953 -22.160 -18.691  0.00  0.00    -0.000 C 
ENDBRANCH   1   8
BRANCH   1  16
ATOM     14  O   UNL     1      36.063 -22.556 -13.971  0.00  0.00    -0.275 OA
ATOM     15  N   UNL     1      34.565 -23.409 -12.478  0.00  0.00    -0.328 N 
ATOM     16  C   UNL     1      35.079 -23.262 -13.752  0.00  0.00    +0.226 C 
ATOM     17  H   UNL     1      35.018 -22.988 -11.713  0.00  0.00    +0.145 HD
ATOM     18  H   UNL     1      33.744 -23.934 -12.336  0.00  0.00    +0.145 HD
ENDBRANCH   1  16
BRANCH   1  19
ATOM     19  C   UNL     1      34.818 -25.460 -14.855  0.00  0.00    -0.005 C 
BRANCH  19  20
ATOM     20  C   UNL     1      36.098 -25.685 -15.670  0.00  0.00    -0.072 C 
BRANCH  20  21
ATOM     21  N   UNL     1      37.261 -25.940 -14.702  0.00  0.00    +0.389 N 
ATOM     22  C   UNL     1      36.699 -25.949 -13.276  0.00  0.00    -0.073 C 
ATOM     23  C   UNL     1      38.281 -24.810 -14.876  0.00  0.00    -0.073 C 
ATOM     24  C   UNL     1      37.805 -26.010 -12.230  0.00  0.00    -0.022 C 
ATOM     25  C   UNL     1      39.384 -24.874 -13.826  0.00  0.00    -0.022 C 
ATOM     26  C   UNL     1      38.822 -24.891 -12.412  0.00  0.00    -0.004 C 
ATOM     27  C   UNL     1      37.866 -27.296 -15.068  0.00  0.00    -0.096 C 
ENDBRANCH  20  21
ENDBRANCH  19  20
ENDBRANCH   1  19
TORSDOF 6
ENDMDL
MODEL 6
REMARK VINA RESULT:      -6.8     14.837     17.357
REMARK  Name = 71490
REMARK  6 active torsions:
REMARK  status: ('A' for Active; 'I' for Inactive)
REMARK    1  A    between atoms: C_1  and  C_2
REMARK    2  A    between atoms: C_1  and  C_8
REMARK    3  A    between atoms: C_1  and  C_16
REMARK    4  A    between atoms: C_1  and  C_19
REMARK    5  A    between atoms: C_19  and  C_20
REMARK    6  A    between atoms: C_20  and  N_21
REMARK                            x       y       z     vdW  Elec       q    Type
REMARK                         _______ _______ _______ _____ _____    ______ ____
ROOT
ATOM      1  C   UNL     1      33.123  -8.787 -23.363  0.00  0.00    +0.104 C 
ENDROOT
BRANCH   1   2
ATOM      2  C   UNL     1      32.641  -8.902 -21.889  0.00  0.00    -0.011 C 
ATOM      3  C   UNL     1      32.043 -10.066 -21.506  0.00  0.00    -0.004 C 
ATOM      4  C   UNL     1      32.847  -7.829 -21.070  0.00  0.00    -0.004 C 
ATOM      5  C   UNL     1      31.610 -10.167 -20.184  0.00  0.00    -0.000 C 
ATOM      6  C   UNL     1      32.414  -7.931 -19.748  0.00  0.00    -0.000 C 
ATOM      7  C   UNL     1      31.795  -9.100 -19.305  0.00  0.00    -0.000 C 
ENDBRANCH   1   2
BRANCH   1   8
ATOM      8  C   UNL     1      32.389  -7.563 -23.985  0.00  0.00    -0.011 C 
ATOM      9  C   UNL     1      31.027  -7.542 -23.915  0.00  0.00    -0.004 C 
ATOM     10  C   UNL     1      33.153  -6.591 -24.559  0.00  0.00    -0.004 C 
ATOM     11  C   UNL     1      30.369  -6.445 -24.472  0.00  0.00    -0.000 C 
ATOM     12  C   UNL     1      32.494  -5.494 -25.116  0.00  0.00    -0.000 C 
ATOM     13  C   UNL     1      31.102  -5.421 -25.072  0.00  0.00    -0.000 C 
ENDBRANCH   1   8
BRANCH   1  16
ATOM     14  O   UNL     1      35.421  -9.404 -24.022  0.00  0.00    -0.275 OA
ATOM     15  N   UNL     1      35.160  -7.448 -22.878  0.00  0.00    -0.328 N 
ATOM     16  C   UNL     1      34.676  -8.613 -23.443  0.00  0.00    +0.226 C 
ATOM     17  H   UNL     1      36.126  -7.261 -22.886  0.00  0.00    +0.145 HD
ATOM     18  H   UNL     1      34.538  -6.804 -22.469  0.00  0.00    +0.145 HD
ENDBRANCH   1  16
BRANCH   1  19
ATOM     19  C   UNL     1      32.850 -10.093 -24.211  0.00  0.00    -0.005 C 
BRANCH  19  20
ATOM     20  C   UNL     1      33.955 -11.154 -24.143  0.00  0.00    -0.072 C 
BRANCH  20  21
ATOM     21  N   UNL     1      33.310 -12.544 -24.216  0.00  0.00    +0.389 N 
ATOM     22  C   UNL     1      34.173 -13.512 -23.398  0.00  0.00    -0.073 C 
ATOM     23  C   UNL     1      33.264 -12.970 -25.687  0.00  0.00    -0.073 C 
ATOM     24  C   UNL     1      33.717 -14.957 -23.562  0.00  0.00    -0.022 C 
ATOM     25  C   UNL     1      32.811 -14.416 -25.845  0.00  0.00    -0.022 C 
ATOM     26  C   UNL     1      33.664 -15.373 -25.025  0.00  0.00    -0.004 C 
ATOM     27  C   UNL     1      31.904 -12.424 -23.629  0.00  0.00    -0.096 C 
ENDBRANCH  20  21
ENDBRANCH  19  20
ENDBRANCH   1  19
TORSDOF 6
ENDMDL
MODEL 7
REMARK VINA RESULT:      -6.6     15.783     18.485
REMARK  Name = 71490
REMARK  6 active torsions:
REMARK  status: ('A' for Active; 'I' for Inactive)
REMARK    1  A    between atoms: C_1  and  C_2
REMARK    2  A    between atoms: C_1  and  C_8
REMARK    3  A    between atoms: C_1  and  C_16
REMARK    4  A    between atoms: C_1  and  C_19
REMARK    5  A    between atoms: C_19  and  C_20
REMARK    6  A    between atoms: C_20  and  N_21
REMARK                            x       y       z     vdW  Elec       q    Type
REMARK                         _______ _______ _______ _____ _____    ______ ____
ROOT
ATOM      1  C   UNL     1      32.776  -9.387 -23.173  0.00  0.00    +0.104 C 
ENDROOT
BRANCH   1   2
ATOM      2  C   UNL     1      33.184 -10.712 -23.879  0.00  0.00    -0.011 C 
ATOM      3  C   UNL     1      33.432 -10.666 -25.219  0.00  0.00    -0.004 C 
ATOM      4  C   UNL     1      33.267 -11.838 -23.113  0.00  0.00    -0.004 C 
ATOM      5  C   UNL     1      33.796 -11.854 -25.852  0.00  0.00    -0.000 C 
ATOM      6  C   UNL     1      33.632 -13.027 -23.746  0.00  0.00    -0.000 C 
ATOM      7  C   UNL     1      33.896 -13.035 -25.116  0.00  0.00    -0.000 C 
ENDBRANCH   1   2
BRANCH   1   8
ATOM      8  C   UNL     1      32.071  -9.784 -21.842  0.00  0.00    -0.011 C 
ATOM      9  C   UNL     1      31.113 -10.752 -21.900  0.00  0.00    -0.004 C 
ATOM     10  C   UNL     1      32.455  -9.137 -20.705  0.00  0.00    -0.004 C 
ATOM     11  C   UNL     1      30.481 -11.108 -20.708  0.00  0.00    -0.000 C 
ATOM     12  C   UNL     1      31.823  -9.493 -19.514  0.00  0.00    -0.000 C 
ATOM     13  C   UNL     1      30.836 -10.478 -19.515  0.00  0.00    -0.000 C 
ENDBRANCH   1   8
BRANCH   1  16
ATOM     14  O   UNL     1      34.134  -7.755 -21.915  0.00  0.00    -0.275 OA
ATOM     15  N   UNL     1      35.043  -8.608 -23.824  0.00  0.00    -0.328 N 
ATOM     16  C   UNL     1      34.021  -8.479 -22.903  0.00  0.00    +0.226 C 
ATOM     17  H   UNL     1      35.864  -8.072 -23.727  0.00  0.00    +0.145 HD
ATOM     18  H   UNL     1      34.953  -9.236 -24.577  0.00  0.00    +0.145 HD
ENDBRANCH   1  16
BRANCH   1  19
ATOM     19  C   UNL     1      31.833  -8.476 -24.056  0.00  0.00    -0.005 C 
BRANCH  19  20
ATOM     20  C   UNL     1      31.127  -7.346 -23.296  0.00  0.00    -0.072 C 
BRANCH  20  21
ATOM     21  N   UNL     1      31.653  -6.000 -23.811  0.00  0.00    +0.389 N 
ATOM     22  C   UNL     1      30.484  -5.248 -24.456  0.00  0.00    -0.073 C 
ATOM     23  C   UNL     1      32.751  -6.282 -24.842  0.00  0.00    -0.073 C 
ATOM     24  C   UNL     1      30.945  -3.979 -25.163  0.00  0.00    -0.022 C 
ATOM     25  C   UNL     1      33.207  -5.011 -25.548  0.00  0.00    -0.022 C 
ATOM     26  C   UNL     1      32.042  -4.262 -26.179  0.00  0.00    -0.004 C 
ATOM     27  C   UNL     1      32.206  -5.238 -22.607  0.00  0.00    -0.096 C 
ENDBRANCH  20  21
ENDBRANCH  19  20
ENDBRANCH   1  19
TORSDOF 6
ENDMDL
MODEL 8
REMARK VINA RESULT:      -6.5     16.248     18.987
REMARK  Name = 71490
REMARK  6 active torsions:
REMARK  status: ('A' for Active; 'I' for Inactive)
REMARK    1  A    between atoms: C_1  and  C_2
REMARK    2  A    between atoms: C_1  and  C_8
REMARK    3  A    between atoms: C_1  and  C_16
REMARK    4  A    between atoms: C_1  and  C_19
REMARK    5  A    between atoms: C_19  and  C_20
REMARK    6  A    between atoms: C_20  and  N_21
REMARK                            x       y       z     vdW  Elec       q    Type
REMARK                         _______ _______ _______ _____ _____    ______ ____
ROOT
ATOM      1  C   UNL     1      32.692  -8.655 -22.488  0.00  0.00    +0.104 C 
ENDROOT
BRANCH   1   2
ATOM      2  C   UNL     1      33.420  -9.582 -23.503  0.00  0.00    -0.011 C 
ATOM      3  C   UNL     1      33.079 -10.902 -23.514  0.00  0.00    -0.004 C 
ATOM      4  C   UNL     1      34.356  -9.016 -24.319  0.00  0.00    -0.004 C 
ATOM      5  C   UNL     1      33.733 -11.733 -24.424  0.00  0.00    -0.000 C 
ATOM      6  C   UNL     1      35.010  -9.847 -25.229  0.00  0.00    -0.000 C 
ATOM      7  C   UNL     1      34.699 -11.206 -25.281  0.00  0.00    -0.000 C 
ENDBRANCH   1   2
BRANCH   1   8
ATOM      8  C   UNL     1      32.048  -9.580 -21.413  0.00  0.00    -0.011 C 
ATOM      9  C   UNL     1      31.146 -10.509 -21.838  0.00  0.00    -0.004 C 
ATOM     10  C   UNL     1      32.427  -9.400 -20.116  0.00  0.00    -0.004 C 
ATOM     11  C   UNL     1      30.570 -11.338 -20.876  0.00  0.00    -0.000 C 
ATOM     12  C   UNL     1      31.850 -10.229 -19.153  0.00  0.00    -0.000 C 
ATOM     13  C   UNL     1      30.922 -11.198 -19.533  0.00  0.00    -0.000 C 
ENDBRANCH   1   8
BRANCH   1  16
ATOM     14  O   UNL     1      33.493  -7.106 -20.741  0.00  0.00    -0.275 OA
ATOM     15  N   UNL     1      34.850  -7.424 -22.546  0.00  0.00    -0.328 N 
ATOM     16  C   UNL     1      33.683  -7.635 -21.836  0.00  0.00    +0.226 C 
ATOM     17  H   UNL     1      35.527  -6.797 -22.204  0.00  0.00    +0.145 HD
ATOM     18  H   UNL     1      35.004  -7.902 -23.393  0.00  0.00    +0.145 HD
ENDBRANCH   1  16
BRANCH   1  19
ATOM     19  C   UNL     1      31.598  -7.734 -23.161  0.00  0.00    -0.005 C 
BRANCH  19  20
ATOM     20  C   UNL     1      31.834  -6.226 -23.007  0.00  0.00    -0.072 C 
BRANCH  20  21
ATOM     21  N   UNL     1      31.654  -5.555 -24.375  0.00  0.00    +0.389 N 
ATOM     22  C   UNL     1      32.989  -5.638 -25.124  0.00  0.00    -0.073 C 
ATOM     23  C   UNL     1      31.254  -4.095 -24.139  0.00  0.00    -0.073 C 
ATOM     24  C   UNL     1      32.963  -4.834 -26.419  0.00  0.00    -0.022 C 
ATOM     25  C   UNL     1      31.233  -3.296 -25.436  0.00  0.00    -0.022 C 
ATOM     26  C   UNL     1      32.556  -3.387 -26.181  0.00  0.00    -0.004 C 
ATOM     27  C   UNL     1      30.555  -6.319 -25.114  0.00  0.00    -0.096 C 
ENDBRANCH  20  21
ENDBRANCH  19  20
ENDBRANCH   1  19
TORSDOF 6
ENDMDL
MODEL 9
REMARK VINA RESULT:      -6.4      7.840     10.505
REMARK  Name = 71490
REMARK  6 active torsions:
REMARK  status: ('A' for Active; 'I' for Inactive)
REMARK    1  A    between atoms: C_1  and  C_2
REMARK    2  A    between atoms: C_1  and  C_8
REMARK    3  A    between atoms: C_1  and  C_16
REMARK    4  A    between atoms: C_1  and  C_19
REMARK    5  A    between atoms: C_19  and  C_20
REMARK    6  A    between atoms: C_20  and  N_21
REMARK                            x       y       z     vdW  Elec       q    Type
REMARK                         _______ _______ _______ _____ _____    ______ ____
ROOT
ATOM      1  C   UNL     1      34.135 -18.337 -21.312  0.00  0.00    +0.104 C 
ENDROOT
BRANCH   1   2
ATOM      2  C   UNL     1      35.175 -19.345 -20.745  0.00  0.00    -0.011 C 
ATOM      3  C   UNL     1      36.497 -19.042 -20.891  0.00  0.00    -0.004 C 
ATOM      4  C   UNL     1      34.700 -20.471 -20.138  0.00  0.00    -0.004 C 
ATOM      5  C   UNL     1      37.429 -19.947 -20.384  0.00  0.00    -0.000 C 
ATOM      6  C   UNL     1      35.632 -21.376 -19.631  0.00  0.00    -0.000 C 
ATOM      7  C   UNL     1      36.997 -21.114 -19.754  0.00  0.00    -0.000 C 
ENDBRANCH   1   2
BRANCH   1   8
ATOM      8  C   UNL     1      34.371 -18.260 -22.849  0.00  0.00    -0.011 C 
ATOM      9  C   UNL     1      34.600 -17.031 -23.392  0.00  0.00    -0.004 C 
ATOM     10  C   UNL     1      34.332 -19.427 -23.554  0.00  0.00    -0.004 C 
ATOM     11  C   UNL     1      34.812 -16.963 -24.770  0.00  0.00    -0.000 C 
ATOM     12  C   UNL     1      34.544 -19.358 -24.931  0.00  0.00    -0.000 C 
ATOM     13  C   UNL     1      34.783 -18.126 -25.539  0.00  0.00    -0.000 C 
ENDBRANCH   1   8
BRANCH   1  16
ATOM     14  O   UNL     1      31.751 -17.998 -20.767  0.00  0.00    -0.275 OA
ATOM     15  N   UNL     1      32.457 -20.149 -21.042  0.00  0.00    -0.328 N 
ATOM     16  C   UNL     1      32.672 -18.785 -20.986  0.00  0.00    +0.226 C 
ATOM     17  H   UNL     1      31.563 -20.515 -20.851  0.00  0.00    +0.145 HD
ATOM     18  H   UNL     1      33.197 -20.755 -21.274  0.00  0.00    +0.145 HD
ENDBRANCH   1  16
BRANCH   1  19
ATOM     19  C   UNL     1      34.239 -16.901 -20.658  0.00  0.00    -0.005 C 
BRANCH  19  20
ATOM     20  C   UNL     1      32.913 -16.138 -20.553  0.00  0.00    -0.072 C 
BRANCH  20  21
ATOM     21  N   UNL     1      33.132 -14.699 -21.038  0.00  0.00    +0.389 N 
ATOM     22  C   UNL     1      32.294 -13.768 -20.154  0.00  0.00    -0.073 C 
ATOM     23  C   UNL     1      32.676 -14.615 -22.499  0.00  0.00    -0.073 C 
ATOM     24  C   UNL     1      32.299 -12.335 -20.675  0.00  0.00    -0.022 C 
ATOM     25  C   UNL     1      32.679 -13.181 -23.013  0.00  0.00    -0.022 C 
ATOM     26  C   UNL     1      31.854 -12.258 -22.129  0.00  0.00    -0.004 C 
ATOM     27  C   UNL     1      34.624 -14.396 -20.905  0.00  0.00    -0.096 C 
ENDBRANCH  20  21
ENDBRANCH  19  20
ENDBRANCH   1  19
TORSDOF 6
ENDMDL
