MODEL 1
REMARK VINA RESULT:      -8.3      0.000      0.000
REMARK  Name = 11660398
REMARK  4 active torsions:
REMARK  status: ('A' for Active; 'I' for Inactive)
REMARK    1  A    between atoms: N_1  and  C_10
REMARK    2  A    between atoms: C_3  and  C_7
REMARK    3  A    between atoms: C_7  and  O_8
REMARK    4  A    between atoms: C_10  and  C_13
REMARK                            x       y       z     vdW  Elec       q    Type
REMARK                         _______ _______ _______ _____ _____    ______ ____
ROOT
ATOM      1  N   UNL     1      35.996 -25.050 -14.050  0.00  0.00    -0.261 N 
ATOM      2  N   UNL     1      37.188 -26.803 -14.564  0.00  0.00    -0.224 NA
ATOM      3  C   UNL     1      36.514 -25.448 -12.878  0.00  0.00    +0.149 C 
ATOM      4  C   UNL     1      36.404 -25.862 -15.039  0.00  0.00    +0.168 C 
ATOM      5  C   UNL     1      37.261 -26.550 -13.217  0.00  0.00    +0.122 C 
ENDROOT
BRANCH   3   7
ATOM      6  O   UNL     1      35.307 -24.958 -10.874  0.00  0.00    -0.243 OA
ATOM      7  C   UNL     1      36.318 -24.848 -11.597  0.00  0.00    +0.357 C 
BRANCH   7   8
ATOM      8  O   UNL     1      37.406 -24.093 -11.202  0.00  0.00    -0.440 OA
ATOM      9  C   UNL     1      37.548 -22.791 -11.781  0.00  0.00    +0.256 C 
ENDBRANCH   7   8
ENDBRANCH   3   7
BRANCH   1  10
ATOM     10  C   UNL     1      35.097 -23.883 -14.245  0.00  0.00    +0.101 C 
ATOM     11  C   UNL     1      33.639 -24.264 -13.899  0.00  0.00    +0.027 C 
BRANCH  10  13
ATOM     12  I   UNL     1      36.099 -21.087 -19.868  0.00  0.00    -0.043 I 
ATOM     13  C   UNL     1      35.331 -23.226 -15.563  0.00  0.00    -0.004 C 
ATOM     14  C   UNL     1      36.553 -22.606 -15.826  0.00  0.00    -0.002 C 
ATOM     15  C   UNL     1      34.329 -23.232 -16.534  0.00  0.00    -0.002 C 
ATOM     16  C   UNL     1      36.772 -21.992 -17.059  0.00  0.00    +0.006 C 
ATOM     17  C   UNL     1      34.548 -22.618 -17.767  0.00  0.00    +0.006 C 
ATOM     18  C   UNL     1      35.770 -21.999 -18.030  0.00  0.00    +0.030 C 
ENDBRANCH  10  13
ENDBRANCH   1  10
TORSDOF 4
ENDMDL
MODEL 2
REMARK VINA RESULT:      -8.3      0.887      1.759
REMARK  Name = 11660398
REMARK  4 active torsions:
REMARK  status: ('A' for Active; 'I' for Inactive)
REMARK    1  A    between atoms: N_1  and  C_10
REMARK    2  A    between atoms: C_3  and  C_7
REMARK    3  A    between atoms: C_7  and  O_8
REMARK    4  A    between atoms: C_10  and  C_13
REMARK                            x       y       z     vdW  Elec       q    Type
REMARK                         _______ _______ _______ _____ _____    ______ ____
ROOT
ATOM      1  N   UNL     1      36.721 -24.641 -14.121  0.00  0.00    -0.261 N 
ATOM      2  N   UNL     1      37.959 -26.397 -14.497  0.00  0.00    -0.224 NA
ATOM      3  C   UNL     1      37.594 -24.649 -13.102  0.00  0.00    +0.149 C 
ATOM      4  C   UNL     1      36.949 -25.682 -14.938  0.00  0.00    +0.168 C 
ATOM      5  C   UNL     1      38.366 -25.758 -13.352  0.00  0.00    +0.122 C 
ENDROOT
BRANCH   3   7
ATOM      6  O   UNL     1      38.116 -22.546 -12.093  0.00  0.00    -0.243 OA
ATOM      7  C   UNL     1      37.679 -23.713 -12.027  0.00  0.00    +0.357 C 
BRANCH   7   8
ATOM      8  O   UNL     1      37.207 -24.239 -10.839  0.00  0.00    -0.440 OA
ATOM      9  C   UNL     1      35.791 -24.216 -10.627  0.00  0.00    +0.256 C 
ENDBRANCH   7   8
ENDBRANCH   3   7
BRANCH   1  10
ATOM     10  C   UNL     1      35.649 -23.634 -14.330  0.00  0.00    +0.101 C 
ATOM     11  C   UNL     1      34.276 -24.217 -13.918  0.00  0.00    +0.027 C 
BRANCH  10  13
ATOM     12  I   UNL     1      36.035 -20.960 -20.087  0.00  0.00    -0.043 I 
ATOM     13  C   UNL     1      35.741 -23.008 -15.681  0.00  0.00    -0.004 C 
ATOM     14  C   UNL     1      34.670 -23.109 -16.570  0.00  0.00    -0.002 C 
ATOM     15  C   UNL     1      36.896 -22.320 -16.055  0.00  0.00    -0.002 C 
ATOM     16  C   UNL     1      34.755 -22.523 -17.833  0.00  0.00    +0.006 C 
ATOM     17  C   UNL     1      36.981 -21.735 -17.318  0.00  0.00    +0.006 C 
ATOM     18  C   UNL     1      35.911 -21.835 -18.206  0.00  0.00    +0.030 C 
ENDBRANCH  10  13
ENDBRANCH   1  10
TORSDOF 4
ENDMDL
MODEL 3
REMARK VINA RESULT:      -7.9      7.823     10.402
REMARK  Name = 11660398
REMARK  4 active torsions:
REMARK  status: ('A' for Active; 'I' for Inactive)
REMARK    1  A    between atoms: N_1  and  C_10
REMARK    2  A    between atoms: C_3  and  C_7
REMARK    3  A    between atoms: C_7  and  O_8
REMARK    4  A    between atoms: C_10  and  C_13
REMARK                            x       y       z     vdW  Elec       q    Type
REMARK                         _______ _______ _______ _____ _____    ______ ____
ROOT
ATOM      1  N   UNL     1      35.280 -18.421 -23.070  0.00  0.00    -0.261 N 
ATOM      2  N   UNL     1      34.445 -18.990 -25.003  0.00  0.00    -0.224 NA
ATOM      3  C   UNL     1      34.669 -17.307 -23.503  0.00  0.00    +0.149 C 
ATOM      4  C   UNL     1      35.139 -19.409 -23.969  0.00  0.00    +0.168 C 
ATOM      5  C   UNL     1      34.149 -17.681 -24.719  0.00  0.00    +0.122 C 
ENDROOT
BRANCH   3   7
ATOM      6  O   UNL     1      35.043 -14.960 -23.254  0.00  0.00    -0.243 OA
ATOM      7  C   UNL     1      34.593 -16.047 -22.836  0.00  0.00    +0.357 C 
BRANCH   7   8
ATOM      8  O   UNL     1      33.941 -16.137 -21.621  0.00  0.00    -0.440 OA
ATOM      9  C   UNL     1      34.398 -15.282 -20.566  0.00  0.00    +0.256 C 
ENDBRANCH   7   8
ENDBRANCH   3   7
BRANCH   1  10
ATOM     10  C   UNL     1      36.012 -18.559 -21.785  0.00  0.00    +0.101 C 
ATOM     11  C   UNL     1      37.534 -18.662 -22.042  0.00  0.00    +0.027 C 
BRANCH  10  13
ATOM     12  I   UNL     1      33.405 -23.013 -18.069  0.00  0.00    -0.043 I 
ATOM     13  C   UNL     1      35.400 -19.605 -20.915  0.00  0.00    -0.004 C 
ATOM     14  C   UNL     1      36.216 -20.495 -20.217  0.00  0.00    -0.002 C 
ATOM     15  C   UNL     1      34.012 -19.690 -20.797  0.00  0.00    -0.002 C 
ATOM     16  C   UNL     1      35.644 -21.473 -19.403  0.00  0.00    +0.006 C 
ATOM     17  C   UNL     1      33.441 -20.668 -19.983  0.00  0.00    +0.006 C 
ATOM     18  C   UNL     1      34.256 -21.559 -19.285  0.00  0.00    +0.030 C 
ENDBRANCH  10  13
ENDBRANCH   1  10
TORSDOF 4
ENDMDL
MODEL 4
REMARK VINA RESULT:      -7.8      2.863      3.830
REMARK  Name = 11660398
REMARK  4 active torsions:
REMARK  status: ('A' for Active; 'I' for Inactive)
REMARK    1  A    between atoms: N_1  and  C_10
REMARK    2  A    between atoms: C_3  and  C_7
REMARK    3  A    between atoms: C_7  and  O_8
REMARK    4  A    between atoms: C_10  and  C_13
REMARK                            x       y       z     vdW  Elec       q    Type
REMARK                         _______ _______ _______ _____ _____    ______ ____
ROOT
ATOM      1  N   UNL     1      37.069 -24.132 -14.032  0.00  0.00    -0.261 N 
ATOM      2  N   UNL     1      37.442 -23.976 -11.888  0.00  0.00    -0.224 NA
ATOM      3  C   UNL     1      37.684 -25.284 -13.723  0.00  0.00    +0.149 C 
ATOM      4  C   UNL     1      36.933 -23.368 -12.935  0.00  0.00    +0.168 C 
ATOM      5  C   UNL     1      37.912 -25.171 -12.372  0.00  0.00    +0.122 C 
ENDROOT
BRANCH   3   7
ATOM      6  O   UNL     1      37.210 -27.018 -15.297  0.00  0.00    -0.243 OA
ATOM      7  C   UNL     1      38.012 -26.355 -14.608  0.00  0.00    +0.357 C 
BRANCH   7   8
ATOM      8  O   UNL     1      39.370 -26.608 -14.642  0.00  0.00    -0.440 OA
ATOM      9  C   UNL     1      40.226 -25.545 -15.078  0.00  0.00    +0.256 C 
ENDBRANCH   7   8
ENDBRANCH   3   7
BRANCH   1  10
ATOM     10  C   UNL     1      36.601 -23.740 -15.386  0.00  0.00    +0.101 C 
ATOM     11  C   UNL     1      37.375 -22.497 -15.884  0.00  0.00    +0.027 C 
BRANCH  10  13
ATOM     12  I   UNL     1      30.253 -23.489 -15.676  0.00  0.00    -0.043 I 
ATOM     13  C   UNL     1      35.112 -23.683 -15.456  0.00  0.00    -0.004 C 
ATOM     14  C   UNL     1      34.346 -24.153 -14.389  0.00  0.00    -0.002 C 
ATOM     15  C   UNL     1      34.485 -23.157 -16.586  0.00  0.00    -0.002 C 
ATOM     16  C   UNL     1      32.954 -24.099 -14.453  0.00  0.00    +0.006 C 
ATOM     17  C   UNL     1      33.093 -23.103 -16.650  0.00  0.00    +0.006 C 
ATOM     18  C   UNL     1      32.327 -23.573 -15.583  0.00  0.00    +0.030 C 
ENDBRANCH  10  13
ENDBRANCH   1  10
TORSDOF 4
ENDMDL
MODEL 5
REMARK VINA RESULT:      -7.1      9.477     12.030
REMARK  Name = 11660398
REMARK  4 active torsions:
REMARK  status: ('A' for Active; 'I' for Inactive)
REMARK    1  A    between atoms: N_1  and  C_10
REMARK    2  A    between atoms: C_3  and  C_7
REMARK    3  A    between atoms: C_7  and  O_8
REMARK    4  A    between atoms: C_10  and  C_13
REMARK                            x       y       z     vdW  Elec       q    Type
REMARK                         _______ _______ _______ _____ _____    ______ ____
ROOT
ATOM      1  N   UNL     1      34.148 -16.559 -23.347  0.00  0.00    -0.261 N 
ATOM      2  N   UNL     1      34.653 -17.294 -25.338  0.00  0.00    -0.224 NA
ATOM      3  C   UNL     1      33.797 -15.555 -24.165  0.00  0.00    +0.149 C 
ATOM      4  C   UNL     1      34.654 -17.582 -24.056  0.00  0.00    +0.168 C 
ATOM      5  C   UNL     1      34.120 -16.032 -25.413  0.00  0.00    +0.122 C 
ENDROOT
BRANCH   3   7
ATOM      6  O   UNL     1      32.156 -14.125 -23.178  0.00  0.00    -0.243 OA
ATOM      7  C   UNL     1      33.225 -14.299 -23.798  0.00  0.00    +0.357 C 
BRANCH   7   8
ATOM      8  O   UNL     1      34.000 -13.232 -24.209  0.00  0.00    -0.440 OA
ATOM      9  C   UNL     1      33.521 -11.917 -23.907  0.00  0.00    +0.256 C 
ENDBRANCH   7   8
ENDBRANCH   3   7
BRANCH   1  10
ATOM     10  C   UNL     1      34.007 -16.557 -21.868  0.00  0.00    +0.101 C 
ATOM     11  C   UNL     1      34.921 -15.477 -21.243  0.00  0.00    +0.027 C 
BRANCH  10  13
ATOM     12  I   UNL     1      34.427 -22.430 -19.465  0.00  0.00    -0.043 I 
ATOM     13  C   UNL     1      34.105 -17.935 -21.306  0.00  0.00    -0.004 C 
ATOM     14  C   UNL     1      35.356 -18.514 -21.095  0.00  0.00    -0.002 C 
ATOM     15  C   UNL     1      32.945 -18.644 -20.989  0.00  0.00    -0.002 C 
ATOM     16  C   UNL     1      35.448 -19.803 -20.569  0.00  0.00    +0.006 C 
ATOM     17  C   UNL     1      33.037 -19.932 -20.463  0.00  0.00    +0.006 C 
ATOM     18  C   UNL     1      34.289 -20.512 -20.252  0.00  0.00    +0.030 C 
ENDBRANCH  10  13
ENDBRANCH   1  10
TORSDOF 4
ENDMDL
MODEL 6
REMARK VINA RESULT:      -7.1     12.153     14.756
REMARK  Name = 11660398
REMARK  4 active torsions:
REMARK  status: ('A' for Active; 'I' for Inactive)
REMARK    1  A    between atoms: N_1  and  C_10
REMARK    2  A    between atoms: C_3  and  C_7
REMARK    3  A    between atoms: C_7  and  O_8
REMARK    4  A    between atoms: C_10  and  C_13
REMARK                            x       y       z     vdW  Elec       q    Type
REMARK                         _______ _______ _______ _____ _____    ______ ____
ROOT
ATOM      1  N   UNL     1      33.089 -12.981 -23.687  0.00  0.00    -0.261 N 
ATOM      2  N   UNL     1      31.787 -12.165 -22.139  0.00  0.00    -0.224 NA
ATOM      3  C   UNL     1      33.329 -11.661 -23.721  0.00  0.00    +0.149 C 
ATOM      4  C   UNL     1      32.174 -13.264 -22.746  0.00  0.00    +0.168 C 
ATOM      5  C   UNL     1      32.503 -11.162 -22.743  0.00  0.00    +0.122 C 
ENDROOT
BRANCH   3   7
ATOM      6  O   UNL     1      34.361 -11.133 -25.811  0.00  0.00    -0.243 OA
ATOM      7  C   UNL     1      34.234 -10.967 -24.581  0.00  0.00    +0.357 C 
BRANCH   7   8
ATOM      8  O   UNL     1      34.999 -10.043 -23.896  0.00  0.00    -0.440 OA
ATOM      9  C   UNL     1      34.780  -8.659 -24.194  0.00  0.00    +0.256 C 
ENDBRANCH   7   8
ENDBRANCH   3   7
BRANCH   1  10
ATOM     10  C   UNL     1      33.734 -13.998 -24.559  0.00  0.00    +0.101 C 
ATOM     11  C   UNL     1      32.851 -14.280 -25.798  0.00  0.00    +0.027 C 
BRANCH  10  13
ATOM     12  I   UNL     1      35.697 -19.033 -21.208  0.00  0.00    -0.043 I 
ATOM     13  C   UNL     1      34.196 -15.178 -23.774  0.00  0.00    -0.004 C 
ATOM     14  C   UNL     1      34.416 -15.060 -22.402  0.00  0.00    -0.002 C 
ATOM     15  C   UNL     1      34.406 -16.402 -24.411  0.00  0.00    -0.002 C 
ATOM     16  C   UNL     1      34.848 -16.164 -21.667  0.00  0.00    +0.006 C 
ATOM     17  C   UNL     1      34.838 -17.506 -23.676  0.00  0.00    +0.006 C 
ATOM     18  C   UNL     1      35.058 -17.387 -22.304  0.00  0.00    +0.030 C 
ENDBRANCH  10  13
ENDBRANCH   1  10
TORSDOF 4
ENDMDL
MODEL 7
REMARK VINA RESULT:      -7.0      6.810      8.984
REMARK  Name = 11660398
REMARK  4 active torsions:
REMARK  status: ('A' for Active; 'I' for Inactive)
REMARK    1  A    between atoms: N_1  and  C_10
REMARK    2  A    between atoms: C_3  and  C_7
REMARK    3  A    between atoms: C_7  and  O_8
REMARK    4  A    between atoms: C_10  and  C_13
REMARK                            x       y       z     vdW  Elec       q    Type
REMARK                         _______ _______ _______ _____ _____    ______ ____
ROOT
ATOM      1  N   UNL     1      34.559 -19.820 -21.129  0.00  0.00    -0.261 N 
ATOM      2  N   UNL     1      32.561 -20.193 -20.337  0.00  0.00    -0.224 NA
ATOM      3  C   UNL     1      34.751 -20.758 -20.189  0.00  0.00    +0.149 C 
ATOM      4  C   UNL     1      33.258 -19.495 -21.205  0.00  0.00    +0.168 C 
ATOM      5  C   UNL     1      33.486 -20.982 -19.701  0.00  0.00    +0.122 C 
ENDROOT
BRANCH   3   7
ATOM      6  O   UNL     1      36.641 -22.193 -20.472  0.00  0.00    -0.243 OA
ATOM      7  C   UNL     1      35.987 -21.363 -19.809  0.00  0.00    +0.357 C 
BRANCH   7   8
ATOM      8  O   UNL     1      36.424 -20.925 -18.573  0.00  0.00    -0.440 OA
ATOM      9  C   UNL     1      36.564 -21.907 -17.540  0.00  0.00    +0.256 C 
ENDBRANCH   7   8
ENDBRANCH   3   7
BRANCH   1  10
ATOM     10  C   UNL     1      35.622 -19.215 -21.973  0.00  0.00    +0.101 C 
ATOM     11  C   UNL     1      36.817 -18.773 -21.097  0.00  0.00    +0.027 C 
BRANCH  10  13
ATOM     12  I   UNL     1      33.248 -14.899 -25.995  0.00  0.00    -0.043 I 
ATOM     13  C   UNL     1      35.063 -18.203 -22.916  0.00  0.00    -0.004 C 
ATOM     14  C   UNL     1      34.863 -16.890 -22.491  0.00  0.00    -0.002 C 
ATOM     15  C   UNL     1      34.744 -18.570 -24.224  0.00  0.00    -0.002 C 
ATOM     16  C   UNL     1      34.341 -15.944 -23.373  0.00  0.00    +0.006 C 
ATOM     17  C   UNL     1      34.222 -17.624 -25.106  0.00  0.00    +0.006 C 
ATOM     18  C   UNL     1      34.022 -16.310 -24.681  0.00  0.00    +0.030 C 
ENDBRANCH  10  13
ENDBRANCH   1  10
TORSDOF 4
ENDMDL
MODEL 8
REMARK VINA RESULT:      -7.0      8.539     11.300
REMARK  Name = 11660398
REMARK  4 active torsions:
REMARK  status: ('A' for Active; 'I' for Inactive)
REMARK    1  A    between atoms: N_1  and  C_10
REMARK    2  A    between atoms: C_3  and  C_7
REMARK    3  A    between atoms: C_7  and  O_8
REMARK    4  A    between atoms: C_10  and  C_13
REMARK                            x       y       z     vdW  Elec       q    Type
REMARK                         _______ _______ _______ _____ _____    ______ ____
ROOT
ATOM      1  N   UNL     1      34.837 -17.130 -22.065  0.00  0.00    -0.261 N 
ATOM      2  N   UNL     1      34.746 -15.487 -20.632  0.00  0.00    -0.224 NA
ATOM      3  C   UNL     1      34.624 -16.044 -22.825  0.00  0.00    +0.149 C 
ATOM      4  C   UNL     1      34.906 -16.784 -20.769  0.00  0.00    +0.168 C 
ATOM      5  C   UNL     1      34.569 -15.020 -21.910  0.00  0.00    +0.122 C 
ENDROOT
BRANCH   3   7
ATOM      6  O   UNL     1      35.322 -16.403 -25.082  0.00  0.00    -0.243 OA
ATOM      7  C   UNL     1      34.491 -15.995 -24.246  0.00  0.00    +0.357 C 
BRANCH   7   8
ATOM      8  O   UNL     1      33.294 -15.427 -24.639  0.00  0.00    -0.440 OA
ATOM      9  C   UNL     1      33.124 -15.153 -26.034  0.00  0.00    +0.256 C 
ENDBRANCH   7   8
ENDBRANCH   3   7
BRANCH   1  10
ATOM     10  C   UNL     1      34.977 -18.521 -22.567  0.00  0.00    +0.101 C 
ATOM     11  C   UNL     1      34.226 -18.685 -23.909  0.00  0.00    +0.027 C 
BRANCH  10  13
ATOM     12  I   UNL     1      33.721 -22.790 -18.024  0.00  0.00    -0.043 I 
ATOM     13  C   UNL     1      34.683 -19.521 -21.500  0.00  0.00    -0.004 C 
ATOM     14  C   UNL     1      33.363 -19.778 -21.130  0.00  0.00    -0.002 C 
ATOM     15  C   UNL     1      35.728 -20.201 -20.874  0.00  0.00    -0.002 C 
ATOM     16  C   UNL     1      33.087 -20.713 -20.133  0.00  0.00    +0.006 C 
ATOM     17  C   UNL     1      35.452 -21.137 -19.877  0.00  0.00    +0.006 C 
ATOM     18  C   UNL     1      34.132 -21.394 -19.507  0.00  0.00    +0.030 C 
ENDBRANCH  10  13
ENDBRANCH   1  10
TORSDOF 4
ENDMDL
MODEL 9
REMARK VINA RESULT:      -6.9     12.013     14.337
REMARK  Name = 11660398
REMARK  4 active torsions:
REMARK  status: ('A' for Active; 'I' for Inactive)
REMARK    1  A    between atoms: N_1  and  C_10
REMARK    2  A    between atoms: C_3  and  C_7
REMARK    3  A    between atoms: C_7  and  O_8
REMARK    4  A    between atoms: C_10  and  C_13
REMARK                            x       y       z     vdW  Elec       q    Type
REMARK                         _______ _______ _______ _____ _____    ______ ____
ROOT
ATOM      1  N   UNL     1      33.311 -14.628 -24.207  0.00  0.00    -0.261 N 
ATOM      2  N   UNL     1      32.818 -14.950 -26.307  0.00  0.00    -0.224 NA
ATOM      3  C   UNL     1      33.957 -15.761 -24.524  0.00  0.00    +0.149 C 
ATOM      4  C   UNL     1      32.641 -14.160 -25.272  0.00  0.00    +0.168 C 
ATOM      5  C   UNL     1      33.638 -15.950 -25.847  0.00  0.00    +0.122 C 
ENDROOT
BRANCH   3   7
ATOM      6  O   UNL     1      35.617 -16.142 -22.848  0.00  0.00    -0.243 OA
ATOM      7  C   UNL     1      34.776 -16.559 -23.669  0.00  0.00    +0.357 C 
BRANCH   7   8
ATOM      8  O   UNL     1      34.543 -17.911 -23.837  0.00  0.00    -0.440 OA
ATOM      9  C   UNL     1      34.901 -18.779 -22.755  0.00  0.00    +0.256 C 
ENDBRANCH   7   8
ENDBRANCH   3   7
BRANCH   1  10
ATOM     10  C   UNL     1      33.324 -13.973 -22.873  0.00  0.00    +0.101 C 
ATOM     11  C   UNL     1      32.533 -14.822 -21.850  0.00  0.00    +0.027 C 
BRANCH  10  13
ATOM     12  I   UNL     1      31.813  -7.810 -23.294  0.00  0.00    -0.043 I 
ATOM     13  C   UNL     1      32.970 -12.527 -22.970  0.00  0.00    -0.004 C 
ATOM     14  C   UNL     1      33.704 -11.685 -23.805  0.00  0.00    -0.002 C 
ATOM     15  C   UNL     1      31.904 -12.018 -22.228  0.00  0.00    -0.002 C 
ATOM     16  C   UNL     1      33.373 -10.333 -23.896  0.00  0.00    +0.006 C 
ATOM     17  C   UNL     1      31.573 -10.666 -22.320  0.00  0.00    +0.006 C 
ATOM     18  C   UNL     1      32.307  -9.824 -23.154  0.00  0.00    +0.030 C 
ENDBRANCH  10  13
ENDBRANCH   1  10
TORSDOF 4
ENDMDL
