MODEL 1
REMARK VINA RESULT:      -9.6      0.000      0.000
REMARK  Name = 6914647
REMARK  12 active torsions:
REMARK  status: ('A' for Active; 'I' for Inactive)
REMARK    1  A    between atoms: N_2  and  C_5
REMARK    2  A    between atoms: C_3  and  C_20
REMARK    3  A    between atoms: C_5  and  C_9
REMARK    4  A    between atoms: N_8  and  C_11
REMARK    5  A    between atoms: C_11  and  C_13
REMARK    6  A    between atoms: C_11  and  C_16
REMARK    7  A    between atoms: C_13  and  O_14
REMARK    8  A    between atoms: C_16  and  C_17
REMARK    9  A    between atoms: C_20  and  O_21
REMARK   10  A    between atoms: C_20  and  C_23
REMARK   11  A    between atoms: C_23  and  C_24
REMARK   12  A    between atoms: C_23  and  N_31
REMARK                            x       y       z     vdW  Elec       q    Type
REMARK                         _______ _______ _______ _____ _____    ______ ____
ROOT
ATOM      1  O   UNL     1      34.952 -17.095 -25.777  0.00  0.00    -0.273 OA
ATOM      2  N   UNL     1      33.949 -15.988 -23.999  0.00  0.00    -0.296 N 
ATOM      3  C   UNL     1      34.462 -17.103 -24.649  0.00  0.00    +0.248 C 
ATOM      4  H   UNL     1      33.577 -16.100 -23.095  0.00  0.00    +0.150 HD
ENDROOT
BRANCH   2   5
ATOM      5  C   UNL     1      33.939 -14.676 -24.589  0.00  0.00    +0.149 C 
ATOM      6  C   UNL     1      32.764 -14.505 -25.538  0.00  0.00    +0.031 C 
BRANCH   5   9
ATOM      7  O   UNL     1      34.434 -13.819 -22.377  0.00  0.00    -0.273 OA
ATOM      8  N   UNL     1      33.105 -12.548 -23.793  0.00  0.00    -0.295 N 
ATOM      9  C   UNL     1      33.881 -13.653 -23.462  0.00  0.00    +0.241 C 
ATOM     10  H   UNL     1      32.704 -12.506 -24.691  0.00  0.00    +0.150 HD
BRANCH   8  11
ATOM     11  C   UNL     1      32.862 -11.463 -22.878  0.00  0.00    +0.171 C 
BRANCH  11  13
ATOM     12  O   UNL     1      34.385  -9.960 -24.042  0.00  0.00    -0.248 OA
ATOM     13  C   UNL     1      33.265 -10.194 -23.604  0.00  0.00    +0.335 C 
BRANCH  13  14
ATOM     14  O   UNL     1      32.198  -9.341 -23.645  0.00  0.00    -0.443 OA
ATOM     15  C   UNL     1      32.473  -7.992 -23.251  0.00  0.00    +0.256 C 
ENDBRANCH  13  14
ENDBRANCH  11  13
BRANCH  11  16
ATOM     16  C   UNL     1      31.396 -11.376 -22.445  0.00  0.00    +0.031 C 
BRANCH  16  17
ATOM     17  C   UNL     1      31.170 -11.430 -20.921  0.00  0.00    +0.002 C 
ATOM     18  C   UNL     1      31.965 -12.594 -20.321  0.00  0.00    +0.000 C 
ATOM     19  C   UNL     1      31.566 -10.125 -20.227  0.00  0.00    +0.000 C 
ENDBRANCH  16  17
ENDBRANCH  11  16
ENDBRANCH   8  11
ENDBRANCH   5   9
ENDBRANCH   2   5
BRANCH   3  20
ATOM     20  C   UNL     1      34.375 -18.373 -23.804  0.00  0.00    +0.170 C 
BRANCH  20  21
ATOM     21  O   UNL     1      34.890 -19.461 -24.558  0.00  0.00    -0.377 OA
ATOM     22  H   UNL     1      34.168 -19.882 -25.050  0.00  0.00    +0.211 HD
ENDBRANCH  20  21
BRANCH  20  23
ATOM     23  C   UNL     1      35.074 -18.239 -22.430  0.00  0.00    -0.006 C 
BRANCH  23  24
ATOM     24  C   UNL     1      34.686 -19.322 -21.436  0.00  0.00    -0.040 C 
ATOM     25  C   UNL     1      33.351 -19.512 -21.144  0.00  0.00    -0.007 C 
ATOM     26  C   UNL     1      35.680 -20.082 -20.855  0.00  0.00    -0.007 C 
ATOM     27  C   UNL     1      33.980 -21.288 -19.632  0.00  0.00    -0.022 C 
ATOM     28  C   UNL     1      32.993 -20.506 -20.232  0.00  0.00    -0.005 C 
ATOM     29  C   UNL     1      35.323 -21.076 -19.943  0.00  0.00    -0.005 C 
ATOM     30  C   UNL     1      33.599 -22.350 -18.657  0.00  0.00    +0.031 C 
ENDBRANCH  23  24
BRANCH  23  31
ATOM     31  N   UNL     1      36.531 -18.164 -22.619  0.00  0.00    +0.386 N 
ATOM     32  H   UNL     1      36.760 -18.374 -23.590  0.00  0.00    -0.089 HD
ATOM     33  H   UNL     1      36.988 -18.840 -22.008  0.00  0.00    -0.089 HD
ATOM     34  H   UNL     1      36.855 -17.224 -22.389  0.00  0.00    -0.089 HD
ENDBRANCH  23  31
ENDBRANCH  20  23
ENDBRANCH   3  20
TORSDOF 12
ENDMDL
MODEL 2
REMARK VINA RESULT:      -9.3      2.641      9.622
REMARK  Name = 6914647
REMARK  12 active torsions:
REMARK  status: ('A' for Active; 'I' for Inactive)
REMARK    1  A    between atoms: N_2  and  C_5
REMARK    2  A    between atoms: C_3  and  C_20
REMARK    3  A    between atoms: C_5  and  C_9
REMARK    4  A    between atoms: N_8  and  C_11
REMARK    5  A    between atoms: C_11  and  C_13
REMARK    6  A    between atoms: C_11  and  C_16
REMARK    7  A    between atoms: C_13  and  O_14
REMARK    8  A    between atoms: C_16  and  C_17
REMARK    9  A    between atoms: C_20  and  O_21
REMARK   10  A    between atoms: C_20  and  C_23
REMARK   11  A    between atoms: C_23  and  C_24
REMARK   12  A    between atoms: C_23  and  N_31
REMARK                            x       y       z     vdW  Elec       q    Type
REMARK                         _______ _______ _______ _____ _____    ______ ____
ROOT
ATOM      1  O   UNL     1      30.682  -9.971 -22.894  0.00  0.00    -0.273 OA
ATOM      2  N   UNL     1      32.825 -10.807 -22.579  0.00  0.00    -0.296 N 
ATOM      3  C   UNL     1      31.725 -10.027 -22.246  0.00  0.00    +0.248 C 
ATOM      4  H   UNL     1      33.614 -10.781 -21.992  0.00  0.00    +0.150 HD
ENDROOT
BRANCH   2   5
ATOM      5  C   UNL     1      32.860 -11.651 -23.743  0.00  0.00    +0.149 C 
ATOM      6  C   UNL     1      34.093 -11.375 -24.590  0.00  0.00    +0.031 C 
BRANCH   5   9
ATOM      7  O   UNL     1      32.260 -13.465 -22.252  0.00  0.00    -0.273 OA
ATOM      8  N   UNL     1      33.565 -13.936 -24.113  0.00  0.00    -0.295 N 
ATOM      9  C   UNL     1      32.835 -13.100 -23.276  0.00  0.00    +0.241 C 
ATOM     10  H   UNL     1      33.989 -13.549 -24.912  0.00  0.00    +0.150 HD
BRANCH   8  11
ATOM     11  C   UNL     1      33.727 -15.344 -23.860  0.00  0.00    +0.171 C 
BRANCH  11  13
ATOM     12  O   UNL     1      33.585 -15.645 -26.272  0.00  0.00    -0.248 OA
ATOM     13  C   UNL     1      34.059 -15.982 -25.195  0.00  0.00    +0.335 C 
BRANCH  13  14
ATOM     14  O   UNL     1      34.929 -17.018 -24.994  0.00  0.00    -0.443 OA
ATOM     15  C   UNL     1      34.368 -18.329 -25.131  0.00  0.00    +0.256 C 
ENDBRANCH  13  14
ENDBRANCH  11  13
BRANCH  11  16
ATOM     16  C   UNL     1      34.839 -15.635 -22.848  0.00  0.00    +0.031 C 
BRANCH  16  17
ATOM     17  C   UNL     1      34.368 -16.327 -21.553  0.00  0.00    +0.002 C 
ATOM     18  C   UNL     1      35.213 -17.580 -21.300  0.00  0.00    +0.000 C 
ATOM     19  C   UNL     1      34.443 -15.402 -20.337  0.00  0.00    +0.000 C 
ENDBRANCH  16  17
ENDBRANCH  11  16
ENDBRANCH   8  11
ENDBRANCH   5   9
ENDBRANCH   2   5
BRANCH   3  20
ATOM     20  C   UNL     1      31.927  -9.238 -20.953  0.00  0.00    +0.170 C 
BRANCH  20  21
ATOM     21  O   UNL     1      32.079 -10.152 -19.877  0.00  0.00    -0.377 OA
ATOM     22  H   UNL     1      31.204 -10.402 -19.541  0.00  0.00    +0.211 HD
ENDBRANCH  20  21
BRANCH  20  23
ATOM     23  C   UNL     1      33.103  -8.235 -21.030  0.00  0.00    -0.006 C 
BRANCH  23  24
ATOM     24  C   UNL     1      33.177  -7.475 -22.345  0.00  0.00    -0.040 C 
ATOM     25  C   UNL     1      32.127  -6.653 -22.701  0.00  0.00    -0.007 C 
ATOM     26  C   UNL     1      34.291  -7.631 -23.144  0.00  0.00    -0.007 C 
ATOM     27  C   UNL     1      33.310  -6.096 -24.733  0.00  0.00    -0.022 C 
ATOM     28  C   UNL     1      32.194  -5.956 -23.908  0.00  0.00    -0.005 C 
ATOM     29  C   UNL     1      34.358  -6.934 -24.351  0.00  0.00    -0.005 C 
ATOM     30  C   UNL     1      33.382  -5.352 -26.022  0.00  0.00    +0.031 C 
ENDBRANCH  23  24
BRANCH  23  31
ATOM     31  N   UNL     1      33.057  -7.327 -19.874  0.00  0.00    +0.386 N 
ATOM     32  H   UNL     1      32.211  -6.760 -19.920  0.00  0.00    -0.089 HD
ATOM     33  H   UNL     1      33.875  -6.718 -19.888  0.00  0.00    -0.089 HD
ATOM     34  H   UNL     1      33.054  -7.873 -19.013  0.00  0.00    -0.089 HD
ENDBRANCH  23  31
ENDBRANCH  20  23
ENDBRANCH   3  20
TORSDOF 12
ENDMDL
MODEL 3
REMARK VINA RESULT:      -9.0      2.322      3.567
REMARK  Name = 6914647
REMARK  12 active torsions:
REMARK  status: ('A' for Active; 'I' for Inactive)
REMARK    1  A    between atoms: N_2  and  C_5
REMARK    2  A    between atoms: C_3  and  C_20
REMARK    3  A    between atoms: C_5  and  C_9
REMARK    4  A    between atoms: N_8  and  C_11
REMARK    5  A    between atoms: C_11  and  C_13
REMARK    6  A    between atoms: C_11  and  C_16
REMARK    7  A    between atoms: C_13  and  O_14
REMARK    8  A    between atoms: C_16  and  C_17
REMARK    9  A    between atoms: C_20  and  O_21
REMARK   10  A    between atoms: C_20  and  C_23
REMARK   11  A    between atoms: C_23  and  C_24
REMARK   12  A    between atoms: C_23  and  N_31
REMARK                            x       y       z     vdW  Elec       q    Type
REMARK                         _______ _______ _______ _____ _____    ______ ____
ROOT
ATOM      1  O   UNL     1      32.314 -15.594 -21.489  0.00  0.00    -0.273 OA
ATOM      2  N   UNL     1      33.426 -13.592 -21.871  0.00  0.00    -0.296 N 
ATOM      3  C   UNL     1      33.354 -14.941 -21.551  0.00  0.00    +0.248 C 
ATOM      4  H   UNL     1      34.310 -13.161 -21.894  0.00  0.00    +0.150 HD
ENDROOT
BRANCH   2   5
ATOM      5  C   UNL     1      32.264 -12.798 -22.171  0.00  0.00    +0.149 C 
ATOM      6  C   UNL     1      31.617 -12.264 -20.903  0.00  0.00    +0.031 C 
BRANCH   5   9
ATOM      7  O   UNL     1      33.389 -11.824 -24.084  0.00  0.00    -0.273 OA
ATOM      8  N   UNL     1      32.253 -10.421 -22.626  0.00  0.00    -0.295 N 
ATOM      9  C   UNL     1      32.696 -11.657 -23.082  0.00  0.00    +0.241 C 
ATOM     10  H   UNL     1      31.700 -10.390 -21.812  0.00  0.00    +0.150 HD
BRANCH   8  11
ATOM     11  C   UNL     1      32.568  -9.184 -23.292  0.00  0.00    +0.171 C 
BRANCH  11  13
ATOM     12  O   UNL     1      30.440  -8.162 -23.892  0.00  0.00    -0.248 OA
ATOM     13  C   UNL     1      31.368  -8.277 -23.100  0.00  0.00    +0.335 C 
BRANCH  13  14
ATOM     14  O   UNL     1      31.513  -7.579 -21.934  0.00  0.00    -0.443 OA
ATOM     15  C   UNL     1      31.196  -6.185 -22.007  0.00  0.00    +0.256 C 
ENDBRANCH  13  14
ENDBRANCH  11  13
BRANCH  11  16
ATOM     16  C   UNL     1      33.826  -8.516 -22.728  0.00  0.00    +0.031 C 
BRANCH  16  17
ATOM     17  C   UNL     1      34.855  -8.079 -23.790  0.00  0.00    +0.002 C 
ATOM     18  C   UNL     1      35.120  -9.236 -24.759  0.00  0.00    +0.000 C 
ATOM     19  C   UNL     1      34.397  -6.847 -24.573  0.00  0.00    +0.000 C 
ENDBRANCH  16  17
ENDBRANCH  11  16
ENDBRANCH   8  11
ENDBRANCH   5   9
ENDBRANCH   2   5
BRANCH   3  20
ATOM     20  C   UNL     1      34.726 -15.564 -21.296  0.00  0.00    +0.170 C 
BRANCH  20  21
ATOM     21  O   UNL     1      34.819 -15.923 -19.925  0.00  0.00    -0.377 OA
ATOM     22  H   UNL     1      33.965 -15.767 -19.493  0.00  0.00    +0.211 HD
ENDBRANCH  20  21
BRANCH  20  23
ATOM     23  C   UNL     1      35.036 -16.758 -22.230  0.00  0.00    -0.006 C 
BRANCH  23  24
ATOM     24  C   UNL     1      35.012 -18.107 -21.530  0.00  0.00    -0.040 C 
ATOM     25  C   UNL     1      33.795 -18.710 -21.286  0.00  0.00    -0.007 C 
ATOM     26  C   UNL     1      36.207 -18.688 -21.158  0.00  0.00    -0.007 C 
ATOM     27  C   UNL     1      34.966 -20.557 -20.258  0.00  0.00    -0.022 C 
ATOM     28  C   UNL     1      33.771 -19.949 -20.643  0.00  0.00    -0.005 C 
ATOM     29  C   UNL     1      36.184 -19.927 -20.515  0.00  0.00    -0.005 C 
ATOM     30  C   UNL     1      34.942 -21.880 -19.571  0.00  0.00    +0.031 C 
ENDBRANCH  23  24
BRANCH  23  31
ATOM     31  N   UNL     1      34.136 -16.727 -23.392  0.00  0.00    +0.386 N 
ATOM     32  H   UNL     1      33.388 -16.054 -23.226  0.00  0.00    -0.089 HD
ATOM     33  H   UNL     1      33.735 -17.653 -23.536  0.00  0.00    -0.089 HD
ATOM     34  H   UNL     1      34.662 -16.452 -24.222  0.00  0.00    -0.089 HD
ENDBRANCH  23  31
ENDBRANCH  20  23
ENDBRANCH   3  20
TORSDOF 12
ENDMDL
MODEL 4
REMARK VINA RESULT:      -9.0      2.963      5.164
REMARK  Name = 6914647
REMARK  12 active torsions:
REMARK  status: ('A' for Active; 'I' for Inactive)
REMARK    1  A    between atoms: N_2  and  C_5
REMARK    2  A    between atoms: C_3  and  C_20
REMARK    3  A    between atoms: C_5  and  C_9
REMARK    4  A    between atoms: N_8  and  C_11
REMARK    5  A    between atoms: C_11  and  C_13
REMARK    6  A    between atoms: C_11  and  C_16
REMARK    7  A    between atoms: C_13  and  O_14
REMARK    8  A    between atoms: C_16  and  C_17
REMARK    9  A    between atoms: C_20  and  O_21
REMARK   10  A    between atoms: C_20  and  C_23
REMARK   11  A    between atoms: C_23  and  C_24
REMARK   12  A    between atoms: C_23  and  N_31
REMARK                            x       y       z     vdW  Elec       q    Type
REMARK                         _______ _______ _______ _____ _____    ______ ____
ROOT
ATOM      1  O   UNL     1      36.050 -20.750 -20.125  0.00  0.00    -0.273 OA
ATOM      2  N   UNL     1      34.347 -19.737 -21.335  0.00  0.00    -0.296 N 
ATOM      3  C   UNL     1      34.854 -20.566 -20.343  0.00  0.00    +0.248 C 
ATOM      4  H   UNL     1      33.370 -19.658 -21.428  0.00  0.00    +0.150 HD
ENDROOT
BRANCH   2   5
ATOM      5  C   UNL     1      35.186 -18.986 -22.230  0.00  0.00    +0.149 C 
ATOM      6  C   UNL     1      34.645 -19.016 -23.651  0.00  0.00    +0.031 C 
BRANCH   5   9
ATOM      7  O   UNL     1      35.555 -17.282 -20.547  0.00  0.00    -0.273 OA
ATOM      8  N   UNL     1      34.950 -16.622 -22.688  0.00  0.00    -0.295 N 
ATOM      9  C   UNL     1      35.270 -17.557 -21.711  0.00  0.00    +0.241 C 
ATOM     10  H   UNL     1      34.737 -16.941 -23.594  0.00  0.00    +0.150 HD
BRANCH   8  11
ATOM     11  C   UNL     1      34.917 -15.206 -22.431  0.00  0.00    +0.171 C 
BRANCH  11  13
ATOM     12  O   UNL     1      34.044 -13.375 -23.780  0.00  0.00    -0.248 OA
ATOM     13  C   UNL     1      34.163 -14.579 -23.588  0.00  0.00    +0.335 C 
BRANCH  13  14
ATOM     14  O   UNL     1      33.599 -15.568 -24.346  0.00  0.00    -0.443 OA
ATOM     15  C   UNL     1      33.408 -15.251 -25.729  0.00  0.00    +0.256 C 
ENDBRANCH  13  14
ENDBRANCH  11  13
BRANCH  11  16
ATOM     16  C   UNL     1      34.226 -14.864 -21.108  0.00  0.00    +0.031 C 
BRANCH  16  17
ATOM     17  C   UNL     1      32.692 -14.735 -21.196  0.00  0.00    +0.002 C 
ATOM     18  C   UNL     1      32.032 -15.932 -20.504  0.00  0.00    +0.000 C 
ATOM     19  C   UNL     1      32.181 -13.435 -20.573  0.00  0.00    +0.000 C 
ENDBRANCH  16  17
ENDBRANCH  11  16
ENDBRANCH   8  11
ENDBRANCH   5   9
ENDBRANCH   2   5
BRANCH   3  20
ATOM     20  C   UNL     1      33.759 -21.234 -19.513  0.00  0.00    +0.170 C 
BRANCH  20  21
ATOM     21  O   UNL     1      32.590 -21.359 -20.309  0.00  0.00    -0.377 OA
ATOM     22  H   UNL     1      32.593 -22.221 -20.752  0.00  0.00    +0.211 HD
ENDBRANCH  20  21
BRANCH  20  23
ATOM     23  C   UNL     1      34.195 -22.591 -18.909  0.00  0.00    -0.006 C 
BRANCH  23  24
ATOM     24  C   UNL     1      33.616 -22.864 -17.530  0.00  0.00    -0.040 C 
ATOM     25  C   UNL     1      32.245 -22.865 -17.371  0.00  0.00    -0.007 C 
ATOM     26  C   UNL     1      34.478 -23.102 -16.479  0.00  0.00    -0.007 C 
ATOM     27  C   UNL     1      32.563 -23.359 -15.027  0.00  0.00    -0.022 C 
ATOM     28  C   UNL     1      31.713 -23.116 -16.106  0.00  0.00    -0.005 C 
ATOM     29  C   UNL     1      33.946 -23.353 -15.214  0.00  0.00    -0.005 C 
ATOM     30  C   UNL     1      31.995 -23.627 -13.675  0.00  0.00    +0.031 C 
ENDBRANCH  23  24
BRANCH  23  31
ATOM     31  N   UNL     1      33.893 -23.676 -19.855  0.00  0.00    +0.386 N 
ATOM     32  H   UNL     1      34.363 -23.495 -20.742  0.00  0.00    -0.089 HD
ATOM     33  H   UNL     1      32.886 -23.724 -20.007  0.00  0.00    -0.089 HD
ATOM     34  H   UNL     1      34.222 -24.563 -19.472  0.00  0.00    -0.089 HD
ENDBRANCH  23  31
ENDBRANCH  20  23
ENDBRANCH   3  20
TORSDOF 12
ENDMDL
MODEL 5
REMARK VINA RESULT:      -8.9      2.680      4.593
REMARK  Name = 6914647
REMARK  12 active torsions:
REMARK  status: ('A' for Active; 'I' for Inactive)
REMARK    1  A    between atoms: N_2  and  C_5
REMARK    2  A    between atoms: C_3  and  C_20
REMARK    3  A    between atoms: C_5  and  C_9
REMARK    4  A    between atoms: N_8  and  C_11
REMARK    5  A    between atoms: C_11  and  C_13
REMARK    6  A    between atoms: C_11  and  C_16
REMARK    7  A    between atoms: C_13  and  O_14
REMARK    8  A    between atoms: C_16  and  C_17
REMARK    9  A    between atoms: C_20  and  O_21
REMARK   10  A    between atoms: C_20  and  C_23
REMARK   11  A    between atoms: C_23  and  C_24
REMARK   12  A    between atoms: C_23  and  N_31
REMARK                            x       y       z     vdW  Elec       q    Type
REMARK                         _______ _______ _______ _____ _____    ______ ____
ROOT
ATOM      1  O   UNL     1      36.202 -19.270 -20.646  0.00  0.00    -0.273 OA
ATOM      2  N   UNL     1      34.438 -19.210 -22.154  0.00  0.00    -0.296 N 
ATOM      3  C   UNL     1      35.033 -19.515 -20.937  0.00  0.00    +0.248 C 
ATOM      4  H   UNL     1      33.493 -19.448 -22.288  0.00  0.00    +0.150 HD
ENDROOT
BRANCH   2   5
ATOM      5  C   UNL     1      35.142 -18.560 -23.227  0.00  0.00    +0.149 C 
ATOM      6  C   UNL     1      34.654 -19.044 -24.583  0.00  0.00    +0.031 C 
BRANCH   5   9
ATOM      7  O   UNL     1      35.348 -16.416 -22.115  0.00  0.00    -0.273 OA
ATOM      8  N   UNL     1      34.211 -16.520 -24.136  0.00  0.00    -0.295 N 
ATOM      9  C   UNL     1      34.939 -17.057 -23.081  0.00  0.00    +0.241 C 
ATOM     10  H   UNL     1      33.928 -17.116 -24.865  0.00  0.00    +0.150 HD
BRANCH   8  11
ATOM     11  C   UNL     1      33.852 -15.127 -24.206  0.00  0.00    +0.171 C 
BRANCH  11  13
ATOM     12  O   UNL     1      33.352 -15.716 -26.515  0.00  0.00    -0.248 OA
ATOM     13  C   UNL     1      33.451 -14.861 -25.644  0.00  0.00    +0.335 C 
BRANCH  13  14
ATOM     14  O   UNL     1      33.268 -13.518 -25.819  0.00  0.00    -0.443 OA
ATOM     15  C   UNL     1      33.250 -13.070 -27.179  0.00  0.00    +0.256 C 
ENDBRANCH  13  14
ENDBRANCH  11  13
BRANCH  11  16
ATOM     16  C   UNL     1      32.699 -14.769 -23.264  0.00  0.00    +0.031 C 
BRANCH  16  17
ATOM     17  C   UNL     1      33.046 -13.720 -22.189  0.00  0.00    +0.002 C 
ATOM     18  C   UNL     1      32.162 -12.483 -22.370  0.00  0.00    +0.000 C 
ATOM     19  C   UNL     1      32.882 -14.266 -20.769  0.00  0.00    +0.000 C 
ENDBRANCH  16  17
ENDBRANCH  11  16
ENDBRANCH   8  11
ENDBRANCH   5   9
ENDBRANCH   2   5
BRANCH   3  20
ATOM     20  C   UNL     1      34.070 -20.184 -19.957  0.00  0.00    +0.170 C 
BRANCH  20  21
ATOM     21  O   UNL     1      32.738 -19.937 -20.383  0.00  0.00    -0.377 OA
ATOM     22  H   UNL     1      32.714 -19.883 -21.351  0.00  0.00    +0.211 HD
ENDBRANCH  20  21
BRANCH  20  23
ATOM     23  C   UNL     1      34.346 -21.694 -19.767  0.00  0.00    -0.006 C 
BRANCH  23  24
ATOM     24  C   UNL     1      35.080 -22.027 -18.478  0.00  0.00    -0.040 C 
ATOM     25  C   UNL     1      36.396 -21.632 -18.339  0.00  0.00    -0.007 C 
ATOM     26  C   UNL     1      34.411 -22.714 -17.486  0.00  0.00    -0.007 C 
ATOM     27  C   UNL     1      36.415 -22.630 -16.138  0.00  0.00    -0.022 C 
ATOM     28  C   UNL     1      37.070 -21.937 -17.156  0.00  0.00    -0.005 C 
ATOM     29  C   UNL     1      35.086 -23.018 -16.303  0.00  0.00    -0.005 C 
ATOM     30  C   UNL     1      37.136 -22.955 -14.874  0.00  0.00    +0.031 C 
ENDBRANCH  23  24
BRANCH  23  31
ATOM     31  N   UNL     1      33.090 -22.449 -19.893  0.00  0.00    +0.386 N 
ATOM     32  H   UNL     1      32.782 -22.438 -20.865  0.00  0.00    -0.089 HD
ATOM     33  H   UNL     1      32.376 -22.021 -19.305  0.00  0.00    -0.089 HD
ATOM     34  H   UNL     1      33.242 -23.413 -19.596  0.00  0.00    -0.089 HD
ENDBRANCH  23  31
ENDBRANCH  20  23
ENDBRANCH   3  20
TORSDOF 12
ENDMDL
MODEL 6
REMARK VINA RESULT:      -8.8      3.071      5.141
REMARK  Name = 6914647
REMARK  12 active torsions:
REMARK  status: ('A' for Active; 'I' for Inactive)
REMARK    1  A    between atoms: N_2  and  C_5
REMARK    2  A    between atoms: C_3  and  C_20
REMARK    3  A    between atoms: C_5  and  C_9
REMARK    4  A    between atoms: N_8  and  C_11
REMARK    5  A    between atoms: C_11  and  C_13
REMARK    6  A    between atoms: C_11  and  C_16
REMARK    7  A    between atoms: C_13  and  O_14
REMARK    8  A    between atoms: C_16  and  C_17
REMARK    9  A    between atoms: C_20  and  O_21
REMARK   10  A    between atoms: C_20  and  C_23
REMARK   11  A    between atoms: C_23  and  C_24
REMARK   12  A    between atoms: C_23  and  N_31
REMARK                            x       y       z     vdW  Elec       q    Type
REMARK                         _______ _______ _______ _____ _____    ______ ____
ROOT
ATOM      1  O   UNL     1      31.555 -12.653 -22.609  0.00  0.00    -0.273 OA
ATOM      2  N   UNL     1      31.928 -12.094 -20.387  0.00  0.00    -0.296 N 
ATOM      3  C   UNL     1      32.082 -12.880 -21.521  0.00  0.00    +0.248 C 
ATOM      4  H   UNL     1      32.393 -12.362 -19.562  0.00  0.00    +0.150 HD
ENDROOT
BRANCH   2   5
ATOM      5  C   UNL     1      31.119 -10.904 -20.365  0.00  0.00    +0.149 C 
ATOM      6  C   UNL     1      30.672 -10.565 -18.951  0.00  0.00    +0.031 C 
BRANCH   5   9
ATOM      7  O   UNL     1      32.667  -9.040 -20.292  0.00  0.00    -0.273 OA
ATOM      8  N   UNL     1      31.727  -9.630 -22.330  0.00  0.00    -0.295 N 
ATOM      9  C   UNL     1      31.937  -9.767 -20.963  0.00  0.00    +0.241 C 
ATOM     10  H   UNL     1      31.123 -10.264 -22.780  0.00  0.00    +0.150 HD
BRANCH   8  11
ATOM     11  C   UNL     1      32.354  -8.600 -23.116  0.00  0.00    +0.171 C 
BRANCH  11  13
ATOM     12  O   UNL     1      33.446 -10.482 -24.211  0.00  0.00    -0.248 OA
ATOM     13  C   UNL     1      33.422  -9.286 -23.946  0.00  0.00    +0.335 C 
BRANCH  13  14
ATOM     14  O   UNL     1      34.370  -8.370 -24.305  0.00  0.00    -0.443 OA
ATOM     15  C   UNL     1      34.887  -7.567 -23.238  0.00  0.00    +0.256 C 
ENDBRANCH  13  14
ENDBRANCH  11  13
BRANCH  11  16
ATOM     16  C   UNL     1      31.364  -7.873 -24.031  0.00  0.00    +0.031 C 
BRANCH  16  17
ATOM     17  C   UNL     1      31.282  -6.350 -23.812  0.00  0.00    +0.002 C 
ATOM     18  C   UNL     1      31.667  -6.014 -22.368  0.00  0.00    +0.000 C 
ATOM     19  C   UNL     1      32.180  -5.573 -24.777  0.00  0.00    +0.000 C 
ENDBRANCH  16  17
ENDBRANCH  11  16
ENDBRANCH   8  11
ENDBRANCH   5   9
ENDBRANCH   2   5
BRANCH   3  20
ATOM     20  C   UNL     1      33.006 -14.075 -21.293  0.00  0.00    +0.170 C 
BRANCH  20  21
ATOM     21  O   UNL     1      32.232 -15.265 -21.323  0.00  0.00    -0.377 OA
ATOM     22  H   UNL     1      31.839 -15.416 -20.449  0.00  0.00    +0.211 HD
ENDBRANCH  20  21
BRANCH  20  23
ATOM     23  C   UNL     1      34.189 -14.129 -22.289  0.00  0.00    -0.006 C 
BRANCH  23  24
ATOM     24  C   UNL     1      34.403 -15.498 -22.915  0.00  0.00    -0.040 C 
ATOM     25  C   UNL     1      34.055 -15.689 -24.237  0.00  0.00    -0.007 C 
ATOM     26  C   UNL     1      34.937 -16.509 -22.143  0.00  0.00    -0.007 C 
ATOM     27  C   UNL     1      34.790 -17.983 -24.052  0.00  0.00    -0.022 C 
ATOM     28  C   UNL     1      34.251 -16.945 -24.812  0.00  0.00    -0.005 C 
ATOM     29  C   UNL     1      35.133 -17.765 -22.718  0.00  0.00    -0.005 C 
ATOM     30  C   UNL     1      35.000 -19.325 -24.666  0.00  0.00    +0.031 C 
ENDBRANCH  23  24
BRANCH  23  31
ATOM     31  N   UNL     1      34.030 -13.079 -23.307  0.00  0.00    +0.386 N 
ATOM     32  H   UNL     1      33.208 -13.280 -23.877  0.00  0.00    -0.089 HD
ATOM     33  H   UNL     1      34.858 -13.054 -23.901  0.00  0.00    -0.089 HD
ATOM     34  H   UNL     1      33.912 -12.176 -22.849  0.00  0.00    -0.089 HD
ENDBRANCH  23  31
ENDBRANCH  20  23
ENDBRANCH   3  20
TORSDOF 12
ENDMDL
MODEL 7
REMARK VINA RESULT:      -8.7      1.723      3.026
REMARK  Name = 6914647
REMARK  12 active torsions:
REMARK  status: ('A' for Active; 'I' for Inactive)
REMARK    1  A    between atoms: N_2  and  C_5
REMARK    2  A    between atoms: C_3  and  C_20
REMARK    3  A    between atoms: C_5  and  C_9
REMARK    4  A    between atoms: N_8  and  C_11
REMARK    5  A    between atoms: C_11  and  C_13
REMARK    6  A    between atoms: C_11  and  C_16
REMARK    7  A    between atoms: C_13  and  O_14
REMARK    8  A    between atoms: C_16  and  C_17
REMARK    9  A    between atoms: C_20  and  O_21
REMARK   10  A    between atoms: C_20  and  C_23
REMARK   11  A    between atoms: C_23  and  C_24
REMARK   12  A    between atoms: C_23  and  N_31
REMARK                            x       y       z     vdW  Elec       q    Type
REMARK                         _______ _______ _______ _____ _____    ______ ____
ROOT
ATOM      1  O   UNL     1      34.579 -18.229 -25.547  0.00  0.00    -0.273 OA
ATOM      2  N   UNL     1      34.176 -16.078 -24.773  0.00  0.00    -0.296 N 
ATOM      3  C   UNL     1      34.598 -17.394 -24.645  0.00  0.00    +0.248 C 
ATOM      4  H   UNL     1      34.232 -15.487 -23.988  0.00  0.00    +0.150 HD
ENDROOT
BRANCH   2   5
ATOM      5  C   UNL     1      33.661 -15.539 -26.004  0.00  0.00    +0.149 C 
ATOM      6  C   UNL     1      32.442 -16.313 -26.480  0.00  0.00    +0.031 C 
BRANCH   5   9
ATOM      7  O   UNL     1      33.157 -13.268 -26.684  0.00  0.00    -0.273 OA
ATOM      8  N   UNL     1      33.249 -13.759 -24.417  0.00  0.00    -0.295 N 
ATOM      9  C   UNL     1      33.317 -14.074 -25.769  0.00  0.00    +0.241 C 
ATOM     10  H   UNL     1      33.392 -14.476 -23.759  0.00  0.00    +0.150 HD
BRANCH   8  11
ATOM     11  C   UNL     1      32.981 -12.427 -23.939  0.00  0.00    +0.171 C 
BRANCH  11  13
ATOM     12  O   UNL     1      32.331 -13.617 -21.916  0.00  0.00    -0.248 OA
ATOM     13  C   UNL     1      32.338 -12.585 -22.575  0.00  0.00    +0.335 C 
BRANCH  13  14
ATOM     14  O   UNL     1      31.730 -11.411 -22.226  0.00  0.00    -0.443 OA
ATOM     15  C   UNL     1      30.893 -11.472 -21.066  0.00  0.00    +0.256 C 
ENDBRANCH  13  14
ENDBRANCH  11  13
BRANCH  11  16
ATOM     16  C   UNL     1      34.249 -11.576 -23.827  0.00  0.00    +0.031 C 
BRANCH  16  17
ATOM     17  C   UNL     1      34.277 -10.337 -24.744  0.00  0.00    +0.002 C 
ATOM     18  C   UNL     1      34.381  -9.067 -23.893  0.00  0.00    +0.000 C 
ATOM     19  C   UNL     1      35.432 -10.380 -25.746  0.00  0.00    +0.000 C 
ENDBRANCH  16  17
ENDBRANCH  11  16
ENDBRANCH   8  11
ENDBRANCH   5   9
ENDBRANCH   2   5
BRANCH   3  20
ATOM     20  C   UNL     1      35.121 -17.715 -23.246  0.00  0.00    +0.170 C 
BRANCH  20  21
ATOM     21  O   UNL     1      36.120 -16.766 -22.900  0.00  0.00    -0.377 OA
ATOM     22  H   UNL     1      36.675 -16.587 -23.676  0.00  0.00    +0.211 HD
ENDBRANCH  20  21
BRANCH  20  23
ATOM     23  C   UNL     1      34.002 -17.790 -22.179  0.00  0.00    -0.006 C 
BRANCH  23  24
ATOM     24  C   UNL     1      34.084 -19.020 -21.289  0.00  0.00    -0.040 C 
ATOM     25  C   UNL     1      35.319 -19.581 -21.039  0.00  0.00    -0.007 C 
ATOM     26  C   UNL     1      32.920 -19.539 -20.758  0.00  0.00    -0.007 C 
ATOM     27  C   UNL     1      34.234 -21.253 -19.673  0.00  0.00    -0.022 C 
ATOM     28  C   UNL     1      35.396 -20.710 -20.222  0.00  0.00    -0.005 C 
ATOM     29  C   UNL     1      32.996 -20.667 -19.941  0.00  0.00    -0.005 C 
ATOM     30  C   UNL     1      34.314 -22.458 -18.800  0.00  0.00    +0.031 C 
ENDBRANCH  23  24
BRANCH  23  31
ATOM     31  N   UNL     1      33.978 -16.546 -21.395  0.00  0.00    +0.386 N 
ATOM     32  H   UNL     1      33.162 -16.545 -20.783  0.00  0.00    -0.089 HD
ATOM     33  H   UNL     1      33.931 -15.747 -22.027  0.00  0.00    -0.089 HD
ATOM     34  H   UNL     1      34.826 -16.484 -20.831  0.00  0.00    -0.089 HD
ENDBRANCH  23  31
ENDBRANCH  20  23
ENDBRANCH   3  20
TORSDOF 12
ENDMDL
MODEL 8
REMARK VINA RESULT:      -8.7      4.501     10.687
REMARK  Name = 6914647
REMARK  12 active torsions:
REMARK  status: ('A' for Active; 'I' for Inactive)
REMARK    1  A    between atoms: N_2  and  C_5
REMARK    2  A    between atoms: C_3  and  C_20
REMARK    3  A    between atoms: C_5  and  C_9
REMARK    4  A    between atoms: N_8  and  C_11
REMARK    5  A    between atoms: C_11  and  C_13
REMARK    6  A    between atoms: C_11  and  C_16
REMARK    7  A    between atoms: C_13  and  O_14
REMARK    8  A    between atoms: C_16  and  C_17
REMARK    9  A    between atoms: C_20  and  O_21
REMARK   10  A    between atoms: C_20  and  C_23
REMARK   11  A    between atoms: C_23  and  C_24
REMARK   12  A    between atoms: C_23  and  N_31
REMARK                            x       y       z     vdW  Elec       q    Type
REMARK                         _______ _______ _______ _____ _____    ______ ____
ROOT
ATOM      1  O   UNL     1      36.759 -19.898 -20.564  0.00  0.00    -0.273 OA
ATOM      2  N   UNL     1      34.797 -20.986 -19.967  0.00  0.00    -0.296 N 
ATOM      3  C   UNL     1      35.537 -20.018 -20.633  0.00  0.00    +0.248 C 
ATOM      4  H   UNL     1      33.820 -20.998 -20.088  0.00  0.00    +0.150 HD
ENDROOT
BRANCH   2   5
ATOM      5  C   UNL     1      35.395 -21.975 -19.110  0.00  0.00    +0.149 C 
ATOM      6  C   UNL     1      36.381 -21.342 -18.140  0.00  0.00    +0.031 C 
BRANCH   5   9
ATOM      7  O   UNL     1      33.142 -22.817 -18.814  0.00  0.00    -0.273 OA
ATOM      8  N   UNL     1      34.681 -23.127 -17.105  0.00  0.00    -0.295 N 
ATOM      9  C   UNL     1      34.277 -22.687 -18.360  0.00  0.00    +0.241 C 
ATOM     10  H   UNL     1      35.614 -22.977 -16.832  0.00  0.00    +0.150 HD
BRANCH   8  11
ATOM     11  C   UNL     1      33.792 -23.792 -16.188  0.00  0.00    +0.171 C 
BRANCH  11  13
ATOM     12  O   UNL     1      34.453 -24.281 -13.896  0.00  0.00    -0.248 OA
ATOM     13  C   UNL     1      34.666 -24.381 -15.098  0.00  0.00    +0.335 C 
BRANCH  13  14
ATOM     14  O   UNL     1      35.747 -24.993 -15.669  0.00  0.00    -0.443 OA
ATOM     15  C   UNL     1      36.685 -25.567 -14.752  0.00  0.00    +0.256 C 
ENDBRANCH  13  14
ENDBRANCH  11  13
BRANCH  11  16
ATOM     16  C   UNL     1      32.759 -22.842 -15.577  0.00  0.00    +0.031 C 
BRANCH  16  17
ATOM     17  C   UNL     1      31.349 -23.442 -15.412  0.00  0.00    +0.002 C 
ATOM     18  C   UNL     1      30.874 -23.255 -13.967  0.00  0.00    +0.000 C 
ATOM     19  C   UNL     1      30.334 -22.819 -16.371  0.00  0.00    +0.000 C 
ENDBRANCH  16  17
ENDBRANCH  11  16
ENDBRANCH   8  11
ENDBRANCH   5   9
ENDBRANCH   2   5
BRANCH   3  20
ATOM     20  C   UNL     1      34.673 -19.101 -21.497  0.00  0.00    +0.170 C 
BRANCH  20  21
ATOM     21  O   UNL     1      33.383 -19.002 -20.912  0.00  0.00    -0.377 OA
ATOM     22  H   UNL     1      33.366 -19.504 -20.082  0.00  0.00    +0.211 HD
ENDBRANCH  20  21
BRANCH  20  23
ATOM     23  C   UNL     1      35.309 -17.711 -21.735  0.00  0.00    -0.006 C 
BRANCH  23  24
ATOM     24  C   UNL     1      34.753 -16.981 -22.947  0.00  0.00    -0.040 C 
ATOM     25  C   UNL     1      34.199 -15.729 -22.776  0.00  0.00    -0.007 C 
ATOM     26  C   UNL     1      34.819 -17.592 -24.183  0.00  0.00    -0.007 C 
ATOM     27  C   UNL     1      33.744 -15.655 -25.148  0.00  0.00    -0.022 C 
ATOM     28  C   UNL     1      33.689 -15.058 -23.888  0.00  0.00    -0.005 C 
ATOM     29  C   UNL     1      34.309 -16.922 -25.295  0.00  0.00    -0.005 C 
ATOM     30  C   UNL     1      33.199 -14.939 -26.336  0.00  0.00    +0.031 C 
ENDBRANCH  23  24
BRANCH  23  31
ATOM     31  N   UNL     1      35.205 -16.901 -20.512  0.00  0.00    +0.386 N 
ATOM     32  H   UNL     1      34.256 -16.538 -20.423  0.00  0.00    -0.089 HD
ATOM     33  H   UNL     1      35.863 -16.124 -20.562  0.00  0.00    -0.089 HD
ATOM     34  H   UNL     1      35.424 -17.480 -19.701  0.00  0.00    -0.089 HD
ENDBRANCH  23  31
ENDBRANCH  20  23
ENDBRANCH   3  20
TORSDOF 12
ENDMDL
MODEL 9
REMARK VINA RESULT:      -8.6      5.534     10.698
REMARK  Name = 6914647
REMARK  12 active torsions:
REMARK  status: ('A' for Active; 'I' for Inactive)
REMARK    1  A    between atoms: N_2  and  C_5
REMARK    2  A    between atoms: C_3  and  C_20
REMARK    3  A    between atoms: C_5  and  C_9
REMARK    4  A    between atoms: N_8  and  C_11
REMARK    5  A    between atoms: C_11  and  C_13
REMARK    6  A    between atoms: C_11  and  C_16
REMARK    7  A    between atoms: C_13  and  O_14
REMARK    8  A    between atoms: C_16  and  C_17
REMARK    9  A    between atoms: C_20  and  O_21
REMARK   10  A    between atoms: C_20  and  C_23
REMARK   11  A    between atoms: C_23  and  C_24
REMARK   12  A    between atoms: C_23  and  N_31
REMARK                            x       y       z     vdW  Elec       q    Type
REMARK                         _______ _______ _______ _____ _____    ______ ____
ROOT
ATOM      1  O   UNL     1      34.506 -23.273 -19.633  0.00  0.00    -0.273 OA
ATOM      2  N   UNL     1      32.863 -22.213 -18.381  0.00  0.00    -0.296 N 
ATOM      3  C   UNL     1      33.740 -22.329 -19.452  0.00  0.00    +0.248 C 
ATOM      4  H   UNL     1      32.291 -21.415 -18.327  0.00  0.00    +0.150 HD
ENDROOT
BRANCH   2   5
ATOM      5  C   UNL     1      32.755 -23.209 -17.349  0.00  0.00    +0.149 C 
ATOM      6  C   UNL     1      34.092 -23.441 -16.661  0.00  0.00    +0.031 C 
BRANCH   5   9
ATOM      7  O   UNL     1      31.986 -22.297 -15.239  0.00  0.00    -0.273 OA
ATOM      8  N   UNL     1      30.411 -22.913 -16.828  0.00  0.00    -0.295 N 
ATOM      9  C   UNL     1      31.705 -22.740 -16.350  0.00  0.00    +0.241 C 
ATOM     10  H   UNL     1      30.287 -23.275 -17.734  0.00  0.00    +0.150 HD
BRANCH   8  11
ATOM     11  C   UNL     1      29.243 -22.585 -16.052  0.00  0.00    +0.171 C 
BRANCH  11  13
ATOM     12  O   UNL     1      27.754 -23.745 -17.590  0.00  0.00    -0.248 OA
ATOM     13  C   UNL     1      28.056 -22.724 -16.986  0.00  0.00    +0.335 C 
BRANCH  13  14
ATOM     14  O   UNL     1      27.415 -21.520 -17.082  0.00  0.00    -0.443 OA
ATOM     15  C   UNL     1      26.282 -21.493 -17.957  0.00  0.00    +0.256 C 
ENDBRANCH  13  14
ENDBRANCH  11  13
BRANCH  11  16
ATOM     16  C   UNL     1      29.066 -23.502 -14.839  0.00  0.00    +0.031 C 
BRANCH  16  17
ATOM     17  C   UNL     1      29.961 -24.758 -14.844  0.00  0.00    +0.002 C 
ATOM     18  C   UNL     1      30.667 -24.894 -13.491  0.00  0.00    +0.000 C 
ATOM     19  C   UNL     1      29.172 -26.034 -15.143  0.00  0.00    +0.000 C 
ENDBRANCH  16  17
ENDBRANCH  11  16
ENDBRANCH   8  11
ENDBRANCH   5   9
ENDBRANCH   2   5
BRANCH   3  20
ATOM     20  C   UNL     1      33.650 -21.152 -20.421  0.00  0.00    +0.170 C 
BRANCH  20  21
ATOM     21  O   UNL     1      32.770 -20.177 -19.880  0.00  0.00    -0.377 OA
ATOM     22  H   UNL     1      33.131 -19.847 -19.043  0.00  0.00    +0.211 HD
ENDBRANCH  20  21
BRANCH  20  23
ATOM     23  C   UNL     1      35.031 -20.549 -20.778  0.00  0.00    -0.006 C 
BRANCH  23  24
ATOM     24  C   UNL     1      34.950 -19.262 -21.583  0.00  0.00    -0.040 C 
ATOM     25  C   UNL     1      34.768 -19.340 -22.949  0.00  0.00    -0.007 C 
ATOM     26  C   UNL     1      35.060 -18.055 -20.924  0.00  0.00    -0.007 C 
ATOM     27  C   UNL     1      34.802 -16.926 -23.046  0.00  0.00    -0.022 C 
ATOM     28  C   UNL     1      34.693 -18.160 -23.689  0.00  0.00    -0.005 C 
ATOM     29  C   UNL     1      34.985 -16.874 -21.664  0.00  0.00    -0.005 C 
ATOM     30  C   UNL     1      34.722 -15.664 -23.835  0.00  0.00    +0.031 C 
ENDBRANCH  23  24
BRANCH  23  31
ATOM     31  N   UNL     1      35.831 -20.382 -19.555  0.00  0.00    +0.386 N 
ATOM     32  H   UNL     1      36.735 -20.837 -19.675  0.00  0.00    -0.089 HD
ATOM     33  H   UNL     1      35.340 -20.803 -18.767  0.00  0.00    -0.089 HD
ATOM     34  H   UNL     1      35.973 -19.388 -19.375  0.00  0.00    -0.089 HD
ENDBRANCH  23  31
ENDBRANCH  20  23
ENDBRANCH   3  20
TORSDOF 12
ENDMDL
