MODEL 1
REMARK VINA RESULT:      -6.9      0.000      0.000
REMARK  Name = 4117
REMARK  4 active torsions:
REMARK  status: ('A' for Active; 'I' for Inactive)
REMARK    1  A    between atoms: C_1  and  C_9
REMARK    2  A    between atoms: C_2  and  O_7
REMARK    3  A    between atoms: C_9  and  C_10
REMARK    4  A    between atoms: C_10  and  N_12
REMARK                            x       y       z     vdW  Elec       q    Type
REMARK                         _______ _______ _______ _____ _____    ______ ____
ROOT
ATOM      1  C   UNL     1      34.766 -18.110 -22.520  0.00  0.00    +0.010 C 
ATOM      2  C   UNL     1      34.812 -16.770 -22.870  0.00  0.00    +0.135 C 
ATOM      3  C   UNL     1      34.644 -19.101 -23.483  0.00  0.00    -0.001 C 
ATOM      4  C   UNL     1      34.734 -16.410 -24.216  0.00  0.00    +0.037 C 
ATOM      5  C   UNL     1      34.566 -18.741 -24.829  0.00  0.00    -0.000 C 
ATOM      6  C   UNL     1      34.612 -17.396 -25.195  0.00  0.00    +0.003 C 
ENDROOT
BRANCH   2   7
ATOM      7  O   UNL     1      34.931 -15.795 -21.926  0.00  0.00    -0.472 OA
ATOM      8  C   UNL     1      34.307 -14.543 -22.206  0.00  0.00    +0.252 C 
ENDBRANCH   2   7
BRANCH   1   9
ATOM      9  C   UNL     1      34.848 -18.519 -21.069  0.00  0.00    +0.008 C 
BRANCH   9  10
ATOM     10  C   UNL     1      34.686 -20.034 -20.845  0.00  0.00    -0.058 C 
ATOM     11  C   UNL     1      33.320 -20.398 -20.267  0.00  0.00    -0.023 C 
BRANCH  10  12
ATOM     12  N   UNL     1      35.720 -20.504 -19.917  0.00  0.00    +0.384 N 
ATOM     13  C   UNL     1      35.291 -21.720 -19.247  0.00  0.00    -0.106 C 
ATOM     14  H   UNL     1      35.897 -19.781 -19.219  0.00  0.00    -0.085 HD
ATOM     15  H   UNL     1      36.571 -20.700 -20.444  0.00  0.00    -0.085 HD
ENDBRANCH  10  12
ENDBRANCH   9  10
ENDBRANCH   1   9
TORSDOF 4
ENDMDL
MODEL 2
REMARK VINA RESULT:      -6.5      1.464      2.966
REMARK  Name = 4117
REMARK  4 active torsions:
REMARK  status: ('A' for Active; 'I' for Inactive)
REMARK    1  A    between atoms: C_1  and  C_9
REMARK    2  A    between atoms: C_2  and  O_7
REMARK    3  A    between atoms: C_9  and  C_10
REMARK    4  A    between atoms: C_10  and  N_12
REMARK                            x       y       z     vdW  Elec       q    Type
REMARK                         _______ _______ _______ _____ _____    ______ ____
ROOT
ATOM      1  C   UNL     1      35.147 -17.085 -22.035  0.00  0.00    +0.010 C 
ATOM      2  C   UNL     1      34.999 -16.477 -23.271  0.00  0.00    +0.135 C 
ATOM      3  C   UNL     1      34.845 -16.411 -20.861  0.00  0.00    -0.001 C 
ATOM      4  C   UNL     1      34.538 -15.161 -23.337  0.00  0.00    +0.037 C 
ATOM      5  C   UNL     1      34.384 -15.096 -20.926  0.00  0.00    -0.000 C 
ATOM      6  C   UNL     1      34.230 -14.472 -22.164  0.00  0.00    +0.003 C 
ENDROOT
BRANCH   2   7
ATOM      7  O   UNL     1      35.295 -17.136 -24.426  0.00  0.00    -0.472 OA
ATOM      8  C   UNL     1      34.197 -17.612 -25.201  0.00  0.00    +0.252 C 
ENDBRANCH   2   7
BRANCH   1   9
ATOM      9  C   UNL     1      35.644 -18.508 -21.944  0.00  0.00    +0.008 C 
BRANCH   9  10
ATOM     10  C   UNL     1      34.958 -19.332 -20.839  0.00  0.00    -0.058 C 
ATOM     11  C   UNL     1      35.741 -20.593 -20.476  0.00  0.00    -0.023 C 
BRANCH  10  12
ATOM     12  N   UNL     1      33.621 -19.733 -21.288  0.00  0.00    +0.384 N 
ATOM     13  C   UNL     1      32.908 -20.418 -20.223  0.00  0.00    -0.106 C 
ATOM     14  H   UNL     1      33.709 -20.358 -22.089  0.00  0.00    -0.085 HD
ATOM     15  H   UNL     1      33.098 -18.897 -21.549  0.00  0.00    -0.085 HD
ENDBRANCH  10  12
ENDBRANCH   9  10
ENDBRANCH   1   9
TORSDOF 4
ENDMDL
MODEL 3
REMARK VINA RESULT:      -6.4      2.348      5.329
REMARK  Name = 4117
REMARK  4 active torsions:
REMARK  status: ('A' for Active; 'I' for Inactive)
REMARK    1  A    between atoms: C_1  and  C_9
REMARK    2  A    between atoms: C_2  and  O_7
REMARK    3  A    between atoms: C_9  and  C_10
REMARK    4  A    between atoms: C_10  and  N_12
REMARK                            x       y       z     vdW  Elec       q    Type
REMARK                         _______ _______ _______ _____ _____    ______ ____
ROOT
ATOM      1  C   UNL     1      34.697 -19.694 -20.931  0.00  0.00    +0.010 C 
ATOM      2  C   UNL     1      35.157 -20.731 -20.136  0.00  0.00    +0.135 C 
ATOM      3  C   UNL     1      33.345 -19.400 -21.019  0.00  0.00    -0.001 C 
ATOM      4  C   UNL     1      34.242 -21.495 -19.409  0.00  0.00    +0.037 C 
ATOM      5  C   UNL     1      32.430 -20.164 -20.293  0.00  0.00    -0.000 C 
ATOM      6  C   UNL     1      32.879 -21.211 -19.488  0.00  0.00    +0.003 C 
ENDROOT
BRANCH   2   7
ATOM      7  O   UNL     1      36.485 -21.023 -20.048  0.00  0.00    -0.472 OA
ATOM      8  C   UNL     1      36.965 -21.484 -18.786  0.00  0.00    +0.252 C 
ENDBRANCH   2   7
BRANCH   1   9
ATOM      9  C   UNL     1      35.672 -18.857 -21.724  0.00  0.00    +0.008 C 
BRANCH   9  10
ATOM     10  C   UNL     1      35.034 -18.147 -22.933  0.00  0.00    -0.058 C 
ATOM     11  C   UNL     1      35.028 -19.019 -24.188  0.00  0.00    -0.023 C 
BRANCH  10  12
ATOM     12  N   UNL     1      35.779 -16.919 -23.228  0.00  0.00    +0.384 N 
ATOM     13  C   UNL     1      34.867 -15.819 -23.491  0.00  0.00    -0.106 C 
ATOM     14  H   UNL     1      36.366 -17.072 -24.048  0.00  0.00    -0.085 HD
ATOM     15  H   UNL     1      36.356 -16.683 -22.420  0.00  0.00    -0.085 HD
ENDBRANCH  10  12
ENDBRANCH   9  10
ENDBRANCH   1   9
TORSDOF 4
ENDMDL
MODEL 4
REMARK VINA RESULT:      -6.3      3.348      4.873
REMARK  Name = 4117
REMARK  4 active torsions:
REMARK  status: ('A' for Active; 'I' for Inactive)
REMARK    1  A    between atoms: C_1  and  C_9
REMARK    2  A    between atoms: C_2  and  O_7
REMARK    3  A    between atoms: C_9  and  C_10
REMARK    4  A    between atoms: C_10  and  N_12
REMARK                            x       y       z     vdW  Elec       q    Type
REMARK                         _______ _______ _______ _____ _____    ______ ____
ROOT
ATOM      1  C   UNL     1      34.574 -15.654 -23.028  0.00  0.00    +0.010 C 
ATOM      2  C   UNL     1      34.098 -15.724 -24.328  0.00  0.00    +0.135 C 
ATOM      3  C   UNL     1      35.178 -16.747 -22.424  0.00  0.00    -0.001 C 
ATOM      4  C   UNL     1      34.228 -16.916 -25.042  0.00  0.00    +0.037 C 
ATOM      5  C   UNL     1      35.308 -17.938 -23.138  0.00  0.00    -0.000 C 
ATOM      6  C   UNL     1      34.834 -18.022 -24.447  0.00  0.00    +0.003 C 
ENDROOT
BRANCH   2   7
ATOM      7  O   UNL     1      33.504 -14.653 -24.924  0.00  0.00    -0.472 OA
ATOM      8  C   UNL     1      32.882 -14.877 -26.188  0.00  0.00    +0.252 C 
ENDBRANCH   2   7
BRANCH   1   9
ATOM      9  C   UNL     1      34.441 -14.373 -22.240  0.00  0.00    +0.008 C 
BRANCH   9  10
ATOM     10  C   UNL     1      33.097 -14.240 -21.500  0.00  0.00    -0.058 C 
ATOM     11  C   UNL     1      32.584 -15.579 -20.971  0.00  0.00    -0.023 C 
BRANCH  10  12
ATOM     12  N   UNL     1      32.090 -13.688 -22.412  0.00  0.00    +0.384 N 
ATOM     13  C   UNL     1      32.022 -12.242 -22.282  0.00  0.00    -0.106 C 
ATOM     14  H   UNL     1      31.179 -14.088 -22.187  0.00  0.00    -0.085 HD
ATOM     15  H   UNL     1      32.351 -13.921 -23.370  0.00  0.00    -0.085 HD
ENDBRANCH  10  12
ENDBRANCH   9  10
ENDBRANCH   1   9
TORSDOF 4
ENDMDL
MODEL 5
REMARK VINA RESULT:      -6.3      2.062      3.453
REMARK  Name = 4117
REMARK  4 active torsions:
REMARK  status: ('A' for Active; 'I' for Inactive)
REMARK    1  A    between atoms: C_1  and  C_9
REMARK    2  A    between atoms: C_2  and  O_7
REMARK    3  A    between atoms: C_9  and  C_10
REMARK    4  A    between atoms: C_10  and  N_12
REMARK                            x       y       z     vdW  Elec       q    Type
REMARK                         _______ _______ _______ _____ _____    ______ ____
ROOT
ATOM      1  C   UNL     1      34.296 -16.087 -22.147  0.00  0.00    +0.010 C 
ATOM      2  C   UNL     1      33.807 -15.406 -23.251  0.00  0.00    +0.135 C 
ATOM      3  C   UNL     1      33.931 -15.723 -20.859  0.00  0.00    -0.001 C 
ATOM      4  C   UNL     1      32.932 -14.335 -23.064  0.00  0.00    +0.037 C 
ATOM      5  C   UNL     1      33.057 -14.652 -20.672  0.00  0.00    -0.000 C 
ATOM      6  C   UNL     1      32.557 -13.959 -21.774  0.00  0.00    +0.003 C 
ENDROOT
BRANCH   2   7
ATOM      7  O   UNL     1      34.163 -15.761 -24.517  0.00  0.00    -0.472 OA
ATOM      8  C   UNL     1      33.378 -15.232 -25.584  0.00  0.00    +0.252 C 
ENDBRANCH   2   7
BRANCH   1   9
ATOM      9  C   UNL     1      35.243 -17.248 -22.330  0.00  0.00    +0.008 C 
BRANCH   9  10
ATOM     10  C   UNL     1      35.041 -18.377 -21.301  0.00  0.00    -0.058 C 
ATOM     11  C   UNL     1      36.344 -19.097 -20.958  0.00  0.00    -0.023 C 
BRANCH  10  12
ATOM     12  N   UNL     1      34.097 -19.362 -21.836  0.00  0.00    +0.384 N 
ATOM     13  C   UNL     1      33.197 -19.826 -20.793  0.00  0.00    -0.106 C 
ATOM     14  H   UNL     1      34.616 -20.157 -22.209  0.00  0.00    -0.085 HD
ATOM     15  H   UNL     1      33.546 -18.923 -22.575  0.00  0.00    -0.085 HD
ENDBRANCH  10  12
ENDBRANCH   9  10
ENDBRANCH   1   9
TORSDOF 4
ENDMDL
MODEL 6
REMARK VINA RESULT:      -6.3      3.780      5.544
REMARK  Name = 4117
REMARK  4 active torsions:
REMARK  status: ('A' for Active; 'I' for Inactive)
REMARK    1  A    between atoms: C_1  and  C_9
REMARK    2  A    between atoms: C_2  and  O_7
REMARK    3  A    between atoms: C_9  and  C_10
REMARK    4  A    between atoms: C_10  and  N_12
REMARK                            x       y       z     vdW  Elec       q    Type
REMARK                         _______ _______ _______ _____ _____    ______ ____
ROOT
ATOM      1  C   UNL     1      34.105 -21.654 -19.531  0.00  0.00    +0.010 C 
ATOM      2  C   UNL     1      35.453 -21.334 -19.585  0.00  0.00    +0.135 C 
ATOM      3  C   UNL     1      33.154 -20.870 -20.167  0.00  0.00    -0.001 C 
ATOM      4  C   UNL     1      35.860 -20.201 -20.291  0.00  0.00    +0.037 C 
ATOM      5  C   UNL     1      33.561 -19.738 -20.873  0.00  0.00    -0.000 C 
ATOM      6  C   UNL     1      34.914 -19.404 -20.935  0.00  0.00    +0.003 C 
ENDROOT
BRANCH   2   7
ATOM      7  O   UNL     1      36.389 -22.102 -18.961  0.00  0.00    -0.472 OA
ATOM      8  C   UNL     1      36.800 -21.692 -17.658  0.00  0.00    +0.252 C 
ENDBRANCH   2   7
BRANCH   1   9
ATOM      9  C   UNL     1      33.646 -22.876 -18.772  0.00  0.00    +0.008 C 
BRANCH   9  10
ATOM     10  C   UNL     1      33.024 -22.552 -17.400  0.00  0.00    -0.058 C 
ATOM     11  C   UNL     1      33.585 -23.428 -16.281  0.00  0.00    -0.023 C 
BRANCH  10  12
ATOM     12  N   UNL     1      31.574 -22.753 -17.461  0.00  0.00    +0.384 N 
ATOM     13  C   UNL     1      31.055 -23.135 -16.159  0.00  0.00    -0.106 C 
ATOM     14  H   UNL     1      31.365 -23.490 -18.135  0.00  0.00    -0.085 HD
ATOM     15  H   UNL     1      31.132 -21.879 -17.748  0.00  0.00    -0.085 HD
ENDBRANCH  10  12
ENDBRANCH   9  10
ENDBRANCH   1   9
TORSDOF 4
ENDMDL
MODEL 7
REMARK VINA RESULT:      -6.3      2.898      4.538
REMARK  Name = 4117
REMARK  4 active torsions:
REMARK  status: ('A' for Active; 'I' for Inactive)
REMARK    1  A    between atoms: C_1  and  C_9
REMARK    2  A    between atoms: C_2  and  O_7
REMARK    3  A    between atoms: C_9  and  C_10
REMARK    4  A    between atoms: C_10  and  N_12
REMARK                            x       y       z     vdW  Elec       q    Type
REMARK                         _______ _______ _______ _____ _____    ______ ____
ROOT
ATOM      1  C   UNL     1      34.596 -16.464 -23.616  0.00  0.00    +0.010 C 
ATOM      2  C   UNL     1      34.469 -16.870 -24.935  0.00  0.00    +0.135 C 
ATOM      3  C   UNL     1      34.780 -17.384 -22.595  0.00  0.00    -0.001 C 
ATOM      4  C   UNL     1      34.527 -18.230 -25.242  0.00  0.00    +0.037 C 
ATOM      5  C   UNL     1      34.838 -18.744 -22.902  0.00  0.00    -0.000 C 
ATOM      6  C   UNL     1      34.712 -19.166 -24.225  0.00  0.00    +0.003 C 
ENDROOT
BRANCH   2   7
ATOM      7  O   UNL     1      34.288 -15.968 -25.940  0.00  0.00    -0.472 OA
ATOM      8  C   UNL     1      32.949 -15.559 -26.211  0.00  0.00    +0.252 C 
ENDBRANCH   2   7
BRANCH   1   9
ATOM      9  C   UNL     1      34.535 -14.996 -23.265  0.00  0.00    +0.008 C 
BRANCH   9  10
ATOM     10  C   UNL     1      33.229 -14.584 -22.562  0.00  0.00    -0.058 C 
ATOM     11  C   UNL     1      32.592 -13.344 -23.188  0.00  0.00    -0.023 C 
BRANCH  10  12
ATOM     12  N   UNL     1      33.502 -14.299 -21.150  0.00  0.00    +0.384 N 
ATOM     13  C   UNL     1      32.642 -15.096 -20.291  0.00  0.00    -0.106 C 
ATOM     14  H   UNL     1      33.333 -13.309 -20.969  0.00  0.00    -0.085 HD
ATOM     15  H   UNL     1      34.475 -14.533 -20.950  0.00  0.00    -0.085 HD
ENDBRANCH  10  12
ENDBRANCH   9  10
ENDBRANCH   1   9
TORSDOF 4
ENDMDL
MODEL 8
REMARK VINA RESULT:      -6.2      2.693      5.050
REMARK  Name = 4117
REMARK  4 active torsions:
REMARK  status: ('A' for Active; 'I' for Inactive)
REMARK    1  A    between atoms: C_1  and  C_9
REMARK    2  A    between atoms: C_2  and  O_7
REMARK    3  A    between atoms: C_9  and  C_10
REMARK    4  A    between atoms: C_10  and  N_12
REMARK                            x       y       z     vdW  Elec       q    Type
REMARK                         _______ _______ _______ _____ _____    ______ ____
ROOT
ATOM      1  C   UNL     1      34.852 -16.957 -23.409  0.00  0.00    +0.010 C 
ATOM      2  C   UNL     1      34.866 -16.758 -22.038  0.00  0.00    +0.135 C 
ATOM      3  C   UNL     1      34.856 -18.235 -23.950  0.00  0.00    -0.001 C 
ATOM      4  C   UNL     1      34.886 -17.862 -21.185  0.00  0.00    +0.037 C 
ATOM      5  C   UNL     1      34.876 -19.339 -23.098  0.00  0.00    -0.000 C 
ATOM      6  C   UNL     1      34.891 -19.152 -21.715  0.00  0.00    +0.003 C 
ENDROOT
BRANCH   2   7
ATOM      7  O   UNL     1      34.863 -15.505 -21.504  0.00  0.00    -0.472 OA
ATOM      8  C   UNL     1      33.894 -15.234 -20.493  0.00  0.00    +0.252 C 
ENDBRANCH   2   7
BRANCH   1   9
ATOM      9  C   UNL     1      34.830 -15.775 -24.348  0.00  0.00    +0.008 C 
BRANCH   9  10
ATOM     10  C   UNL     1      33.415 -15.235 -24.628  0.00  0.00    -0.058 C 
ATOM     11  C   UNL     1      33.214 -14.850 -26.093  0.00  0.00    -0.023 C 
BRANCH  10  12
ATOM     12  N   UNL     1      33.172 -14.050 -23.801  0.00  0.00    +0.384 N 
ATOM     13  C   UNL     1      33.646 -12.852 -24.473  0.00  0.00    -0.106 C 
ATOM     14  H   UNL     1      33.664 -14.153 -22.913  0.00  0.00    -0.085 HD
ATOM     15  H   UNL     1      32.168 -13.961 -23.639  0.00  0.00    -0.085 HD
ENDBRANCH  10  12
ENDBRANCH   9  10
ENDBRANCH   1   9
TORSDOF 4
ENDMDL
MODEL 9
REMARK VINA RESULT:      -6.2      7.372      9.645
REMARK  Name = 4117
REMARK  4 active torsions:
REMARK  status: ('A' for Active; 'I' for Inactive)
REMARK    1  A    between atoms: C_1  and  C_9
REMARK    2  A    between atoms: C_2  and  O_7
REMARK    3  A    between atoms: C_9  and  C_10
REMARK    4  A    between atoms: C_10  and  N_12
REMARK                            x       y       z     vdW  Elec       q    Type
REMARK                         _______ _______ _______ _____ _____    ______ ____
ROOT
ATOM      1  C   UNL     1      32.008  -9.831 -21.993  0.00  0.00    +0.010 C 
ATOM      2  C   UNL     1      32.259  -8.940 -20.962  0.00  0.00    +0.135 C 
ATOM      3  C   UNL     1      31.354 -11.033 -21.762  0.00  0.00    -0.001 C 
ATOM      4  C   UNL     1      31.847  -9.258 -19.667  0.00  0.00    +0.037 C 
ATOM      5  C   UNL     1      30.942 -11.350 -20.467  0.00  0.00    -0.000 C 
ATOM      6  C   UNL     1      31.189 -10.462 -19.420  0.00  0.00    +0.003 C 
ENDROOT
BRANCH   2   7
ATOM      7  O   UNL     1      32.901  -7.760 -21.186  0.00  0.00    -0.472 OA
ATOM      8  C   UNL     1      32.118  -6.571 -21.106  0.00  0.00    +0.252 C 
ENDBRANCH   2   7
BRANCH   1   9
ATOM      9  C   UNL     1      32.445  -9.506 -23.401  0.00  0.00    +0.008 C 
BRANCH   9  10
ATOM     10  C   UNL     1      33.842 -10.051 -23.755  0.00  0.00    -0.058 C 
ATOM     11  C   UNL     1      34.809  -8.951 -24.188  0.00  0.00    -0.023 C 
BRANCH  10  12
ATOM     12  N   UNL     1      33.725 -11.020 -24.848  0.00  0.00    +0.384 N 
ATOM     13  C   UNL     1      33.743 -12.379 -24.332  0.00  0.00    -0.106 C 
ATOM     14  H   UNL     1      34.507 -10.895 -25.492  0.00  0.00    -0.085 HD
ATOM     15  H   UNL     1      32.841 -10.864 -25.334  0.00  0.00    -0.085 HD
ENDBRANCH  10  12
ENDBRANCH   9  10
ENDBRANCH   1   9
TORSDOF 4
ENDMDL
