MODEL 1
REMARK VINA RESULT:      -9.0      0.000      0.000
REMARK  Name = 154104
REMARK  2 active torsions:
REMARK  status: ('A' for Active; 'I' for Inactive)
REMARK    1  A    between atoms: N_2  and  C_18
REMARK    2  A    between atoms: C_3  and  C_8
REMARK                            x       y       z     vdW  Elec       q    Type
REMARK                         _______ _______ _______ _____ _____    ______ ____
ROOT
ATOM      1  O   UNL     1      33.741 -24.245 -18.794  0.00  0.00    -0.270 OA
ATOM      2  N   UNL     1      32.781 -22.842 -17.197  0.00  0.00    -0.304 N 
ATOM      3  C   UNL     1      33.421 -23.133 -18.387  0.00  0.00    +0.250 C 
ATOM      4  H   UNL     1      32.579 -21.902 -16.988  0.00  0.00    +0.150 HD
ENDROOT
BRANCH   3   8
ATOM      5  S   UNL     1      36.589 -19.467 -20.783  0.00  0.00    -0.082 S 
ATOM      6  O   UNL     1      36.085 -22.050 -19.070  0.00  0.00    -0.286 OA
ATOM      7  N   UNL     1      32.809 -20.068 -20.443  0.00  0.00    -0.311 N 
ATOM      8  C   UNL     1      33.710 -21.929 -19.188  0.00  0.00    +0.107 C 
ATOM      9  C   UNL     1      35.106 -21.440 -19.490  0.00  0.00    +0.208 C 
ATOM     10  C   UNL     1      32.680 -21.215 -19.679  0.00  0.00    +0.070 C 
ATOM     11  C   UNL     1      35.157 -20.232 -20.296  0.00  0.00    +0.082 C 
ATOM     12  C   UNL     1      34.033 -19.577 -20.750  0.00  0.00    +0.058 C 
ATOM     13  C   UNL     1      34.339 -18.425 -21.513  0.00  0.00    +0.022 C 
ATOM     14  C   UNL     1      35.705 -18.245 -21.612  0.00  0.00    +0.037 C 
ATOM     15  H   UNL     1      32.002 -19.604 -20.765  0.00  0.00    +0.152 HD
ENDBRANCH   3   8
BRANCH   2  18
ATOM     16  N   UNL     1      32.348 -23.843 -13.749  0.00  0.00    +0.388 N 
ATOM     17  C   UNL     1      30.892 -23.782 -15.904  0.00  0.00    +0.012 C 
ATOM     18  C   UNL     1      32.394 -23.857 -16.248  0.00  0.00    +0.051 C 
ATOM     19  C   UNL     1      30.566 -25.020 -15.051  0.00  0.00    -0.021 C 
ATOM     20  C   UNL     1      30.636 -22.546 -15.024  0.00  0.00    -0.021 C 
ATOM     21  C   UNL     1      33.216 -23.770 -14.946  0.00  0.00    -0.057 C 
ATOM     22  C   UNL     1      31.506 -25.056 -13.833  0.00  0.00    -0.077 C 
ATOM     23  C   UNL     1      31.469 -22.653 -13.737  0.00  0.00    -0.077 C 
ATOM     24  H   UNL     1      32.917 -23.875 -12.902  0.00  0.00    -0.080 HD
ENDBRANCH   2  18
TORSDOF 2
ENDMDL
MODEL 2
REMARK VINA RESULT:      -9.0      4.349      6.468
REMARK  Name = 154104
REMARK  2 active torsions:
REMARK  status: ('A' for Active; 'I' for Inactive)
REMARK    1  A    between atoms: N_2  and  C_18
REMARK    2  A    between atoms: C_3  and  C_8
REMARK                            x       y       z     vdW  Elec       q    Type
REMARK                         _______ _______ _______ _____ _____    ______ ____
ROOT
ATOM      1  O   UNL     1      36.050 -22.730 -16.922  0.00  0.00    -0.270 OA
ATOM      2  N   UNL     1      35.786 -24.070 -15.030  0.00  0.00    -0.304 N 
ATOM      3  C   UNL     1      35.348 -23.303 -16.094  0.00  0.00    +0.250 C 
ATOM      4  H   UNL     1      35.117 -24.477 -14.436  0.00  0.00    +0.150 HD
ENDROOT
BRANCH   3   8
ATOM      5  S   UNL     1      30.310 -23.481 -14.146  0.00  0.00    -0.082 S 
ATOM      6  O   UNL     1      33.432 -23.680 -13.876  0.00  0.00    -0.286 OA
ATOM      7  N   UNL     1      31.941 -22.835 -17.565  0.00  0.00    -0.311 N 
ATOM      8  C   UNL     1      33.878 -23.218 -16.168  0.00  0.00    +0.107 C 
ATOM      9  C   UNL     1      32.967 -23.427 -14.983  0.00  0.00    +0.208 C 
ATOM     10  C   UNL     1      33.305 -22.942 -17.354  0.00  0.00    +0.070 C 
ATOM     11  C   UNL     1      31.551 -23.297 -15.286  0.00  0.00    +0.082 C 
ATOM     12  C   UNL     1      31.068 -23.010 -16.543  0.00  0.00    +0.058 C 
ATOM     13  C   UNL     1      29.656 -22.937 -16.587  0.00  0.00    +0.022 C 
ATOM     14  C   UNL     1      29.110 -23.174 -15.340  0.00  0.00    +0.037 C 
ATOM     15  H   UNL     1      31.601 -22.628 -18.466  0.00  0.00    +0.152 HD
ENDBRANCH   3   8
BRANCH   2  18
ATOM     16  N   UNL     1      38.359 -24.951 -12.646  0.00  0.00    +0.388 N 
ATOM     17  C   UNL     1      37.584 -25.769 -14.991  0.00  0.00    +0.012 C 
ATOM     18  C   UNL     1      37.183 -24.299 -14.754  0.00  0.00    +0.051 C 
ATOM     19  C   UNL     1      39.114 -25.843 -14.857  0.00  0.00    -0.021 C 
ATOM     20  C   UNL     1      36.990 -26.642 -13.872  0.00  0.00    -0.021 C 
ATOM     21  C   UNL     1      37.557 -23.899 -13.312  0.00  0.00    -0.057 C 
ATOM     22  C   UNL     1      39.530 -25.274 -13.489  0.00  0.00    -0.077 C 
ATOM     23  C   UNL     1      37.521 -26.163 -12.512  0.00  0.00    -0.077 C 
ATOM     24  H   UNL     1      38.671 -24.629 -11.729  0.00  0.00    -0.080 HD
ENDBRANCH   2  18
TORSDOF 2
ENDMDL
MODEL 3
REMARK VINA RESULT:      -8.9      8.566     12.889
REMARK  Name = 154104
REMARK  2 active torsions:
REMARK  status: ('A' for Active; 'I' for Inactive)
REMARK    1  A    between atoms: N_2  and  C_18
REMARK    2  A    between atoms: C_3  and  C_8
REMARK                            x       y       z     vdW  Elec       q    Type
REMARK                         _______ _______ _______ _____ _____    ______ ____
ROOT
ATOM      1  O   UNL     1      30.476 -11.674 -20.999  0.00  0.00    -0.270 OA
ATOM      2  N   UNL     1      32.178 -10.785 -22.324  0.00  0.00    -0.304 N 
ATOM      3  C   UNL     1      31.536 -11.778 -21.608  0.00  0.00    +0.250 C 
ATOM      4  H   UNL     1      33.028 -10.999 -22.769  0.00  0.00    +0.150 HD
ENDROOT
BRANCH   3   8
ATOM      5  S   UNL     1      34.323 -15.808 -23.889  0.00  0.00    -0.082 S 
ATOM      6  O   UNL     1      32.791 -13.069 -23.952  0.00  0.00    -0.286 OA
ATOM      7  N   UNL     1      33.057 -14.960 -20.361  0.00  0.00    -0.311 N 
ATOM      8  C   UNL     1      32.266 -13.059 -21.630  0.00  0.00    +0.107 C 
ATOM      9  C   UNL     1      32.878 -13.652 -22.876  0.00  0.00    +0.208 C 
ATOM     10  C   UNL     1      32.399 -13.749 -20.482  0.00  0.00    +0.070 C 
ATOM     11  C   UNL     1      33.551 -14.923 -22.667  0.00  0.00    +0.082 C 
ATOM     12  C   UNL     1      33.629 -15.546 -21.441  0.00  0.00    +0.058 C 
ATOM     13  C   UNL     1      34.332 -16.773 -21.491  0.00  0.00    +0.022 C 
ATOM     14  C   UNL     1      34.770 -17.040 -22.774  0.00  0.00    +0.037 C 
ATOM     15  H   UNL     1      33.111 -15.401 -19.482  0.00  0.00    +0.152 HD
ENDBRANCH   3   8
BRANCH   2  18
ATOM     16  N   UNL     1      32.609  -7.236 -21.775  0.00  0.00    +0.388 N 
ATOM     17  C   UNL     1      32.054  -8.792 -23.785  0.00  0.00    +0.012 C 
ATOM     18  C   UNL     1      31.654  -9.447 -22.447  0.00  0.00    +0.051 C 
ATOM     19  C   UNL     1      31.282  -7.465 -23.883  0.00  0.00    -0.021 C 
ATOM     20  C   UNL     1      33.552  -8.442 -23.749  0.00  0.00    -0.021 C 
ATOM     21  C   UNL     1      32.110  -8.541 -21.285  0.00  0.00    -0.057 C 
ATOM     22  C   UNL     1      31.578  -6.615 -22.636  0.00  0.00    -0.077 C 
ATOM     23  C   UNL     1      33.823  -7.475 -22.586  0.00  0.00    -0.077 C 
ATOM     24  H   UNL     1      32.819  -6.621 -20.989  0.00  0.00    -0.080 HD
ENDBRANCH   2  18
TORSDOF 2
ENDMDL
MODEL 4
REMARK VINA RESULT:      -8.9      1.771      2.110
REMARK  Name = 154104
REMARK  2 active torsions:
REMARK  status: ('A' for Active; 'I' for Inactive)
REMARK    1  A    between atoms: N_2  and  C_18
REMARK    2  A    between atoms: C_3  and  C_8
REMARK                            x       y       z     vdW  Elec       q    Type
REMARK                         _______ _______ _______ _____ _____    ______ ____
ROOT
ATOM      1  O   UNL     1      34.924 -24.092 -16.484  0.00  0.00    -0.270 OA
ATOM      2  N   UNL     1      32.837 -23.085 -16.748  0.00  0.00    -0.304 N 
ATOM      3  C   UNL     1      34.186 -23.259 -16.998  0.00  0.00    +0.250 C 
ATOM      4  H   UNL     1      32.356 -22.375 -17.230  0.00  0.00    +0.150 HD
ENDROOT
BRANCH   3   8
ATOM      5  S   UNL     1      33.885 -19.941 -21.255  0.00  0.00    -0.082 S 
ATOM      6  O   UNL     1      32.670 -21.957 -19.177  0.00  0.00    -0.286 OA
ATOM      7  N   UNL     1      36.627 -21.086 -18.818  0.00  0.00    -0.311 N 
ATOM      8  C   UNL     1      34.707 -22.306 -17.996  0.00  0.00    +0.107 C 
ATOM      9  C   UNL     1      33.863 -21.685 -19.082  0.00  0.00    +0.208 C 
ATOM     10  C   UNL     1      36.009 -21.965 -17.946  0.00  0.00    +0.070 C 
ATOM     11  C   UNL     1      34.585 -20.775 -19.955  0.00  0.00    +0.082 C 
ATOM     12  C   UNL     1      35.926 -20.494 -19.815  0.00  0.00    +0.058 C 
ATOM     13  C   UNL     1      36.401 -19.580 -20.785  0.00  0.00    +0.022 C 
ATOM     14  C   UNL     1      35.387 -19.194 -21.639  0.00  0.00    +0.037 C 
ATOM     15  H   UNL     1      37.586 -20.889 -18.713  0.00  0.00    +0.152 HD
ENDBRANCH   3   8
BRANCH   2  18
ATOM     16  N   UNL     1      30.658 -23.280 -13.869  0.00  0.00    +0.388 N 
ATOM     17  C   UNL     1      30.672 -24.197 -16.303  0.00  0.00    +0.012 C 
ATOM     18  C   UNL     1      32.104 -23.900 -15.812  0.00  0.00    +0.051 C 
ATOM     19  C   UNL     1      30.068 -25.223 -15.328  0.00  0.00    -0.021 C 
ATOM     20  C   UNL     1      29.825 -22.918 -16.195  0.00  0.00    -0.021 C 
ATOM     21  C   UNL     1      32.034 -23.249 -14.415  0.00  0.00    -0.057 C 
ATOM     22  C   UNL     1      30.156 -24.671 -13.895  0.00  0.00    -0.077 C 
ATOM     23  C   UNL     1      29.794 -22.446 -14.733  0.00  0.00    -0.077 C 
ATOM     24  H   UNL     1      30.651 -22.928 -12.910  0.00  0.00    -0.080 HD
ENDBRANCH   2  18
TORSDOF 2
ENDMDL
MODEL 5
REMARK VINA RESULT:      -8.9      3.311      4.282
REMARK  Name = 154104
REMARK  2 active torsions:
REMARK  status: ('A' for Active; 'I' for Inactive)
REMARK    1  A    between atoms: N_2  and  C_18
REMARK    2  A    between atoms: C_3  and  C_8
REMARK                            x       y       z     vdW  Elec       q    Type
REMARK                         _______ _______ _______ _____ _____    ______ ____
ROOT
ATOM      1  O   UNL     1      33.299 -23.804 -15.100  0.00  0.00    -0.270 OA
ATOM      2  N   UNL     1      35.472 -24.349 -15.753  0.00  0.00    -0.304 N 
ATOM      3  C   UNL     1      34.240 -23.735 -15.884  0.00  0.00    +0.250 C 
ATOM      4  H   UNL     1      36.143 -24.211 -16.458  0.00  0.00    +0.150 HD
ENDROOT
BRANCH   3   8
ATOM      5  S   UNL     1      36.095 -20.731 -19.976  0.00  0.00    -0.082 S 
ATOM      6  O   UNL     1      36.442 -22.418 -17.351  0.00  0.00    -0.286 OA
ATOM      7  N   UNL     1      32.670 -22.035 -18.824  0.00  0.00    -0.311 N 
ATOM      8  C   UNL     1      34.130 -22.936 -17.119  0.00  0.00    +0.107 C 
ATOM      9  C   UNL     1      35.309 -22.293 -17.807  0.00  0.00    +0.208 C 
ATOM     10  C   UNL     1      32.915 -22.761 -17.671  0.00  0.00    +0.070 C 
ATOM     11  C   UNL     1      34.970 -21.550 -19.009  0.00  0.00    +0.082 C 
ATOM     12  C   UNL     1      33.685 -21.434 -19.490  0.00  0.00    +0.058 C 
ATOM     13  C   UNL     1      33.607 -20.661 -20.673  0.00  0.00    +0.022 C 
ATOM     14  C   UNL     1      34.857 -20.212 -21.053  0.00  0.00    +0.037 C 
ATOM     15  H   UNL     1      31.749 -21.956 -19.164  0.00  0.00    +0.152 HD
ENDBRANCH   3   8
BRANCH   2  18
ATOM     16  N   UNL     1      37.932 -26.377 -14.047  0.00  0.00    +0.388 N 
ATOM     17  C   UNL     1      36.398 -24.359 -13.459  0.00  0.00    +0.012 C 
ATOM     18  C   UNL     1      35.815 -25.181 -14.627  0.00  0.00    +0.051 C 
ATOM     19  C   UNL     1      36.536 -25.317 -12.263  0.00  0.00    -0.021 C 
ATOM     20  C   UNL     1      37.816 -23.891 -13.829  0.00  0.00    -0.021 C 
ATOM     21  C   UNL     1      36.814 -26.289 -15.014  0.00  0.00    -0.057 C 
ATOM     22  C   UNL     1      37.383 -26.531 -12.682  0.00  0.00    -0.077 C 
ATOM     23  C   UNL     1      38.703 -25.115 -14.109  0.00  0.00    -0.077 C 
ATOM     24  H   UNL     1      38.531 -27.172 -14.271  0.00  0.00    -0.080 HD
ENDBRANCH   2  18
TORSDOF 2
ENDMDL
MODEL 6
REMARK VINA RESULT:      -8.8      8.665     12.759
REMARK  Name = 154104
REMARK  2 active torsions:
REMARK  status: ('A' for Active; 'I' for Inactive)
REMARK    1  A    between atoms: N_2  and  C_18
REMARK    2  A    between atoms: C_3  and  C_8
REMARK                            x       y       z     vdW  Elec       q    Type
REMARK                         _______ _______ _______ _____ _____    ______ ____
ROOT
ATOM      1  O   UNL     1      30.971 -12.087 -21.274  0.00  0.00    -0.270 OA
ATOM      2  N   UNL     1      32.299 -10.846 -22.736  0.00  0.00    -0.304 N 
ATOM      3  C   UNL     1      31.875 -11.997 -22.099  0.00  0.00    +0.250 C 
ATOM      4  H   UNL     1      33.039 -10.910 -23.381  0.00  0.00    +0.150 HD
ENDROOT
BRANCH   3   8
ATOM      5  S   UNL     1      34.525 -16.645 -21.329  0.00  0.00    -0.082 S 
ATOM      6  O   UNL     1      32.904 -14.142 -20.345  0.00  0.00    -0.286 OA
ATOM      7  N   UNL     1      33.624 -14.431 -24.338  0.00  0.00    -0.311 N 
ATOM      8  C   UNL     1      32.637 -13.190 -22.511  0.00  0.00    +0.107 C 
ATOM      9  C   UNL     1      33.130 -14.243 -21.547  0.00  0.00    +0.208 C 
ATOM     10  C   UNL     1      32.918 -13.361 -23.816  0.00  0.00    +0.070 C 
ATOM     11  C   UNL     1      33.861 -15.332 -22.172  0.00  0.00    +0.082 C 
ATOM     12  C   UNL     1      34.094 -15.409 -23.527  0.00  0.00    +0.058 C 
ATOM     13  C   UNL     1      34.828 -16.562 -23.895  0.00  0.00    +0.022 C 
ATOM     14  C   UNL     1      35.131 -17.329 -22.787  0.00  0.00    +0.037 C 
ATOM     15  H   UNL     1      33.787 -14.481 -25.308  0.00  0.00    +0.152 HD
ENDBRANCH   3   8
BRANCH   2  18
ATOM     16  N   UNL     1      32.639  -7.472 -21.480  0.00  0.00    +0.388 N 
ATOM     17  C   UNL     1      31.887  -8.604 -23.698  0.00  0.00    +0.012 C 
ATOM     18  C   UNL     1      31.703  -9.555 -22.498  0.00  0.00    +0.051 C 
ATOM     19  C   UNL     1      31.049  -7.347 -23.407  0.00  0.00    -0.021 C 
ATOM     20  C   UNL     1      33.358  -8.160 -23.771  0.00  0.00    -0.021 C 
ATOM     21  C   UNL     1      32.272  -8.884 -21.231  0.00  0.00    -0.057 C 
ATOM     22  C   UNL     1      31.474  -6.761 -22.049  0.00  0.00    -0.077 C 
ATOM     23  C   UNL     1      33.741  -7.443 -22.466  0.00  0.00    -0.077 C 
ATOM     24  H   UNL     1      32.926  -7.023 -20.610  0.00  0.00    -0.080 HD
ENDBRANCH   2  18
TORSDOF 2
ENDMDL
MODEL 7
REMARK VINA RESULT:      -8.8      5.066      7.146
REMARK  Name = 154104
REMARK  2 active torsions:
REMARK  status: ('A' for Active; 'I' for Inactive)
REMARK    1  A    between atoms: N_2  and  C_18
REMARK    2  A    between atoms: C_3  and  C_8
REMARK                            x       y       z     vdW  Elec       q    Type
REMARK                         _______ _______ _______ _____ _____    ______ ____
ROOT
ATOM      1  O   UNL     1      34.260 -23.961 -12.475  0.00  0.00    -0.270 OA
ATOM      2  N   UNL     1      35.113 -24.991 -14.387  0.00  0.00    -0.304 N 
ATOM      3  C   UNL     1      34.157 -24.324 -13.642  0.00  0.00    +0.250 C 
ATOM      4  H   UNL     1      34.903 -25.227 -15.318  0.00  0.00    +0.150 HD
ENDROOT
BRANCH   3   8
ATOM      5  S   UNL     1      28.892 -24.780 -14.776  0.00  0.00    -0.082 S 
ATOM      6  O   UNL     1      31.461 -25.399 -13.081  0.00  0.00    -0.286 OA
ATOM      7  N   UNL     1      31.903 -22.928 -16.281  0.00  0.00    -0.311 N 
ATOM      8  C   UNL     1      32.921 -24.064 -14.404  0.00  0.00    +0.107 C 
ATOM      9  C   UNL     1      31.579 -24.656 -14.050  0.00  0.00    +0.208 C 
ATOM     10  C   UNL     1      32.982 -23.255 -15.479  0.00  0.00    +0.070 C 
ATOM     11  C   UNL     1      30.498 -24.264 -14.939  0.00  0.00    +0.082 C 
ATOM     12  C   UNL     1      30.671 -23.425 -16.018  0.00  0.00    +0.058 C 
ATOM     13  C   UNL     1      29.471 -23.193 -16.732  0.00  0.00    +0.022 C 
ATOM     14  C   UNL     1      28.415 -23.875 -16.160  0.00  0.00    +0.037 C 
ATOM     15  H   UNL     1      32.032 -22.327 -17.051  0.00  0.00    +0.152 HD
ENDBRANCH   3   8
BRANCH   2  18
ATOM     16  N   UNL     1      38.635 -25.571 -14.962  0.00  0.00    +0.388 N 
ATOM     17  C   UNL     1      37.188 -24.125 -13.355  0.00  0.00    +0.012 C 
ATOM     18  C   UNL     1      36.403 -25.354 -13.857  0.00  0.00    +0.051 C 
ATOM     19  C   UNL     1      38.444 -24.655 -12.643  0.00  0.00    -0.021 C 
ATOM     20  C   UNL     1      37.668 -23.304 -14.565  0.00  0.00    -0.021 C 
ATOM     21  C   UNL     1      37.258 -26.111 -14.894  0.00  0.00    -0.057 C 
ATOM     22  C   UNL     1      39.223 -25.569 -13.605  0.00  0.00    -0.077 C 
ATOM     23  C   UNL     1      38.567 -24.177 -15.453  0.00  0.00    -0.077 C 
ATOM     24  H   UNL     1      39.207 -26.142 -15.585  0.00  0.00    -0.080 HD
ENDBRANCH   2  18
TORSDOF 2
ENDMDL
MODEL 8
REMARK VINA RESULT:      -8.5      2.665      7.188
REMARK  Name = 154104
REMARK  2 active torsions:
REMARK  status: ('A' for Active; 'I' for Inactive)
REMARK    1  A    between atoms: N_2  and  C_18
REMARK    2  A    between atoms: C_3  and  C_8
REMARK                            x       y       z     vdW  Elec       q    Type
REMARK                         _______ _______ _______ _____ _____    ______ ____
ROOT
ATOM      1  O   UNL     1      32.740 -22.127 -20.205  0.00  0.00    -0.270 OA
ATOM      2  N   UNL     1      34.468 -20.568 -20.048  0.00  0.00    -0.304 N 
ATOM      3  C   UNL     1      33.711 -21.647 -19.630  0.00  0.00    +0.250 C 
ATOM      4  H   UNL     1      35.226 -20.282 -19.492  0.00  0.00    +0.150 HD
ENDROOT
BRANCH   3   8
ATOM      5  S   UNL     1      37.362 -22.752 -15.800  0.00  0.00    -0.082 S 
ATOM      6  O   UNL     1      36.449 -21.489 -18.526  0.00  0.00    -0.286 OA
ATOM      7  N   UNL     1      33.633 -23.482 -16.371  0.00  0.00    -0.311 N 
ATOM      8  C   UNL     1      34.189 -22.220 -18.358  0.00  0.00    +0.107 C 
ATOM      9  C   UNL     1      35.610 -22.095 -17.865  0.00  0.00    +0.208 C 
ATOM     10  C   UNL     1      33.318 -22.895 -17.584  0.00  0.00    +0.070 C 
ATOM     11  C   UNL     1      35.859 -22.736 -16.585  0.00  0.00    +0.082 C 
ATOM     12  C   UNL     1      34.890 -23.407 -15.872  0.00  0.00    +0.058 C 
ATOM     13  C   UNL     1      35.375 -23.947 -14.658  0.00  0.00    +0.022 C 
ATOM     14  C   UNL     1      36.716 -23.662 -14.490  0.00  0.00    +0.037 C 
ATOM     15  H   UNL     1      32.935 -23.959 -15.865  0.00  0.00    +0.152 HD
ENDBRANCH   3   8
BRANCH   2  18
ATOM     16  N   UNL     1      34.145 -17.393 -21.748  0.00  0.00    +0.388 N 
ATOM     17  C   UNL     1      35.473 -19.604 -22.093  0.00  0.00    +0.012 C 
ATOM     18  C   UNL     1      34.194 -19.845 -21.265  0.00  0.00    +0.051 C 
ATOM     19  C   UNL     1      35.029 -19.009 -23.440  0.00  0.00    -0.021 C 
ATOM     20  C   UNL     1      36.335 -18.539 -21.392  0.00  0.00    -0.021 C 
ATOM     21  C   UNL     1      33.508 -18.492 -20.988  0.00  0.00    -0.057 C 
ATOM     22  C   UNL     1      34.180 -17.752 -23.183  0.00  0.00    -0.077 C 
ATOM     23  C   UNL     1      35.534 -17.234 -21.264  0.00  0.00    -0.077 C 
ATOM     24  H   UNL     1      33.621 -16.526 -21.621  0.00  0.00    -0.080 HD
ENDBRANCH   2  18
TORSDOF 2
ENDMDL
MODEL 9
REMARK VINA RESULT:      -8.4      3.232      4.261
REMARK  Name = 154104
REMARK  2 active torsions:
REMARK  status: ('A' for Active; 'I' for Inactive)
REMARK    1  A    between atoms: N_2  and  C_18
REMARK    2  A    between atoms: C_3  and  C_8
REMARK                            x       y       z     vdW  Elec       q    Type
REMARK                         _______ _______ _______ _____ _____    ______ ____
ROOT
ATOM      1  O   UNL     1      33.767 -23.913 -16.712  0.00  0.00    -0.270 OA
ATOM      2  N   UNL     1      35.808 -23.086 -15.943  0.00  0.00    -0.304 N 
ATOM      3  C   UNL     1      34.742 -23.177 -16.819  0.00  0.00    +0.250 C 
ATOM      4  H   UNL     1      36.532 -22.452 -16.146  0.00  0.00    +0.150 HD
ENDROOT
BRANCH   3   8
ATOM      5  S   UNL     1      32.946 -20.201 -20.958  0.00  0.00    -0.082 S 
ATOM      6  O   UNL     1      32.559 -22.146 -18.524  0.00  0.00    -0.286 OA
ATOM      7  N   UNL     1      36.359 -20.969 -19.370  0.00  0.00    -0.311 N 
ATOM      8  C   UNL     1      34.871 -22.263 -17.969  0.00  0.00    +0.107 C 
ATOM      9  C   UNL     1      33.700 -21.783 -18.792  0.00  0.00    +0.208 C 
ATOM     10  C   UNL     1      36.096 -21.826 -18.315  0.00  0.00    +0.070 C 
ATOM     11  C   UNL     1      34.058 -20.888 -19.879  0.00  0.00    +0.082 C 
ATOM     12  C   UNL     1      35.353 -20.502 -20.147  0.00  0.00    +0.058 C 
ATOM     13  C   UNL     1      35.448 -19.627 -21.256  0.00  0.00    +0.022 C 
ATOM     14  C   UNL     1      34.202 -19.377 -21.796  0.00  0.00    +0.037 C 
ATOM     15  H   UNL     1      37.287 -20.696 -19.557  0.00  0.00    +0.152 HD
ENDBRANCH   3   8
BRANCH   2  18
ATOM     16  N   UNL     1      36.765 -26.198 -14.369  0.00  0.00    +0.388 N 
ATOM     17  C   UNL     1      37.248 -23.666 -14.016  0.00  0.00    +0.012 C 
ATOM     18  C   UNL     1      35.905 -23.881 -14.744  0.00  0.00    +0.051 C 
ATOM     19  C   UNL     1      37.151 -24.404 -12.670  0.00  0.00    -0.021 C 
ATOM     20  C   UNL     1      38.372 -24.341 -14.821  0.00  0.00    -0.021 C 
ATOM     21  C   UNL     1      35.722 -25.384 -15.034  0.00  0.00    -0.057 C 
ATOM     22  C   UNL     1      36.785 -25.876 -12.925  0.00  0.00    -0.077 C 
ATOM     23  C   UNL     1      38.077 -25.843 -14.953  0.00  0.00    -0.077 C 
ATOM     24  H   UNL     1      36.573 -27.192 -14.498  0.00  0.00    -0.080 HD
ENDBRANCH   2  18
TORSDOF 2
ENDMDL
