MODEL 1
REMARK VINA RESULT:      -9.2      0.000      0.000
REMARK  Name = 657007
REMARK  11 active torsions:
REMARK  status: ('A' for Active; 'I' for Inactive)
REMARK    1  A    between atoms: C_2  and  C_10
REMARK    2  A    between atoms: C_5  and  O_19
REMARK    3  A    between atoms: N_9  and  C_11
REMARK    4  A    between atoms: N_9  and  C_16
REMARK    5  A    between atoms: C_16  and  C_17
REMARK    6  A    between atoms: O_19  and  C_20
REMARK    7  A    between atoms: C_20  and  C_21
REMARK    8  A    between atoms: C_21  and  C_22
REMARK    9  A    between atoms: C_22  and  O_23
REMARK   10  A    between atoms: O_23  and  N_24
REMARK   11  A    between atoms: N_24  and  C_27
REMARK                            x       y       z     vdW  Elec       q    Type
REMARK                         _______ _______ _______ _____ _____    ______ ____
ROOT
ATOM      1 CL   UNL     1      30.654 -23.560 -13.841  0.00  0.00    -0.082 Cl
ATOM      2  C   UNL     1      34.164 -23.912 -15.701  0.00  0.00    +0.057 C 
ATOM      3  C   UNL     1      33.916 -23.366 -16.951  0.00  0.00    +0.041 C 
ATOM      4  C   UNL     1      33.172 -23.978 -14.735  0.00  0.00    +0.016 C 
ATOM      5  C   UNL     1      32.644 -22.874 -17.242  0.00  0.00    +0.140 C 
ATOM      6  C   UNL     1      31.900 -23.487 -15.027  0.00  0.00    +0.061 C 
ATOM      7  C   UNL     1      31.636 -22.934 -16.281  0.00  0.00    +0.048 C 
ENDROOT
BRANCH   2  10
ATOM      8  O   UNL     1      35.670 -25.642 -15.548  0.00  0.00    -0.270 OA
ATOM      9  N   UNL     1      36.492 -23.539 -14.939  0.00  0.00    -0.274 N 
ATOM     10  C   UNL     1      35.506 -24.432 -15.394  0.00  0.00    +0.249 C 
BRANCH   9  11
ATOM     11  C   UNL     1      37.512 -23.998 -14.041  0.00  0.00    +0.076 C 
ATOM     12  C   UNL     1      38.524 -24.913 -14.716  0.00  0.00    +0.020 C 
ATOM     13  C   UNL     1      36.962 -24.855 -12.905  0.00  0.00    +0.020 C 
ATOM     14  C   UNL     1      39.212 -25.584 -13.537  0.00  0.00    +0.002 C 
ATOM     15  C   UNL     1      38.109 -25.783 -12.499  0.00  0.00    +0.002 C 
ENDBRANCH   9  11
BRANCH   9  16
ATOM     16  C   UNL     1      36.558 -22.125 -15.326  0.00  0.00    +0.120 C 
BRANCH  16  17
ATOM     17  C   UNL     1      37.365 -21.998 -16.575  0.00  0.00    -0.005 C 
ATOM     18  C   UNL     1      36.892 -21.497 -17.721  0.00  0.00    -0.003 C 
ENDBRANCH  16  17
ENDBRANCH   9  16
ENDBRANCH   2  10
BRANCH   5  19
ATOM     19  O   UNL     1      32.386 -22.336 -18.466  0.00  0.00    -0.475 OA
BRANCH  19  20
ATOM     20  C   UNL     1      33.509 -22.037 -19.294  0.00  0.00    +0.208 C 
BRANCH  20  21
ATOM     21  C   UNL     1      33.302 -20.672 -19.929  0.00  0.00    +0.082 C 
BRANCH  21  22
ATOM     22  C   UNL     1      34.568 -20.151 -20.590  0.00  0.00    +0.180 C 
BRANCH  22  23
ATOM     23  O   UNL     1      34.301 -18.913 -21.236  0.00  0.00    -0.234 OA
BRANCH  23  24
ATOM     24  N   UNL     1      35.238 -17.975 -20.780  0.00  0.00    -0.096 NA
BRANCH  24  27
ATOM     25  N   UNL     1      34.610 -15.674 -20.566  0.00  0.00    -0.368 N 
ATOM     26  N   UNL     1      35.030 -16.565 -22.629  0.00  0.00    -0.368 N 
ATOM     27  C   UNL     1      34.971 -16.796 -21.276  0.00  0.00    +0.217 C 
ATOM     28  H   UNL     1      34.534 -15.716 -19.586  0.00  0.00    +0.159 HD
ATOM     29  H   UNL     1      34.429 -14.830 -21.038  0.00  0.00    +0.159 HD
ATOM     30  H   UNL     1      35.279 -17.293 -23.242  0.00  0.00    +0.159 HD
ATOM     31  H   UNL     1      34.826 -15.669 -22.984  0.00  0.00    +0.159 HD
ENDBRANCH  24  27
ENDBRANCH  23  24
ENDBRANCH  22  23
ENDBRANCH  21  22
ENDBRANCH  20  21
ENDBRANCH  19  20
ENDBRANCH   5  19
TORSDOF 11
ENDMDL
MODEL 2
REMARK VINA RESULT:      -8.7      7.595     11.787
REMARK  Name = 657007
REMARK  11 active torsions:
REMARK  status: ('A' for Active; 'I' for Inactive)
REMARK    1  A    between atoms: C_2  and  C_10
REMARK    2  A    between atoms: C_5  and  O_19
REMARK    3  A    between atoms: N_9  and  C_11
REMARK    4  A    between atoms: N_9  and  C_16
REMARK    5  A    between atoms: C_16  and  C_17
REMARK    6  A    between atoms: O_19  and  C_20
REMARK    7  A    between atoms: C_20  and  C_21
REMARK    8  A    between atoms: C_21  and  C_22
REMARK    9  A    between atoms: C_22  and  O_23
REMARK   10  A    between atoms: O_23  and  N_24
REMARK   11  A    between atoms: N_24  and  C_27
REMARK                            x       y       z     vdW  Elec       q    Type
REMARK                         _______ _______ _______ _____ _____    ______ ____
ROOT
ATOM      1 CL   UNL     1      33.114 -13.575 -27.550  0.00  0.00    -0.082 Cl
ATOM      2  C   UNL     1      33.597 -14.283 -23.656  0.00  0.00    +0.057 C 
ATOM      3  C   UNL     1      33.837 -13.021 -23.133  0.00  0.00    +0.041 C 
ATOM      4  C   UNL     1      33.373 -14.468 -25.011  0.00  0.00    +0.016 C 
ATOM      5  C   UNL     1      33.853 -11.919 -23.985  0.00  0.00    +0.140 C 
ATOM      6  C   UNL     1      33.390 -13.365 -25.864  0.00  0.00    +0.061 C 
ATOM      7  C   UNL     1      33.630 -12.090 -25.351  0.00  0.00    +0.048 C 
ENDROOT
BRANCH   2  10
ATOM      8  O   UNL     1      32.746 -15.423 -21.850  0.00  0.00    -0.270 OA
ATOM      9  N   UNL     1      34.508 -16.481 -22.966  0.00  0.00    -0.274 N 
ATOM     10  C   UNL     1      33.581 -15.446 -22.755  0.00  0.00    +0.249 C 
BRANCH   9  11
ATOM     11  C   UNL     1      34.993 -17.245 -21.853  0.00  0.00    +0.076 C 
ATOM     12  C   UNL     1      36.282 -17.992 -22.167  0.00  0.00    +0.020 C 
ATOM     13  C   UNL     1      34.035 -18.356 -21.433  0.00  0.00    +0.020 C 
ATOM     14  C   UNL     1      36.359 -19.018 -21.047  0.00  0.00    +0.002 C 
ATOM     15  C   UNL     1      34.912 -19.435 -20.795  0.00  0.00    +0.002 C 
ENDBRANCH   9  11
BRANCH   9  16
ATOM     16  C   UNL     1      35.035 -16.853 -24.284  0.00  0.00    +0.120 C 
BRANCH  16  17
ATOM     17  C   UNL     1      34.103 -17.827 -24.926  0.00  0.00    -0.005 C 
ATOM     18  C   UNL     1      34.357 -19.134 -25.045  0.00  0.00    -0.003 C 
ENDBRANCH  16  17
ENDBRANCH   9  16
ENDBRANCH   2  10
BRANCH   5  19
ATOM     19  O   UNL     1      34.089 -10.675 -23.485  0.00  0.00    -0.475 OA
BRANCH  19  20
ATOM     20  C   UNL     1      34.836  -9.776 -24.305  0.00  0.00    +0.208 C 
BRANCH  20  21
ATOM     21  C   UNL     1      34.528  -8.351 -23.879  0.00  0.00    +0.082 C 
BRANCH  21  22
ATOM     22  C   UNL     1      33.065  -8.171 -23.504  0.00  0.00    +0.180 C 
BRANCH  22  23
ATOM     23  O   UNL     1      32.965  -7.683 -22.173  0.00  0.00    -0.234 OA
BRANCH  23  24
ATOM     24  N   UNL     1      32.096  -8.526 -21.466  0.00  0.00    -0.096 NA
BRANCH  24  27
ATOM     25  N   UNL     1      32.190  -9.536 -19.296  0.00  0.00    -0.368 N 
ATOM     26  N   UNL     1      32.963  -7.407 -19.609  0.00  0.00    -0.368 N 
ATOM     27  C   UNL     1      32.392  -8.512 -20.194  0.00  0.00    +0.217 C 
ATOM     28  H   UNL     1      31.786 -10.381 -19.598  0.00  0.00    +0.159 HD
ATOM     29  H   UNL     1      32.450  -9.423 -18.354  0.00  0.00    +0.159 HD
ATOM     30  H   UNL     1      33.157  -6.609 -20.151  0.00  0.00    +0.159 HD
ATOM     31  H   UNL     1      33.179  -7.415 -18.648  0.00  0.00    +0.159 HD
ENDBRANCH  24  27
ENDBRANCH  23  24
ENDBRANCH  22  23
ENDBRANCH  21  22
ENDBRANCH  20  21
ENDBRANCH  19  20
ENDBRANCH   5  19
TORSDOF 11
ENDMDL
MODEL 3
REMARK VINA RESULT:      -8.6      4.626     11.057
REMARK  Name = 657007
REMARK  11 active torsions:
REMARK  status: ('A' for Active; 'I' for Inactive)
REMARK    1  A    between atoms: C_2  and  C_10
REMARK    2  A    between atoms: C_5  and  O_19
REMARK    3  A    between atoms: N_9  and  C_11
REMARK    4  A    between atoms: N_9  and  C_16
REMARK    5  A    between atoms: C_16  and  C_17
REMARK    6  A    between atoms: O_19  and  C_20
REMARK    7  A    between atoms: C_20  and  C_21
REMARK    8  A    between atoms: C_21  and  C_22
REMARK    9  A    between atoms: C_22  and  O_23
REMARK   10  A    between atoms: O_23  and  N_24
REMARK   11  A    between atoms: N_24  and  C_27
REMARK                            x       y       z     vdW  Elec       q    Type
REMARK                         _______ _______ _______ _____ _____    ______ ____
ROOT
ATOM      1 CL   UNL     1      34.655 -19.742 -25.375  0.00  0.00    -0.082 Cl
ATOM      2  C   UNL     1      34.643 -16.616 -22.899  0.00  0.00    +0.057 C 
ATOM      3  C   UNL     1      34.920 -17.187 -21.667  0.00  0.00    +0.041 C 
ATOM      4  C   UNL     1      34.559 -17.389 -24.047  0.00  0.00    +0.016 C 
ATOM      5  C   UNL     1      35.118 -18.565 -21.580  0.00  0.00    +0.140 C 
ATOM      6  C   UNL     1      34.756 -18.766 -23.960  0.00  0.00    +0.061 C 
ATOM      7  C   UNL     1      35.036 -19.355 -22.727  0.00  0.00    +0.048 C 
ENDROOT
BRANCH   2  10
ATOM      8  O   UNL     1      34.961 -14.480 -22.111  0.00  0.00    -0.270 OA
ATOM      9  N   UNL     1      33.649 -14.653 -24.039  0.00  0.00    -0.274 N 
ATOM     10  C   UNL     1      34.434 -15.162 -22.990  0.00  0.00    +0.249 C 
BRANCH   9  11
ATOM     11  C   UNL     1      32.884 -13.456 -23.844  0.00  0.00    +0.076 C 
ATOM     12  C   UNL     1      33.747 -12.202 -23.815  0.00  0.00    +0.020 C 
ATOM     13  C   UNL     1      32.167 -13.422 -22.497  0.00  0.00    +0.020 C 
ATOM     14  C   UNL     1      32.821 -11.168 -23.193  0.00  0.00    +0.002 C 
ATOM     15  C   UNL     1      32.014 -11.940 -22.151  0.00  0.00    +0.002 C 
ENDBRANCH   9  11
BRANCH   9  16
ATOM     16  C   UNL     1      33.550 -15.275 -25.364  0.00  0.00    +0.120 C 
BRANCH  16  17
ATOM     17  C   UNL     1      32.781 -14.373 -26.271  0.00  0.00    -0.005 C 
ATOM     18  C   UNL     1      33.331 -13.673 -27.269  0.00  0.00    -0.003 C 
ENDBRANCH  16  17
ENDBRANCH   9  16
ENDBRANCH   2  10
BRANCH   5  19
ATOM     19  O   UNL     1      35.390 -19.139 -20.377  0.00  0.00    -0.475 OA
BRANCH  19  20
ATOM     20  C   UNL     1      36.679 -19.730 -20.215  0.00  0.00    +0.208 C 
BRANCH  20  21
ATOM     21  C   UNL     1      36.513 -21.229 -20.027  0.00  0.00    +0.082 C 
BRANCH  21  22
ATOM     22  C   UNL     1      36.688 -21.645 -18.576  0.00  0.00    +0.180 C 
BRANCH  22  23
ATOM     23  O   UNL     1      35.469 -22.178 -18.076  0.00  0.00    -0.234 OA
BRANCH  23  24
ATOM     24  N   UNL     1      34.683 -22.564 -19.170  0.00  0.00    -0.096 NA
BRANCH  24  27
ATOM     25  N   UNL     1      32.956 -21.008 -19.749  0.00  0.00    -0.368 N 
ATOM     26  N   UNL     1      32.574 -22.615 -18.169  0.00  0.00    -0.368 N 
ATOM     27  C   UNL     1      33.477 -22.075 -19.052  0.00  0.00    +0.217 C 
ATOM     28  H   UNL     1      33.510 -20.537 -20.412  0.00  0.00    +0.159 HD
ATOM     29  H   UNL     1      32.031 -20.717 -19.584  0.00  0.00    +0.159 HD
ATOM     30  H   UNL     1      32.831 -23.385 -17.612  0.00  0.00    +0.159 HD
ATOM     31  H   UNL     1      31.670 -22.233 -18.094  0.00  0.00    +0.159 HD
ENDBRANCH  24  27
ENDBRANCH  23  24
ENDBRANCH  22  23
ENDBRANCH  21  22
ENDBRANCH  20  21
ENDBRANCH  19  20
ENDBRANCH   5  19
TORSDOF 11
ENDMDL
MODEL 4
REMARK VINA RESULT:      -8.6      6.994     13.124
REMARK  Name = 657007
REMARK  11 active torsions:
REMARK  status: ('A' for Active; 'I' for Inactive)
REMARK    1  A    between atoms: C_2  and  C_10
REMARK    2  A    between atoms: C_5  and  O_19
REMARK    3  A    between atoms: N_9  and  C_11
REMARK    4  A    between atoms: N_9  and  C_16
REMARK    5  A    between atoms: C_16  and  C_17
REMARK    6  A    between atoms: O_19  and  C_20
REMARK    7  A    between atoms: C_20  and  C_21
REMARK    8  A    between atoms: C_21  and  C_22
REMARK    9  A    between atoms: C_22  and  O_23
REMARK   10  A    between atoms: O_23  and  N_24
REMARK   11  A    between atoms: N_24  and  C_27
REMARK                            x       y       z     vdW  Elec       q    Type
REMARK                         _______ _______ _______ _____ _____    ______ ____
ROOT
ATOM      1 CL   UNL     1      33.031 -14.960 -20.288  0.00  0.00    -0.082 Cl
ATOM      2  C   UNL     1      33.307 -12.705 -23.565  0.00  0.00    +0.057 C 
ATOM      3  C   UNL     1      33.495 -13.637 -24.575  0.00  0.00    +0.041 C 
ATOM      4  C   UNL     1      33.162 -13.098 -22.243  0.00  0.00    +0.016 C 
ATOM      5  C   UNL     1      33.540 -14.993 -24.255  0.00  0.00    +0.140 C 
ATOM      6  C   UNL     1      33.208 -14.454 -21.923  0.00  0.00    +0.061 C 
ATOM      7  C   UNL     1      33.397 -15.402 -22.930  0.00  0.00    +0.048 C 
ENDROOT
BRANCH   2  10
ATOM      8  O   UNL     1      33.844 -10.938 -24.933  0.00  0.00    -0.270 OA
ATOM      9  N   UNL     1      32.581 -10.395 -23.041  0.00  0.00    -0.274 N 
ATOM     10  C   UNL     1      33.259 -11.274 -23.903  0.00  0.00    +0.249 C 
BRANCH   9  11
ATOM     11  C   UNL     1      33.020  -9.035 -22.916  0.00  0.00    +0.076 C 
ATOM     12  C   UNL     1      32.154  -8.060 -23.703  0.00  0.00    +0.020 C 
ATOM     13  C   UNL     1      34.417  -8.807 -23.487  0.00  0.00    +0.020 C 
ATOM     14  C   UNL     1      33.024  -6.814 -23.769  0.00  0.00    +0.002 C 
ATOM     15  C   UNL     1      34.452  -7.338 -23.912  0.00  0.00    +0.002 C 
ENDBRANCH   9  11
BRANCH   9  16
ATOM     16  C   UNL     1      31.417 -10.776 -22.233  0.00  0.00    +0.120 C 
BRANCH  16  17
ATOM     17  C   UNL     1      31.601 -10.266 -20.842  0.00  0.00    -0.005 C 
ATOM     18  C   UNL     1      31.390 -11.001 -19.745  0.00  0.00    -0.003 C 
ENDBRANCH  16  17
ENDBRANCH   9  16
ENDBRANCH   2  10
BRANCH   5  19
ATOM     19  O   UNL     1      33.725 -15.918 -25.236  0.00  0.00    -0.475 OA
BRANCH  19  20
ATOM     20  C   UNL     1      34.827 -16.812 -25.085  0.00  0.00    +0.208 C 
BRANCH  20  21
ATOM     21  C   UNL     1      34.307 -18.240 -25.110  0.00  0.00    +0.082 C 
BRANCH  21  22
ATOM     22  C   UNL     1      34.944 -19.098 -24.028  0.00  0.00    +0.180 C 
BRANCH  22  23
ATOM     23  O   UNL     1      34.298 -18.863 -22.783  0.00  0.00    -0.234 OA
BRANCH  23  24
ATOM     24  N   UNL     1      34.867 -19.719 -21.830  0.00  0.00    -0.096 NA
BRANCH  24  27
ATOM     25  N   UNL     1      36.720 -19.528 -20.324  0.00  0.00    -0.368 N 
ATOM     26  N   UNL     1      35.417 -17.707 -20.782  0.00  0.00    -0.368 N 
ATOM     27  C   UNL     1      35.637 -19.041 -21.021  0.00  0.00    +0.217 C 
ATOM     28  H   UNL     1      36.977 -20.474 -20.415  0.00  0.00    +0.159 HD
ATOM     29  H   UNL     1      37.237 -18.931 -19.738  0.00  0.00    +0.159 HD
ATOM     30  H   UNL     1      34.669 -17.244 -21.225  0.00  0.00    +0.159 HD
ATOM     31  H   UNL     1      36.008 -17.212 -20.169  0.00  0.00    +0.159 HD
ENDBRANCH  24  27
ENDBRANCH  23  24
ENDBRANCH  22  23
ENDBRANCH  21  22
ENDBRANCH  20  21
ENDBRANCH  19  20
ENDBRANCH   5  19
TORSDOF 11
ENDMDL
MODEL 5
REMARK VINA RESULT:      -8.6      7.614     11.549
REMARK  Name = 657007
REMARK  11 active torsions:
REMARK  status: ('A' for Active; 'I' for Inactive)
REMARK    1  A    between atoms: C_2  and  C_10
REMARK    2  A    between atoms: C_5  and  O_19
REMARK    3  A    between atoms: N_9  and  C_11
REMARK    4  A    between atoms: N_9  and  C_16
REMARK    5  A    between atoms: C_16  and  C_17
REMARK    6  A    between atoms: O_19  and  C_20
REMARK    7  A    between atoms: C_20  and  C_21
REMARK    8  A    between atoms: C_21  and  C_22
REMARK    9  A    between atoms: C_22  and  O_23
REMARK   10  A    between atoms: O_23  and  N_24
REMARK   11  A    between atoms: N_24  and  C_27
REMARK                            x       y       z     vdW  Elec       q    Type
REMARK                         _______ _______ _______ _____ _____    ______ ____
ROOT
ATOM      1 CL   UNL     1      34.187 -11.912 -25.762  0.00  0.00    -0.082 Cl
ATOM      2  C   UNL     1      32.981 -13.941 -22.548  0.00  0.00    +0.057 C 
ATOM      3  C   UNL     1      32.324 -12.979 -21.795  0.00  0.00    +0.041 C 
ATOM      4  C   UNL     1      33.558 -13.627 -23.769  0.00  0.00    +0.016 C 
ATOM      5  C   UNL     1      32.242 -11.673 -22.275  0.00  0.00    +0.140 C 
ATOM      6  C   UNL     1      33.476 -12.320 -24.248  0.00  0.00    +0.061 C 
ATOM      7  C   UNL     1      32.818 -11.343 -23.502  0.00  0.00    +0.048 C 
ENDROOT
BRANCH   2  10
ATOM      8  O   UNL     1      32.146 -15.691 -21.313  0.00  0.00    -0.270 OA
ATOM      9  N   UNL     1      34.179 -16.104 -22.394  0.00  0.00    -0.274 N 
ATOM     10  C   UNL     1      33.068 -15.320 -22.040  0.00  0.00    +0.249 C 
BRANCH   9  11
ATOM     11  C   UNL     1      34.663 -17.107 -21.489  0.00  0.00    +0.076 C 
ATOM     12  C   UNL     1      36.002 -17.692 -21.917  0.00  0.00    +0.020 C 
ATOM     13  C   UNL     1      33.752 -18.329 -21.416  0.00  0.00    +0.020 C 
ATOM     14  C   UNL     1      36.093 -18.967 -21.094  0.00  0.00    +0.002 C 
ATOM     15  C   UNL     1      34.661 -19.497 -21.031  0.00  0.00    +0.002 C 
ENDBRANCH   9  11
BRANCH   9  16
ATOM     16  C   UNL     1      34.906 -15.971 -23.661  0.00  0.00    +0.120 C 
BRANCH  16  17
ATOM     17  C   UNL     1      34.171 -16.712 -24.727  0.00  0.00    -0.005 C 
ATOM     18  C   UNL     1      34.488 -17.947 -25.131  0.00  0.00    -0.003 C 
ENDBRANCH  16  17
ENDBRANCH   9  16
ENDBRANCH   2  10
BRANCH   5  19
ATOM     19  O   UNL     1      31.601 -10.719 -21.546  0.00  0.00    -0.475 OA
BRANCH  19  20
ATOM     20  C   UNL     1      30.625 -11.166 -20.606  0.00  0.00    +0.208 C 
BRANCH  20  21
ATOM     21  C   UNL     1      30.956 -10.589 -19.240  0.00  0.00    +0.082 C 
BRANCH  21  22
ATOM     22  C   UNL     1      32.231  -9.760 -19.265  0.00  0.00    +0.180 C 
BRANCH  22  23
ATOM     23  O   UNL     1      31.907  -8.376 -19.228  0.00  0.00    -0.234 OA
BRANCH  23  24
ATOM     24  N   UNL     1      32.793  -7.701 -20.079  0.00  0.00    -0.096 NA
BRANCH  24  27
ATOM     25  N   UNL     1      31.706  -5.789 -21.029  0.00  0.00    -0.368 N 
ATOM     26  N   UNL     1      31.778  -7.763 -22.180  0.00  0.00    -0.368 N 
ATOM     27  C   UNL     1      32.130  -7.099 -21.030  0.00  0.00    +0.217 C 
ATOM     28  H   UNL     1      31.900  -5.211 -20.256  0.00  0.00    +0.159 HD
ATOM     29  H   UNL     1      31.211  -5.431 -21.800  0.00  0.00    +0.159 HD
ATOM     30  H   UNL     1      32.027  -8.707 -22.299  0.00  0.00    +0.159 HD
ATOM     31  H   UNL     1      31.279  -7.292 -22.887  0.00  0.00    +0.159 HD
ENDBRANCH  24  27
ENDBRANCH  23  24
ENDBRANCH  22  23
ENDBRANCH  21  22
ENDBRANCH  20  21
ENDBRANCH  19  20
ENDBRANCH   5  19
TORSDOF 11
ENDMDL
MODEL 6
REMARK VINA RESULT:      -8.5      8.619     15.322
REMARK  Name = 657007
REMARK  11 active torsions:
REMARK  status: ('A' for Active; 'I' for Inactive)
REMARK    1  A    between atoms: C_2  and  C_10
REMARK    2  A    between atoms: C_5  and  O_19
REMARK    3  A    between atoms: N_9  and  C_11
REMARK    4  A    between atoms: N_9  and  C_16
REMARK    5  A    between atoms: C_16  and  C_17
REMARK    6  A    between atoms: O_19  and  C_20
REMARK    7  A    between atoms: C_20  and  C_21
REMARK    8  A    between atoms: C_21  and  C_22
REMARK    9  A    between atoms: C_22  and  O_23
REMARK   10  A    between atoms: O_23  and  N_24
REMARK   11  A    between atoms: N_24  and  C_27
REMARK                            x       y       z     vdW  Elec       q    Type
REMARK                         _______ _______ _______ _____ _____    ______ ____
ROOT
ATOM      1 CL   UNL     1      35.507 -10.548 -25.679  0.00  0.00    -0.082 Cl
ATOM      2  C   UNL     1      32.433  -9.521 -23.356  0.00  0.00    +0.057 C 
ATOM      3  C   UNL     1      32.043 -10.727 -22.796  0.00  0.00    +0.041 C 
ATOM      4  C   UNL     1      33.496  -9.451 -24.243  0.00  0.00    +0.016 C 
ATOM      5  C   UNL     1      32.732 -11.892 -23.130  0.00  0.00    +0.140 C 
ATOM      6  C   UNL     1      34.185 -10.616 -24.579  0.00  0.00    +0.061 C 
ATOM      7  C   UNL     1      33.803 -11.837 -24.022  0.00  0.00    +0.048 C 
ENDROOT
BRANCH   2  10
ATOM      8  O   UNL     1      30.668  -8.073 -23.630  0.00  0.00    -0.270 OA
ATOM      9  N   UNL     1      32.233  -7.453 -22.006  0.00  0.00    -0.274 N 
ATOM     10  C   UNL     1      31.705  -8.292 -23.002  0.00  0.00    +0.249 C 
BRANCH   9  11
ATOM     11  C   UNL     1      32.004  -6.038 -22.067  0.00  0.00    +0.076 C 
ATOM     12  C   UNL     1      30.581  -5.653 -21.687  0.00  0.00    +0.020 C 
ATOM     13  C   UNL     1      32.160  -5.472 -23.475  0.00  0.00    +0.020 C 
ATOM     14  C   UNL     1      30.462  -4.234 -22.221  0.00  0.00    +0.002 C 
ATOM     15  C   UNL     1      31.263  -4.234 -23.521  0.00  0.00    +0.002 C 
ENDBRANCH   9  11
BRANCH   9  16
ATOM     16  C   UNL     1      33.027  -7.931 -20.868  0.00  0.00    +0.120 C 
BRANCH  16  17
ATOM     17  C   UNL     1      32.105  -8.398 -19.791  0.00  0.00    -0.005 C 
ATOM     18  C   UNL     1      31.914  -9.685 -19.479  0.00  0.00    -0.003 C 
ENDBRANCH  16  17
ENDBRANCH   9  16
ENDBRANCH   2  10
BRANCH   5  19
ATOM     19  O   UNL     1      32.359 -13.084 -22.589  0.00  0.00    -0.475 OA
BRANCH  19  20
ATOM     20  C   UNL     1      32.323 -13.167 -21.165  0.00  0.00    +0.208 C 
BRANCH  20  21
ATOM     21  C   UNL     1      32.873 -14.517 -20.737  0.00  0.00    +0.082 C 
BRANCH  21  22
ATOM     22  C   UNL     1      34.294 -14.738 -21.233  0.00  0.00    +0.180 C 
BRANCH  22  23
ATOM     23  O   UNL     1      34.884 -15.828 -20.537  0.00  0.00    -0.234 OA
BRANCH  23  24
ATOM     24  N   UNL     1      34.426 -17.016 -21.124  0.00  0.00    -0.096 NA
BRANCH  24  27
ATOM     25  N   UNL     1      36.054 -17.669 -22.755  0.00  0.00    -0.368 N 
ATOM     26  N   UNL     1      36.006 -18.683 -20.707  0.00  0.00    -0.368 N 
ATOM     27  C   UNL     1      35.438 -17.738 -21.526  0.00  0.00    +0.217 C 
ATOM     28  H   UNL     1      35.735 -17.028 -23.430  0.00  0.00    +0.159 HD
ATOM     29  H   UNL     1      36.813 -18.261 -22.959  0.00  0.00    +0.159 HD
ATOM     30  H   UNL     1      35.652 -18.825 -19.800  0.00  0.00    +0.159 HD
ATOM     31  H   UNL     1      36.769 -19.218 -21.027  0.00  0.00    +0.159 HD
ENDBRANCH  24  27
ENDBRANCH  23  24
ENDBRANCH  22  23
ENDBRANCH  21  22
ENDBRANCH  20  21
ENDBRANCH  19  20
ENDBRANCH   5  19
TORSDOF 11
ENDMDL
MODEL 7
REMARK VINA RESULT:      -8.4      4.209      5.395
REMARK  Name = 657007
REMARK  11 active torsions:
REMARK  status: ('A' for Active; 'I' for Inactive)
REMARK    1  A    between atoms: C_2  and  C_10
REMARK    2  A    between atoms: C_5  and  O_19
REMARK    3  A    between atoms: N_9  and  C_11
REMARK    4  A    between atoms: N_9  and  C_16
REMARK    5  A    between atoms: C_16  and  C_17
REMARK    6  A    between atoms: O_19  and  C_20
REMARK    7  A    between atoms: C_20  and  C_21
REMARK    8  A    between atoms: C_21  and  C_22
REMARK    9  A    between atoms: C_22  and  O_23
REMARK   10  A    between atoms: O_23  and  N_24
REMARK   11  A    between atoms: N_24  and  C_27
REMARK                            x       y       z     vdW  Elec       q    Type
REMARK                         _______ _______ _______ _____ _____    ______ ____
ROOT
ATOM      1 CL   UNL     1      32.826 -21.978 -19.065  0.00  0.00    -0.082 Cl
ATOM      2  C   UNL     1      34.289 -23.875 -15.877  0.00  0.00    +0.057 C 
ATOM      3  C   UNL     1      33.189 -23.980 -15.039  0.00  0.00    +0.041 C 
ATOM      4  C   UNL     1      34.192 -23.263 -17.117  0.00  0.00    +0.016 C 
ATOM      5  C   UNL     1      31.963 -23.461 -15.452  0.00  0.00    +0.140 C 
ATOM      6  C   UNL     1      32.966 -22.742 -17.529  0.00  0.00    +0.061 C 
ATOM      7  C   UNL     1      31.850 -22.841 -16.696  0.00  0.00    +0.048 C 
ENDROOT
BRANCH   2  10
ATOM      8  O   UNL     1      35.741 -25.634 -15.597  0.00  0.00    -0.270 OA
ATOM      9  N   UNL     1      36.530 -23.556 -14.870  0.00  0.00    -0.274 N 
ATOM     10  C   UNL     1      35.583 -24.423 -15.441  0.00  0.00    +0.249 C 
BRANCH   9  11
ATOM     11  C   UNL     1      37.443 -24.047 -13.879  0.00  0.00    +0.076 C 
ATOM     12  C   UNL     1      38.554 -24.904 -14.472  0.00  0.00    +0.020 C 
ATOM     13  C   UNL     1      36.780 -24.979 -12.869  0.00  0.00    +0.020 C 
ATOM     14  C   UNL     1      39.108 -25.628 -13.255  0.00  0.00    +0.002 C 
ATOM     15  C   UNL     1      37.890 -25.908 -12.375  0.00  0.00    +0.002 C 
ENDBRANCH   9  11
BRANCH   9  16
ATOM     16  C   UNL     1      36.660 -22.138 -15.224  0.00  0.00    +0.120 C 
BRANCH  16  17
ATOM     17  C   UNL     1      37.459 -22.019 -16.478  0.00  0.00    -0.005 C 
ATOM     18  C   UNL     1      37.001 -21.464 -17.605  0.00  0.00    -0.003 C 
ENDBRANCH  16  17
ENDBRANCH   9  16
ENDBRANCH   2  10
BRANCH   5  19
ATOM     19  O   UNL     1      30.875 -23.556 -14.639  0.00  0.00    -0.475 OA
BRANCH  19  20
ATOM     20  C   UNL     1      30.000 -24.663 -14.851  0.00  0.00    +0.208 C 
BRANCH  20  21
ATOM     21  C   UNL     1      28.681 -24.149 -15.402  0.00  0.00    +0.082 C 
BRANCH  21  22
ATOM     22  C   UNL     1      28.630 -24.218 -16.920  0.00  0.00    +0.180 C 
BRANCH  22  23
ATOM     23  O   UNL     1      27.389 -23.704 -17.385  0.00  0.00    -0.234 OA
BRANCH  23  24
ATOM     24  N   UNL     1      27.527 -22.318 -17.550  0.00  0.00    -0.096 NA
BRANCH  24  27
ATOM     25  N   UNL     1      25.974 -21.804 -15.801  0.00  0.00    -0.368 N 
ATOM     26  N   UNL     1      25.737 -20.853 -17.866  0.00  0.00    -0.368 N 
ATOM     27  C   UNL     1      26.476 -21.703 -17.078  0.00  0.00    +0.217 C 
ATOM     28  H   UNL     1      26.419 -22.384 -15.143  0.00  0.00    +0.159 HD
ATOM     29  H   UNL     1      25.171 -21.295 -15.546  0.00  0.00    +0.159 HD
ATOM     30  H   UNL     1      25.998 -20.699 -18.803  0.00  0.00    +0.159 HD
ATOM     31  H   UNL     1      24.947 -20.398 -17.493  0.00  0.00    +0.159 HD
ENDBRANCH  24  27
ENDBRANCH  23  24
ENDBRANCH  22  23
ENDBRANCH  21  22
ENDBRANCH  20  21
ENDBRANCH  19  20
ENDBRANCH   5  19
TORSDOF 11
ENDMDL
MODEL 8
REMARK VINA RESULT:      -8.4      4.105      8.014
REMARK  Name = 657007
REMARK  11 active torsions:
REMARK  status: ('A' for Active; 'I' for Inactive)
REMARK    1  A    between atoms: C_2  and  C_10
REMARK    2  A    between atoms: C_5  and  O_19
REMARK    3  A    between atoms: N_9  and  C_11
REMARK    4  A    between atoms: N_9  and  C_16
REMARK    5  A    between atoms: C_16  and  C_17
REMARK    6  A    between atoms: O_19  and  C_20
REMARK    7  A    between atoms: C_20  and  C_21
REMARK    8  A    between atoms: C_21  and  C_22
REMARK    9  A    between atoms: C_22  and  O_23
REMARK   10  A    between atoms: O_23  and  N_24
REMARK   11  A    between atoms: N_24  and  C_27
REMARK                            x       y       z     vdW  Elec       q    Type
REMARK                         _______ _______ _______ _____ _____    ______ ____
ROOT
ATOM      1 CL   UNL     1      37.074 -20.718 -19.215  0.00  0.00    -0.082 Cl
ATOM      2  C   UNL     1      34.552 -22.892 -17.019  0.00  0.00    +0.057 C 
ATOM      3  C   UNL     1      35.282 -23.157 -15.870  0.00  0.00    +0.041 C 
ATOM      4  C   UNL     1      35.090 -22.143 -18.055  0.00  0.00    +0.016 C 
ATOM      5  C   UNL     1      36.580 -22.662 -15.754  0.00  0.00    +0.140 C 
ATOM      6  C   UNL     1      36.389 -21.649 -17.939  0.00  0.00    +0.061 C 
ATOM      7  C   UNL     1      37.134 -21.908 -16.788  0.00  0.00    +0.048 C 
ENDROOT
BRANCH   2  10
ATOM      8  O   UNL     1      32.908 -23.980 -18.200  0.00  0.00    -0.270 OA
ATOM      9  N   UNL     1      32.286 -23.226 -16.075  0.00  0.00    -0.274 N 
ATOM     10  C   UNL     1      33.182 -23.414 -17.142  0.00  0.00    +0.249 C 
BRANCH   9  11
ATOM     11  C   UNL     1      30.883 -23.089 -16.336  0.00  0.00    +0.076 C 
ATOM     12  C   UNL     1      30.157 -22.294 -15.259  0.00  0.00    +0.020 C 
ATOM     13  C   UNL     1      30.147 -24.426 -16.345  0.00  0.00    +0.020 C 
ATOM     14  C   UNL     1      28.697 -22.638 -15.512  0.00  0.00    +0.002 C 
ATOM     15  C   UNL     1      28.707 -24.104 -15.941  0.00  0.00    +0.002 C 
ENDBRANCH   9  11
BRANCH   9  16
ATOM     16  C   UNL     1      32.692 -23.157 -14.667  0.00  0.00    +0.120 C 
BRANCH  16  17
ATOM     17  C   UNL     1      32.758 -24.540 -14.110  0.00  0.00    -0.005 C 
ATOM     18  C   UNL     1      31.774 -25.108 -13.404  0.00  0.00    -0.003 C 
ENDBRANCH  16  17
ENDBRANCH   9  16
ENDBRANCH   2  10
BRANCH   5  19
ATOM     19  O   UNL     1      37.307 -22.916 -14.632  0.00  0.00    -0.475 OA
BRANCH  19  20
ATOM     20  C   UNL     1      36.581 -23.145 -13.425  0.00  0.00    +0.208 C 
BRANCH  20  21
ATOM     21  C   UNL     1      37.567 -23.299 -12.279  0.00  0.00    +0.082 C 
BRANCH  21  22
ATOM     22  C   UNL     1      37.916 -24.756 -12.019  0.00  0.00    +0.180 C 
BRANCH  22  23
ATOM     23  O   UNL     1      36.890 -25.597 -12.531  0.00  0.00    -0.234 OA
BRANCH  23  24
ATOM     24  N   UNL     1      37.496 -26.614 -13.281  0.00  0.00    -0.096 NA
BRANCH  24  27
ATOM     25  N   UNL     1      36.089 -26.844 -15.205  0.00  0.00    -0.368 N 
ATOM     26  N   UNL     1      38.136 -25.844 -15.389  0.00  0.00    -0.368 N 
ATOM     27  C   UNL     1      37.235 -26.453 -14.550  0.00  0.00    +0.217 C 
ATOM     28  H   UNL     1      35.368 -27.293 -14.708  0.00  0.00    +0.159 HD
ATOM     29  H   UNL     1      35.991 -26.675 -16.169  0.00  0.00    +0.159 HD
ATOM     30  H   UNL     1      38.996 -25.519 -15.036  0.00  0.00    +0.159 HD
ATOM     31  H   UNL     1      37.922 -25.731 -16.344  0.00  0.00    +0.159 HD
ENDBRANCH  24  27
ENDBRANCH  23  24
ENDBRANCH  22  23
ENDBRANCH  21  22
ENDBRANCH  20  21
ENDBRANCH  19  20
ENDBRANCH   5  19
TORSDOF 11
ENDMDL
MODEL 9
REMARK VINA RESULT:      -8.2      1.314      2.262
REMARK  Name = 657007
REMARK  11 active torsions:
REMARK  status: ('A' for Active; 'I' for Inactive)
REMARK    1  A    between atoms: C_2  and  C_10
REMARK    2  A    between atoms: C_5  and  O_19
REMARK    3  A    between atoms: N_9  and  C_11
REMARK    4  A    between atoms: N_9  and  C_16
REMARK    5  A    between atoms: C_16  and  C_17
REMARK    6  A    between atoms: O_19  and  C_20
REMARK    7  A    between atoms: C_20  and  C_21
REMARK    8  A    between atoms: C_21  and  C_22
REMARK    9  A    between atoms: C_22  and  O_23
REMARK   10  A    between atoms: O_23  and  N_24
REMARK   11  A    between atoms: N_24  and  C_27
REMARK                            x       y       z     vdW  Elec       q    Type
REMARK                         _______ _______ _______ _____ _____    ______ ____
ROOT
ATOM      1 CL   UNL     1      30.550 -23.316 -14.488  0.00  0.00    -0.082 Cl
ATOM      2  C   UNL     1      34.295 -23.438 -15.853  0.00  0.00    +0.057 C 
ATOM      3  C   UNL     1      34.161 -23.055 -17.179  0.00  0.00    +0.041 C 
ATOM      4  C   UNL     1      33.194 -23.522 -15.014  0.00  0.00    +0.016 C 
ATOM      5  C   UNL     1      32.896 -22.748 -17.678  0.00  0.00    +0.140 C 
ATOM      6  C   UNL     1      31.929 -23.217 -15.514  0.00  0.00    +0.061 C 
ATOM      7  C   UNL     1      31.779 -22.829 -16.846  0.00  0.00    +0.048 C 
ENDROOT
BRANCH   2  10
ATOM      8  O   UNL     1      36.586 -23.468 -16.047  0.00  0.00    -0.270 OA
ATOM      9  N   UNL     1      35.733 -24.386 -14.072  0.00  0.00    -0.274 N 
ATOM     10  C   UNL     1      35.631 -23.761 -15.327  0.00  0.00    +0.249 C 
BRANCH   9  11
ATOM     11  C   UNL     1      36.821 -25.281 -13.805  0.00  0.00    +0.076 C 
ATOM     12  C   UNL     1      38.148 -24.558 -13.613  0.00  0.00    +0.020 C 
ATOM     13  C   UNL     1      37.104 -26.234 -14.964  0.00  0.00    +0.020 C 
ATOM     14  C   UNL     1      39.167 -25.675 -13.772  0.00  0.00    +0.002 C 
ATOM     15  C   UNL     1      38.588 -26.585 -14.854  0.00  0.00    +0.002 C 
ENDBRANCH   9  11
BRANCH   9  16
ATOM     16  C   UNL     1      34.778 -24.184 -12.976  0.00  0.00    +0.120 C 
BRANCH  16  17
ATOM     17  C   UNL     1      35.517 -23.729 -11.762  0.00  0.00    -0.005 C 
ATOM     18  C   UNL     1      35.654 -24.464 -10.653  0.00  0.00    -0.003 C 
ENDBRANCH  16  17
ENDBRANCH   9  16
ENDBRANCH   2  10
BRANCH   5  19
ATOM     19  O   UNL     1      32.750 -22.372 -18.978  0.00  0.00    -0.475 OA
BRANCH  19  20
ATOM     20  C   UNL     1      33.734 -21.488 -19.513  0.00  0.00    +0.208 C 
BRANCH  20  21
ATOM     21  C   UNL     1      33.035 -20.386 -20.291  0.00  0.00    +0.082 C 
BRANCH  21  22
ATOM     22  C   UNL     1      33.964 -19.714 -21.290  0.00  0.00    +0.180 C 
BRANCH  22  23
ATOM     23  O   UNL     1      34.994 -19.020 -20.598  0.00  0.00    -0.234 OA
BRANCH  23  24
ATOM     24  N   UNL     1      35.909 -18.544 -21.547  0.00  0.00    -0.096 NA
BRANCH  24  27
ATOM     25  N   UNL     1      34.932 -16.360 -21.447  0.00  0.00    -0.368 N 
ATOM     26  N   UNL     1      35.459 -17.293 -23.466  0.00  0.00    -0.368 N 
ATOM     27  C   UNL     1      35.455 -17.452 -22.102  0.00  0.00    +0.217 C 
ATOM     28  H   UNL     1      34.876 -16.356 -20.465  0.00  0.00    +0.159 HD
ATOM     29  H   UNL     1      34.615 -15.583 -21.961  0.00  0.00    +0.159 HD
ATOM     30  H   UNL     1      35.810 -18.008 -24.044  0.00  0.00    +0.159 HD
ATOM     31  H   UNL     1      35.112 -16.462 -23.866  0.00  0.00    +0.159 HD
ENDBRANCH  24  27
ENDBRANCH  23  24
ENDBRANCH  22  23
ENDBRANCH  21  22
ENDBRANCH  20  21
ENDBRANCH  19  20
ENDBRANCH   5  19
TORSDOF 11
ENDMDL
