MODEL 1
REMARK VINA RESULT:      -9.7      0.000      0.000
REMARK  Name = 10331844
REMARK  1 active torsions:
REMARK  status: ('A' for Active; 'I' for Inactive)
REMARK    1  A    between atoms: C_11  and  C_17
REMARK                            x       y       z     vdW  Elec       q    Type
REMARK                         _______ _______ _______ _____ _____    ______ ____
ROOT
ATOM      1  O   UNL     1      35.225 -17.546 -21.131  0.00  0.00    -0.447 OA
ATOM      2  O   UNL     1      34.206 -17.918 -25.596  0.00  0.00    -0.286 OA
ATOM      3  O   UNL     1      34.617 -14.764 -21.206  0.00  0.00    -0.283 OA
ATOM      4  C   UNL     1      34.721 -17.703 -23.322  0.00  0.00    +0.080 C 
ATOM      5  C   UNL     1      34.812 -16.872 -22.232  0.00  0.00    +0.187 C 
ATOM      6  C   UNL     1      33.975 -15.741 -24.660  0.00  0.00    +0.042 C 
ATOM      7  C   UNL     1      34.081 -14.915 -23.516  0.00  0.00    +0.045 C 
ATOM      8  C   UNL     1      34.298 -17.204 -24.608  0.00  0.00    +0.199 C 
ATOM      9  C   UNL     1      34.523 -15.472 -22.200  0.00  0.00    +0.230 C 
ATOM     10  C   UNL     1      35.103 -18.985 -22.867  0.00  0.00    +0.047 C 
ATOM     11  C   UNL     1      35.401 -18.838 -21.530  0.00  0.00    +0.180 C 
ATOM     12  C   UNL     1      33.558 -15.189 -25.876  0.00  0.00    +0.003 C 
ATOM     13  C   UNL     1      33.770 -13.554 -23.607  0.00  0.00    +0.003 C 
ATOM     14  C   UNL     1      33.250 -13.829 -25.955  0.00  0.00    +0.000 C 
ATOM     15  C   UNL     1      33.357 -13.017 -24.827  0.00  0.00    +0.000 C 
ENDROOT
BRANCH  11  17
ATOM     16  O   UNL     1      36.987 -19.751 -20.039  0.00  0.00    -0.288 OA
ATOM     17  C   UNL     1      35.840 -19.778 -20.555  0.00  0.00    +0.208 C 
ATOM     18  C   UNL     1      34.920 -20.905 -20.065  0.00  0.00    +0.081 C 
ENDBRANCH  11  17
TORSDOF 1
ENDMDL
MODEL 2
REMARK VINA RESULT:      -9.5      9.155     11.475
REMARK  Name = 10331844
REMARK  1 active torsions:
REMARK  status: ('A' for Active; 'I' for Inactive)
REMARK    1  A    between atoms: C_11  and  C_17
REMARK                            x       y       z     vdW  Elec       q    Type
REMARK                         _______ _______ _______ _____ _____    ______ ____
ROOT
ATOM      1  O   UNL     1      29.850 -22.621 -17.188  0.00  0.00    -0.447 OA
ATOM      2  O   UNL     1      31.379 -23.902 -13.049  0.00  0.00    -0.286 OA
ATOM      3  O   UNL     1      32.523 -22.534 -18.169  0.00  0.00    -0.283 OA
ATOM      4  C   UNL     1      30.625 -23.247 -15.167  0.00  0.00    +0.080 C 
ATOM      5  C   UNL     1      30.954 -22.907 -16.456  0.00  0.00    +0.187 C 
ATOM      6  C   UNL     1      33.051 -23.552 -14.707  0.00  0.00    +0.042 C 
ATOM      7  C   UNL     1      33.354 -23.196 -16.042  0.00  0.00    +0.045 C 
ATOM      8  C   UNL     1      31.641 -23.594 -14.203  0.00  0.00    +0.199 C 
ATOM      9  C   UNL     1      32.270 -22.844 -17.012  0.00  0.00    +0.230 C 
ATOM     10  C   UNL     1      29.216 -23.169 -15.092  0.00  0.00    +0.047 C 
ATOM     11  C   UNL     1      28.791 -22.784 -16.345  0.00  0.00    +0.180 C 
ATOM     12  C   UNL     1      34.089 -23.877 -13.826  0.00  0.00    +0.003 C 
ATOM     13  C   UNL     1      34.685 -23.169 -16.473  0.00  0.00    +0.003 C 
ATOM     14  C   UNL     1      35.413 -23.847 -14.267  0.00  0.00    +0.000 C 
ATOM     15  C   UNL     1      35.709 -23.494 -15.583  0.00  0.00    +0.000 C 
ENDROOT
BRANCH  11  17
ATOM     16  O   UNL     1      27.160 -22.804 -18.051  0.00  0.00    -0.288 OA
ATOM     17  C   UNL     1      27.488 -22.543 -16.865  0.00  0.00    +0.208 C 
ATOM     18  C   UNL     1      26.382 -21.938 -15.990  0.00  0.00    +0.081 C 
ENDBRANCH  11  17
TORSDOF 1
ENDMDL
MODEL 3
REMARK VINA RESULT:      -9.5      1.816      5.759
REMARK  Name = 10331844
REMARK  1 active torsions:
REMARK  status: ('A' for Active; 'I' for Inactive)
REMARK    1  A    between atoms: C_11  and  C_17
REMARK                            x       y       z     vdW  Elec       q    Type
REMARK                         _______ _______ _______ _____ _____    ______ ____
ROOT
ATOM      1  O   UNL     1      33.862 -13.238 -22.601  0.00  0.00    -0.447 OA
ATOM      2  O   UNL     1      33.643 -15.886 -26.350  0.00  0.00    -0.286 OA
ATOM      3  O   UNL     1      34.698 -15.475 -21.048  0.00  0.00    -0.283 OA
ATOM      4  C   UNL     1      33.762 -14.558 -24.425  0.00  0.00    +0.080 C 
ATOM      5  C   UNL     1      34.039 -14.493 -23.082  0.00  0.00    +0.187 C 
ATOM      6  C   UNL     1      34.321 -16.981 -24.347  0.00  0.00    +0.042 C 
ATOM      7  C   UNL     1      34.597 -16.878 -22.964  0.00  0.00    +0.045 C 
ATOM      8  C   UNL     1      33.882 -15.797 -25.154  0.00  0.00    +0.199 C 
ATOM      9  C   UNL     1      34.461 -15.573 -22.244  0.00  0.00    +0.230 C 
ATOM     10  C   UNL     1      33.388 -13.250 -24.808  0.00  0.00    +0.047 C 
ATOM     11  C   UNL     1      33.464 -12.484 -23.665  0.00  0.00    +0.180 C 
ATOM     12  C   UNL     1      34.459 -18.217 -24.990  0.00  0.00    +0.003 C 
ATOM     13  C   UNL     1      35.005 -18.008 -22.247  0.00  0.00    +0.003 C 
ATOM     14  C   UNL     1      34.867 -19.338 -24.265  0.00  0.00    +0.000 C 
ATOM     15  C   UNL     1      35.137 -19.234 -22.901  0.00  0.00    +0.000 C 
ENDROOT
BRANCH  11  17
ATOM     16  O   UNL     1      32.251 -10.689 -22.728  0.00  0.00    -0.288 OA
ATOM     17  C   UNL     1      33.204 -11.103 -23.438  0.00  0.00    +0.208 C 
ATOM     18  C   UNL     1      34.089 -10.015 -24.059  0.00  0.00    +0.081 C 
ENDBRANCH  11  17
TORSDOF 1
ENDMDL
MODEL 4
REMARK VINA RESULT:      -9.3      0.739      2.548
REMARK  Name = 10331844
REMARK  1 active torsions:
REMARK  status: ('A' for Active; 'I' for Inactive)
REMARK    1  A    between atoms: C_11  and  C_17
REMARK                            x       y       z     vdW  Elec       q    Type
REMARK                         _______ _______ _______ _____ _____    ______ ____
ROOT
ATOM      1  O   UNL     1      34.994 -18.529 -22.753  0.00  0.00    -0.447 OA
ATOM      2  O   UNL     1      34.357 -14.128 -21.594  0.00  0.00    -0.286 OA
ATOM      3  O   UNL     1      34.233 -17.951 -25.436  0.00  0.00    -0.283 OA
ATOM      4  C   UNL     1      34.674 -16.365 -22.209  0.00  0.00    +0.080 C 
ATOM      5  C   UNL     1      34.631 -17.305 -23.209  0.00  0.00    +0.187 C 
ATOM      6  C   UNL     1      33.925 -14.672 -23.871  0.00  0.00    +0.042 C 
ATOM      7  C   UNL     1      33.891 -15.666 -24.877  0.00  0.00    +0.045 C 
ATOM      8  C   UNL     1      34.327 -14.988 -22.463  0.00  0.00    +0.199 C 
ATOM      9  C   UNL     1      34.259 -17.085 -24.572  0.00  0.00    +0.230 C 
ATOM     10  C   UNL     1      35.095 -17.052 -21.048  0.00  0.00    +0.047 C 
ATOM     11  C   UNL     1      35.277 -18.364 -21.429  0.00  0.00    +0.180 C 
ATOM     12  C   UNL     1      33.576 -13.355 -24.190  0.00  0.00    +0.003 C 
ATOM     13  C   UNL     1      33.510 -15.330 -26.180  0.00  0.00    +0.003 C 
ATOM     14  C   UNL     1      33.197 -13.030 -25.493  0.00  0.00    +0.000 C 
ATOM     15  C   UNL     1      33.164 -14.012 -26.483  0.00  0.00    +0.000 C 
ENDROOT
BRANCH  11  17
ATOM     16  O   UNL     1      36.872 -19.684 -20.296  0.00  0.00    -0.288 OA
ATOM     17  C   UNL     1      35.691 -19.509 -20.692  0.00  0.00    +0.208 C 
ATOM     18  C   UNL     1      34.700 -20.624 -20.332  0.00  0.00    +0.081 C 
ENDBRANCH  11  17
TORSDOF 1
ENDMDL
MODEL 5
REMARK VINA RESULT:      -9.2      6.856      9.615
REMARK  Name = 10331844
REMARK  1 active torsions:
REMARK  status: ('A' for Active; 'I' for Inactive)
REMARK    1  A    between atoms: C_11  and  C_17
REMARK                            x       y       z     vdW  Elec       q    Type
REMARK                         _______ _______ _______ _____ _____    ______ ____
ROOT
ATOM      1  O   UNL     1      36.481 -23.686 -14.461  0.00  0.00    -0.447 OA
ATOM      2  O   UNL     1      32.582 -23.544 -16.889  0.00  0.00    -0.286 OA
ATOM      3  O   UNL     1      37.814 -22.184 -16.481  0.00  0.00    -0.283 OA
ATOM      4  C   UNL     1      34.581 -23.603 -15.671  0.00  0.00    +0.080 C 
ATOM      5  C   UNL     1      35.903 -23.239 -15.603  0.00  0.00    +0.187 C 
ATOM      6  C   UNL     1      34.452 -22.445 -17.870  0.00  0.00    +0.042 C 
ATOM      7  C   UNL     1      35.817 -22.089 -17.767  0.00  0.00    +0.045 C 
ATOM      8  C   UNL     1      33.762 -23.236 -16.800  0.00  0.00    +0.199 C 
ATOM      9  C   UNL     1      36.633 -22.489 -16.578  0.00  0.00    +0.230 C 
ATOM     10  C   UNL     1      34.316 -24.327 -14.486  0.00  0.00    +0.047 C 
ATOM     11  C   UNL     1      35.501 -24.350 -13.784  0.00  0.00    +0.180 C 
ATOM     12  C   UNL     1      33.718 -22.054 -18.995  0.00  0.00    +0.003 C 
ATOM     13  C   UNL     1      36.425 -21.350 -18.788  0.00  0.00    +0.003 C 
ATOM     14  C   UNL     1      34.334 -21.317 -20.008  0.00  0.00    +0.000 C 
ATOM     15  C   UNL     1      35.681 -20.968 -19.905  0.00  0.00    +0.000 C 
ENDROOT
BRANCH  11  17
ATOM     16  O   UNL     1      35.102 -24.856 -11.513  0.00  0.00    -0.288 OA
ATOM     17  C   UNL     1      35.840 -24.930 -12.529  0.00  0.00    +0.208 C 
ATOM     18  C   UNL     1      37.156 -25.696 -12.336  0.00  0.00    +0.081 C 
ENDBRANCH  11  17
TORSDOF 1
ENDMDL
MODEL 6
REMARK VINA RESULT:      -9.2      1.963      6.154
REMARK  Name = 10331844
REMARK  1 active torsions:
REMARK  status: ('A' for Active; 'I' for Inactive)
REMARK    1  A    between atoms: C_11  and  C_17
REMARK                            x       y       z     vdW  Elec       q    Type
REMARK                         _______ _______ _______ _____ _____    ______ ____
ROOT
ATOM      1  O   UNL     1      33.632 -13.442 -24.664  0.00  0.00    -0.447 OA
ATOM      2  O   UNL     1      34.838 -15.906 -20.977  0.00  0.00    -0.286 OA
ATOM      3  O   UNL     1      33.722 -15.786 -26.281  0.00  0.00    -0.283 OA
ATOM      4  C   UNL     1      34.226 -14.672 -22.871  0.00  0.00    +0.080 C 
ATOM      5  C   UNL     1      33.949 -14.682 -24.216  0.00  0.00    +0.187 C 
ATOM      6  C   UNL     1      34.638 -17.122 -23.015  0.00  0.00    +0.042 C 
ATOM      7  C   UNL     1      34.347 -17.095 -24.399  0.00  0.00    +0.045 C 
ATOM      8  C   UNL     1      34.587 -15.882 -22.174  0.00  0.00    +0.199 C 
ATOM      9  C   UNL     1      33.975 -15.818 -25.085  0.00  0.00    +0.230 C 
ATOM     10  C   UNL     1      34.069 -13.332 -22.452  0.00  0.00    +0.047 C 
ATOM     11  C   UNL     1      33.708 -12.623 -23.577  0.00  0.00    +0.180 C 
ATOM     12  C   UNL     1      34.982 -18.333 -22.404  0.00  0.00    +0.003 C 
ATOM     13  C   UNL     1      34.406 -18.275 -25.148  0.00  0.00    +0.003 C 
ATOM     14  C   UNL     1      35.037 -19.505 -23.161  0.00  0.00    +0.000 C 
ATOM     15  C   UNL     1      34.751 -19.475 -24.526  0.00  0.00    +0.000 C 
ENDROOT
BRANCH  11  17
ATOM     16  O   UNL     1      32.419 -10.671 -23.261  0.00  0.00    -0.288 OA
ATOM     17  C   UNL     1      33.420 -11.242 -23.767  0.00  0.00    +0.208 C 
ATOM     18  C   UNL     1      34.330 -10.349 -24.621  0.00  0.00    +0.081 C 
ENDBRANCH  11  17
TORSDOF 1
ENDMDL
MODEL 7
REMARK VINA RESULT:      -9.1      9.255     11.158
REMARK  Name = 10331844
REMARK  1 active torsions:
REMARK  status: ('A' for Active; 'I' for Inactive)
REMARK    1  A    between atoms: C_11  and  C_17
REMARK                            x       y       z     vdW  Elec       q    Type
REMARK                         _______ _______ _______ _____ _____    ______ ____
ROOT
ATOM      1  O   UNL     1      36.445 -23.905 -15.860  0.00  0.00    -0.447 OA
ATOM      2  O   UNL     1      33.177 -24.669 -12.722  0.00  0.00    -0.286 OA
ATOM      3  O   UNL     1      34.493 -22.897 -17.674  0.00  0.00    -0.283 OA
ATOM      4  C   UNL     1      34.824 -24.271 -14.338  0.00  0.00    +0.080 C 
ATOM      5  C   UNL     1      35.118 -23.813 -15.599  0.00  0.00    +0.187 C 
ATOM      6  C   UNL     1      32.434 -23.741 -14.785  0.00  0.00    +0.042 C 
ATOM      7  C   UNL     1      32.774 -23.278 -16.078  0.00  0.00    +0.045 C 
ATOM      8  C   UNL     1      33.470 -24.269 -13.840  0.00  0.00    +0.199 C 
ATOM      9  C   UNL     1      34.191 -23.296 -16.557  0.00  0.00    +0.230 C 
ATOM     10  C   UNL     1      36.055 -24.675 -13.774  0.00  0.00    +0.047 C 
ATOM     11  C   UNL     1      37.010 -24.433 -14.737  0.00  0.00    +0.180 C 
ATOM     12  C   UNL     1      31.099 -23.709 -14.367  0.00  0.00    +0.003 C 
ATOM     13  C   UNL     1      31.776 -22.793 -16.930  0.00  0.00    +0.003 C 
ATOM     14  C   UNL     1      30.111 -23.223 -15.226  0.00  0.00    +0.000 C 
ATOM     15  C   UNL     1      30.448 -22.768 -16.500  0.00  0.00    +0.000 C 
ENDROOT
BRANCH  11  17
ATOM     16  O   UNL     1      39.221 -23.914 -15.382  0.00  0.00    -0.288 OA
ATOM     17  C   UNL     1      38.419 -24.640 -14.739  0.00  0.00    +0.208 C 
ATOM     18  C   UNL     1      39.056 -25.785 -13.942  0.00  0.00    +0.081 C 
ENDBRANCH  11  17
TORSDOF 1
ENDMDL
MODEL 8
REMARK VINA RESULT:      -9.0      8.817     11.132
REMARK  Name = 10331844
REMARK  1 active torsions:
REMARK  status: ('A' for Active; 'I' for Inactive)
REMARK    1  A    between atoms: C_11  and  C_17
REMARK                            x       y       z     vdW  Elec       q    Type
REMARK                         _______ _______ _______ _____ _____    ______ ____
ROOT
ATOM      1  O   UNL     1      34.725 -22.767 -16.556  0.00  0.00    -0.447 OA
ATOM      2  O   UNL     1      32.772 -24.885 -12.976  0.00  0.00    -0.286 OA
ATOM      3  O   UNL     1      32.199 -22.612 -17.864  0.00  0.00    -0.283 OA
ATOM      4  C   UNL     1      33.744 -23.805 -14.812  0.00  0.00    +0.080 C 
ATOM      5  C   UNL     1      33.559 -23.237 -16.049  0.00  0.00    +0.187 C 
ATOM      6  C   UNL     1      31.305 -24.297 -14.757  0.00  0.00    +0.042 C 
ATOM      7  C   UNL     1      31.151 -23.704 -16.032  0.00  0.00    +0.045 C 
ATOM      8  C   UNL     1      32.639 -24.373 -14.078  0.00  0.00    +0.199 C 
ATOM      9  C   UNL     1      32.323 -23.126 -16.761  0.00  0.00    +0.230 C 
ATOM     10  C   UNL     1      35.122 -23.679 -14.529  0.00  0.00    +0.047 C 
ATOM     11  C   UNL     1      35.676 -23.042 -15.619  0.00  0.00    +0.180 C 
ATOM     12  C   UNL     1      30.188 -24.828 -14.102  0.00  0.00    +0.003 C 
ATOM     13  C   UNL     1      29.888 -23.654 -16.631  0.00  0.00    +0.003 C 
ATOM     14  C   UNL     1      28.932 -24.772 -14.709  0.00  0.00    +0.000 C 
ATOM     15  C   UNL     1      28.784 -24.188 -15.967  0.00  0.00    +0.000 C 
ENDROOT
BRANCH  11  17
ATOM     16  O   UNL     1      38.019 -23.212 -15.390  0.00  0.00    -0.288 OA
ATOM     17  C   UNL     1      37.015 -22.650 -15.899  0.00  0.00    +0.208 C 
ATOM     18  C   UNL     1      37.320 -21.492 -16.859  0.00  0.00    +0.081 C 
ENDBRANCH  11  17
TORSDOF 1
ENDMDL
MODEL 9
REMARK VINA RESULT:      -9.0      2.818      6.035
REMARK  Name = 10331844
REMARK  1 active torsions:
REMARK  status: ('A' for Active; 'I' for Inactive)
REMARK    1  A    between atoms: C_11  and  C_17
REMARK                            x       y       z     vdW  Elec       q    Type
REMARK                         _______ _______ _______ _____ _____    ______ ____
ROOT
ATOM      1  O   UNL     1      32.079 -12.746 -22.872  0.00  0.00    -0.447 OA
ATOM      2  O   UNL     1      34.208 -15.985 -20.404  0.00  0.00    -0.286 OA
ATOM      3  O   UNL     1      32.747 -14.116 -25.279  0.00  0.00    -0.283 OA
ATOM      4  C   UNL     1      33.130 -14.347 -21.684  0.00  0.00    +0.080 C 
ATOM      5  C   UNL     1      32.778 -13.906 -22.936  0.00  0.00    +0.187 C 
ATOM      6  C   UNL     1      34.238 -16.296 -22.764  0.00  0.00    +0.042 C 
ATOM      7  C   UNL     1      33.859 -15.811 -24.038  0.00  0.00    +0.045 C 
ATOM      8  C   UNL     1      33.880 -15.566 -21.505  0.00  0.00    +0.199 C 
ATOM      9  C   UNL     1      33.079 -14.542 -24.181  0.00  0.00    +0.230 C 
ATOM     10  C   UNL     1      32.613 -13.395 -20.776  0.00  0.00    +0.047 C 
ATOM     11  C   UNL     1      31.983 -12.441 -21.547  0.00  0.00    +0.180 C 
ATOM     12  C   UNL     1      34.966 -17.487 -22.666  0.00  0.00    +0.003 C 
ATOM     13  C   UNL     1      34.212 -16.523 -25.189  0.00  0.00    +0.003 C 
ATOM     14  C   UNL     1      35.313 -18.189 -23.821  0.00  0.00    +0.000 C 
ATOM     15  C   UNL     1      34.939 -17.709 -25.076  0.00  0.00    +0.000 C 
ENDROOT
BRANCH  11  17
ATOM     16  O   UNL     1      30.801 -10.457 -22.035  0.00  0.00    -0.288 OA
ATOM     17  C   UNL     1      31.286 -11.252 -21.189  0.00  0.00    +0.208 C 
ATOM     18  C   UNL     1      31.082 -10.861 -19.720  0.00  0.00    +0.081 C 
ENDBRANCH  11  17
TORSDOF 1
ENDMDL
