MODEL 1
REMARK VINA RESULT:      -9.3      0.000      0.000
REMARK  Name = 24744336
REMARK  3 active torsions:
REMARK  status: ('A' for Active; 'I' for Inactive)
REMARK    1  A    between atoms: N_3  and  C_15
REMARK    2  A    between atoms: C_12  and  N_21
REMARK    3  A    between atoms: N_21  and  S_23
REMARK                            x       y       z     vdW  Elec       q    Type
REMARK                         _______ _______ _______ _____ _____    ______ ____
ROOT
ATOM      1  O   UNL     1      36.270 -22.533 -15.526  0.00  0.00    -0.473 OA
ATOM      2  O   UNL     1      34.221 -23.997 -13.046  0.00  0.00    -0.270 OA
ATOM      3  N   UNL     1      33.665 -23.582 -15.277  0.00  0.00    -0.232 N 
ATOM      4  C   UNL     1      36.033 -23.566 -14.576  0.00  0.00    +0.202 C 
ATOM      5  C   UNL     1      34.553 -23.728 -14.202  0.00  0.00    +0.269 C 
ATOM      6  C   UNL     1      34.138 -23.095 -16.536  0.00  0.00    +0.092 C 
ATOM      7  C   UNL     1      35.429 -22.561 -16.603  0.00  0.00    +0.154 C 
ATOM      8  C   UNL     1      36.833 -23.163 -13.329  0.00  0.00    +0.053 C 
ATOM      9  C   UNL     1      36.583 -24.905 -15.096  0.00  0.00    +0.053 C 
ATOM     10  C   UNL     1      35.929 -22.010 -17.788  0.00  0.00    +0.054 C 
ATOM     11  C   UNL     1      33.394 -23.154 -17.727  0.00  0.00    +0.020 C 
ATOM     12  C   UNL     1      35.161 -22.040 -18.946  0.00  0.00    +0.068 C 
ATOM     13  C   UNL     1      33.899 -22.625 -18.919  0.00  0.00    +0.017 C 
ENDROOT
BRANCH   3  15
ATOM     14  F   UNL     1      28.244 -24.567 -14.516  0.00  0.00    -0.204 F 
ATOM     15  C   UNL     1      32.267 -23.835 -15.081  0.00  0.00    +0.058 C 
ATOM     16  C   UNL     1      31.825 -25.130 -14.811  0.00  0.00    +0.018 C 
ATOM     17  C   UNL     1      31.351 -22.787 -15.161  0.00  0.00    +0.018 C 
ATOM     18  C   UNL     1      30.466 -25.377 -14.620  0.00  0.00    +0.031 C 
ATOM     19  C   UNL     1      29.991 -23.034 -14.970  0.00  0.00    +0.031 C 
ATOM     20  C   UNL     1      29.549 -24.330 -14.699  0.00  0.00    +0.140 C 
ENDBRANCH   3  15
BRANCH  12  21
ATOM     21  N   UNL     1      35.671 -21.491 -20.161  0.00  0.00    -0.219 N 
ATOM     22  H   UNL     1      36.307 -21.996 -20.717  0.00  0.00    +0.173 HD
BRANCH  21  23
ATOM     23  S   UNL     1      35.142 -19.920 -20.628  0.00  0.00    +0.056 S 
ATOM     24  O   UNL     1      33.756 -19.766 -20.233  0.00  0.00    -0.154 OA
ATOM     25  O   UNL     1      36.125 -18.915 -20.275  0.00  0.00    -0.154 OA
ATOM     26  C   UNL     1      35.157 -20.098 -22.398  0.00  0.00    +0.200 C 
ENDBRANCH  21  23
ENDBRANCH  12  21
TORSDOF 3
ENDMDL
MODEL 2
REMARK VINA RESULT:      -8.7      2.545      4.508
REMARK  Name = 24744336
REMARK  3 active torsions:
REMARK  status: ('A' for Active; 'I' for Inactive)
REMARK    1  A    between atoms: N_3  and  C_15
REMARK    2  A    between atoms: C_12  and  N_21
REMARK    3  A    between atoms: N_21  and  S_23
REMARK                            x       y       z     vdW  Elec       q    Type
REMARK                         _______ _______ _______ _____ _____    ______ ____
ROOT
ATOM      1  O   UNL     1      32.212 -23.672 -16.978  0.00  0.00    -0.473 OA
ATOM      2  O   UNL     1      33.109 -24.777 -13.743  0.00  0.00    -0.270 OA
ATOM      3  N   UNL     1      34.489 -23.739 -15.318  0.00  0.00    -0.232 N 
ATOM      4  C   UNL     1      32.035 -23.623 -15.566  0.00  0.00    +0.202 C 
ATOM      5  C   UNL     1      33.253 -24.124 -14.778  0.00  0.00    +0.269 C 
ATOM      6  C   UNL     1      34.549 -23.137 -16.613  0.00  0.00    +0.092 C 
ATOM      7  C   UNL     1      33.400 -23.151 -17.410  0.00  0.00    +0.154 C 
ATOM      8  C   UNL     1      30.832 -24.532 -15.276  0.00  0.00    +0.053 C 
ATOM      9  C   UNL     1      31.684 -22.194 -15.122  0.00  0.00    +0.053 C 
ATOM     10  C   UNL     1      33.408 -22.637 -18.711  0.00  0.00    +0.054 C 
ATOM     11  C   UNL     1      35.690 -22.495 -17.126  0.00  0.00    +0.020 C 
ATOM     12  C   UNL     1      34.559 -22.043 -19.215  0.00  0.00    +0.068 C 
ATOM     13  C   UNL     1      35.696 -21.960 -18.417  0.00  0.00    +0.017 C 
ENDROOT
BRANCH   3  15
ATOM     14  F   UNL     1      39.173 -24.896 -12.548  0.00  0.00    -0.204 F 
ATOM     15  C   UNL     1      35.697 -24.037 -14.603  0.00  0.00    +0.058 C 
ATOM     16  C   UNL     1      36.435 -25.175 -14.927  0.00  0.00    +0.018 C 
ATOM     17  C   UNL     1      36.132 -23.189 -13.585  0.00  0.00    +0.018 C 
ATOM     18  C   UNL     1      37.610 -25.465 -14.232  0.00  0.00    +0.031 C 
ATOM     19  C   UNL     1      37.306 -23.479 -12.890  0.00  0.00    +0.031 C 
ATOM     20  C   UNL     1      38.045 -24.617 -13.215  0.00  0.00    +0.140 C 
ENDBRANCH   3  15
BRANCH  12  21
ATOM     21  N   UNL     1      34.570 -21.505 -20.537  0.00  0.00    -0.219 N 
ATOM     22  H   UNL     1      34.676 -22.091 -21.321  0.00  0.00    +0.173 HD
BRANCH  21  23
ATOM     23  S   UNL     1      34.392 -19.802 -20.724  0.00  0.00    +0.056 S 
ATOM     24  O   UNL     1      33.043 -19.437 -20.335  0.00  0.00    -0.154 OA
ATOM     25  O   UNL     1      35.533 -19.098 -20.175  0.00  0.00    -0.154 OA
ATOM     26  C   UNL     1      34.472 -19.670 -22.496  0.00  0.00    +0.200 C 
ENDBRANCH  21  23
ENDBRANCH  12  21
TORSDOF 3
ENDMDL
MODEL 3
REMARK VINA RESULT:      -8.5      3.803      6.845
REMARK  Name = 24744336
REMARK  3 active torsions:
REMARK  status: ('A' for Active; 'I' for Inactive)
REMARK    1  A    between atoms: N_3  and  C_15
REMARK    2  A    between atoms: C_12  and  N_21
REMARK    3  A    between atoms: N_21  and  S_23
REMARK                            x       y       z     vdW  Elec       q    Type
REMARK                         _______ _______ _______ _____ _____    ______ ____
ROOT
ATOM      1  O   UNL     1      31.573 -23.506 -14.279  0.00  0.00    -0.473 OA
ATOM      2  O   UNL     1      30.652 -22.227 -17.443  0.00  0.00    -0.270 OA
ATOM      3  N   UNL     1      32.779 -22.909 -16.757  0.00  0.00    -0.232 N 
ATOM      4  C   UNL     1      30.790 -23.597 -15.465  0.00  0.00    +0.202 C 
ATOM      5  C   UNL     1      31.383 -22.826 -16.653  0.00  0.00    +0.269 C 
ATOM      6  C   UNL     1      33.545 -23.478 -15.691  0.00  0.00    +0.092 C 
ATOM      7  C   UNL     1      32.907 -23.732 -14.473  0.00  0.00    +0.154 C 
ATOM      8  C   UNL     1      29.425 -22.996 -15.098  0.00  0.00    +0.053 C 
ATOM      9  C   UNL     1      30.584 -25.070 -15.857  0.00  0.00    +0.053 C 
ATOM     10  C   UNL     1      33.611 -24.228 -13.371  0.00  0.00    +0.054 C 
ATOM     11  C   UNL     1      34.900 -23.833 -15.805  0.00  0.00    +0.020 C 
ATOM     12  C   UNL     1      34.962 -24.535 -13.491  0.00  0.00    +0.068 C 
ATOM     13  C   UNL     1      35.603 -24.350 -14.712  0.00  0.00    +0.017 C 
ENDROOT
BRANCH   3  15
ATOM     14  F   UNL     1      35.342 -20.693 -21.169  0.00  0.00    -0.204 F 
ATOM     15  C   UNL     1      33.439 -22.338 -17.895  0.00  0.00    +0.058 C 
ATOM     16  C   UNL     1      34.818 -22.487 -18.048  0.00  0.00    +0.018 C 
ATOM     17  C   UNL     1      32.703 -21.633 -18.846  0.00  0.00    +0.018 C 
ATOM     18  C   UNL     1      35.460 -21.930 -19.154  0.00  0.00    +0.031 C 
ATOM     19  C   UNL     1      33.346 -21.077 -19.953  0.00  0.00    +0.031 C 
ATOM     20  C   UNL     1      34.725 -21.226 -20.106  0.00  0.00    +0.140 C 
ENDBRANCH   3  15
BRANCH  12  21
ATOM     21  N   UNL     1      35.684 -25.053 -12.374  0.00  0.00    -0.219 N 
ATOM     22  H   UNL     1      35.624 -26.004 -12.130  0.00  0.00    +0.173 HD
BRANCH  21  23
ATOM     23  S   UNL     1      36.664 -23.967 -11.464  0.00  0.00    +0.056 S 
ATOM     24  O   UNL     1      36.542 -22.643 -12.044  0.00  0.00    -0.154 OA
ATOM     25  O   UNL     1      36.478 -24.168 -10.041  0.00  0.00    -0.154 OA
ATOM     26  C   UNL     1      38.282 -24.570 -11.893  0.00  0.00    +0.200 C 
ENDBRANCH  21  23
ENDBRANCH  12  21
TORSDOF 3
ENDMDL
MODEL 4
REMARK VINA RESULT:      -8.5     10.861     14.578
REMARK  Name = 24744336
REMARK  3 active torsions:
REMARK  status: ('A' for Active; 'I' for Inactive)
REMARK    1  A    between atoms: N_3  and  C_15
REMARK    2  A    between atoms: C_12  and  N_21
REMARK    3  A    between atoms: N_21  and  S_23
REMARK                            x       y       z     vdW  Elec       q    Type
REMARK                         _______ _______ _______ _____ _____    ______ ____
ROOT
ATOM      1  O   UNL     1      32.329 -12.203 -20.870  0.00  0.00    -0.473 OA
ATOM      2  O   UNL     1      31.970  -8.696 -20.607  0.00  0.00    -0.270 OA
ATOM      3  N   UNL     1      32.567  -9.920 -22.507  0.00  0.00    -0.232 N 
ATOM      4  C   UNL     1      31.523 -11.065 -20.584  0.00  0.00    +0.202 C 
ATOM      5  C   UNL     1      32.048  -9.767 -21.213  0.00  0.00    +0.269 C 
ATOM      6  C   UNL     1      32.775 -11.228 -23.046  0.00  0.00    +0.092 C 
ATOM      7  C   UNL     1      32.671 -12.327 -22.187  0.00  0.00    +0.154 C 
ATOM      8  C   UNL     1      31.537 -10.932 -19.054  0.00  0.00    +0.053 C 
ATOM      9  C   UNL     1      30.075 -11.310 -21.039  0.00  0.00    +0.053 C 
ATOM     10  C   UNL     1      32.925 -13.629 -22.635  0.00  0.00    +0.054 C 
ATOM     11  C   UNL     1      33.044 -11.482 -24.401  0.00  0.00    +0.020 C 
ATOM     12  C   UNL     1      33.231 -13.855 -23.972  0.00  0.00    +0.068 C 
ATOM     13  C   UNL     1      33.277 -12.783 -24.858  0.00  0.00    +0.017 C 
ENDROOT
BRANCH   3  15
ATOM     14  F   UNL     1      34.133  -5.425 -25.386  0.00  0.00    -0.204 F 
ATOM     15  C   UNL     1      32.971  -8.761 -23.249  0.00  0.00    +0.058 C 
ATOM     16  C   UNL     1      32.008  -7.909 -23.789  0.00  0.00    +0.018 C 
ATOM     17  C   UNL     1      34.326  -8.487 -23.431  0.00  0.00    +0.018 C 
ATOM     18  C   UNL     1      32.401  -6.782 -24.511  0.00  0.00    +0.031 C 
ATOM     19  C   UNL     1      34.719  -7.361 -24.153  0.00  0.00    +0.031 C 
ATOM     20  C   UNL     1      33.756  -6.508 -24.693  0.00  0.00    +0.140 C 
ENDBRANCH   3  15
BRANCH  12  21
ATOM     21  N   UNL     1      33.479 -15.181 -24.438  0.00  0.00    -0.219 N 
ATOM     22  H   UNL     1      33.136 -15.483 -25.309  0.00  0.00    +0.173 HD
BRANCH  21  23
ATOM     23  S   UNL     1      34.396 -16.238 -23.434  0.00  0.00    +0.056 S 
ATOM     24  O   UNL     1      35.714 -15.662 -23.246  0.00  0.00    -0.154 OA
ATOM     25  O   UNL     1      33.616 -16.679 -22.296  0.00  0.00    -0.154 OA
ATOM     26  C   UNL     1      34.591 -17.624 -24.532  0.00  0.00    +0.200 C 
ENDBRANCH  21  23
ENDBRANCH  12  21
TORSDOF 3
ENDMDL
MODEL 5
REMARK VINA RESULT:      -8.1      3.987      6.471
REMARK  Name = 24744336
REMARK  3 active torsions:
REMARK  status: ('A' for Active; 'I' for Inactive)
REMARK    1  A    between atoms: N_3  and  C_15
REMARK    2  A    between atoms: C_12  and  N_21
REMARK    3  A    between atoms: N_21  and  S_23
REMARK                            x       y       z     vdW  Elec       q    Type
REMARK                         _______ _______ _______ _____ _____    ______ ____
ROOT
ATOM      1  O   UNL     1      35.218 -25.060 -13.511  0.00  0.00    -0.473 OA
ATOM      2  O   UNL     1      38.002 -23.702 -15.214  0.00  0.00    -0.270 OA
ATOM      3  N   UNL     1      35.748 -23.176 -15.540  0.00  0.00    -0.232 N 
ATOM      4  C   UNL     1      36.453 -24.352 -13.485  0.00  0.00    +0.202 C 
ATOM      5  C   UNL     1      36.829 -23.726 -14.836  0.00  0.00    +0.269 C 
ATOM      6  C   UNL     1      34.409 -23.414 -15.098  0.00  0.00    +0.092 C 
ATOM      7  C   UNL     1      34.195 -24.377 -14.106  0.00  0.00    +0.154 C 
ATOM      8  C   UNL     1      37.511 -25.393 -13.093  0.00  0.00    +0.053 C 
ATOM      9  C   UNL     1      36.419 -23.260 -12.403  0.00  0.00    +0.053 C 
ATOM     10  C   UNL     1      32.905 -24.705 -13.674  0.00  0.00    +0.054 C 
ATOM     11  C   UNL     1      33.291 -22.710 -15.575  0.00  0.00    +0.020 C 
ATOM     12  C   UNL     1      31.807 -24.025 -14.190  0.00  0.00    +0.068 C 
ATOM     13  C   UNL     1      32.001 -23.019 -15.130  0.00  0.00    +0.017 C 
ENDROOT
BRANCH   3  15
ATOM     14  F   UNL     1      36.682 -20.368 -20.250  0.00  0.00    -0.204 F 
ATOM     15  C   UNL     1      35.989 -22.451 -16.754  0.00  0.00    +0.058 C 
ATOM     16  C   UNL     1      35.180 -22.671 -17.868  0.00  0.00    +0.018 C 
ATOM     17  C   UNL     1      37.032 -21.529 -16.820  0.00  0.00    +0.018 C 
ATOM     18  C   UNL     1      35.414 -21.967 -19.050  0.00  0.00    +0.031 C 
ATOM     19  C   UNL     1      37.267 -20.825 -18.001  0.00  0.00    +0.031 C 
ATOM     20  C   UNL     1      36.457 -21.044 -19.116  0.00  0.00    +0.140 C 
ENDBRANCH   3  15
BRANCH  12  21
ATOM     21  N   UNL     1      30.490 -24.346 -13.744  0.00  0.00    -0.219 N 
ATOM     22  H   UNL     1      30.229 -24.218 -12.804  0.00  0.00    +0.173 HD
BRANCH  21  23
ATOM     23  S   UNL     1      29.368 -24.962 -14.898  0.00  0.00    +0.056 S 
ATOM     24  O   UNL     1      30.114 -25.537 -16.000  0.00  0.00    -0.154 OA
ATOM     25  O   UNL     1      28.316 -25.716 -14.246  0.00  0.00    -0.154 OA
ATOM     26  C   UNL     1      28.662 -23.441 -15.491  0.00  0.00    +0.200 C 
ENDBRANCH  21  23
ENDBRANCH  12  21
TORSDOF 3
ENDMDL
MODEL 6
REMARK VINA RESULT:      -7.7      8.847     13.362
REMARK  Name = 24744336
REMARK  3 active torsions:
REMARK  status: ('A' for Active; 'I' for Inactive)
REMARK    1  A    between atoms: N_3  and  C_15
REMARK    2  A    between atoms: C_12  and  N_21
REMARK    3  A    between atoms: N_21  and  S_23
REMARK                            x       y       z     vdW  Elec       q    Type
REMARK                         _______ _______ _______ _____ _____    ______ ____
ROOT
ATOM      1  O   UNL     1      32.248 -12.288 -20.491  0.00  0.00    -0.473 OA
ATOM      2  O   UNL     1      32.614  -9.488 -22.617  0.00  0.00    -0.270 OA
ATOM      3  N   UNL     1      33.140 -11.712 -23.103  0.00  0.00    -0.232 N 
ATOM      4  C   UNL     1      31.675 -11.185 -21.186  0.00  0.00    +0.202 C 
ATOM      5  C   UNL     1      32.529 -10.690 -22.362  0.00  0.00    +0.269 C 
ATOM      6  C   UNL     1      33.122 -13.058 -22.618  0.00  0.00    +0.092 C 
ATOM      7  C   UNL     1      32.696 -13.289 -21.307  0.00  0.00    +0.154 C 
ATOM      8  C   UNL     1      31.551 -10.066 -20.140  0.00  0.00    +0.053 C 
ATOM      9  C   UNL     1      30.266 -11.543 -21.685  0.00  0.00    +0.053 C 
ATOM     10  C   UNL     1      32.715 -14.572 -20.749  0.00  0.00    +0.054 C 
ATOM     11  C   UNL     1      33.477 -14.174 -23.395  0.00  0.00    +0.020 C 
ATOM     12  C   UNL     1      33.109 -15.659 -21.522  0.00  0.00    +0.068 C 
ATOM     13  C   UNL     1      33.476 -15.461 -22.849  0.00  0.00    +0.017 C 
ENDROOT
BRANCH   3  15
ATOM     14  F   UNL     1      35.927 -10.443 -27.746  0.00  0.00    -0.204 F 
ATOM     15  C   UNL     1      33.858 -11.386 -24.301  0.00  0.00    +0.058 C 
ATOM     16  C   UNL     1      34.825 -10.380 -24.280  0.00  0.00    +0.018 C 
ATOM     17  C   UNL     1      33.590 -12.072 -25.484  0.00  0.00    +0.018 C 
ATOM     18  C   UNL     1      35.523 -10.062 -25.445  0.00  0.00    +0.031 C 
ATOM     19  C   UNL     1      34.289 -11.754 -26.649  0.00  0.00    +0.031 C 
ATOM     20  C   UNL     1      35.256 -10.749 -26.629  0.00  0.00    +0.140 C 
ENDBRANCH   3  15
BRANCH  12  21
ATOM     21  N   UNL     1      33.118 -16.972 -20.963  0.00  0.00    -0.219 N 
ATOM     22  H   UNL     1      32.397 -17.272 -20.365  0.00  0.00    +0.173 HD
BRANCH  21  23
ATOM     23  S   UNL     1      34.427 -18.018 -21.367  0.00  0.00    +0.056 S 
ATOM     24  O   UNL     1      34.512 -18.109 -22.812  0.00  0.00    -0.154 OA
ATOM     25  O   UNL     1      35.601 -17.707 -20.577  0.00  0.00    -0.154 OA
ATOM     26  C   UNL     1      33.777 -19.570 -20.790  0.00  0.00    +0.200 C 
ENDBRANCH  21  23
ENDBRANCH  12  21
TORSDOF 3
ENDMDL
MODEL 7
REMARK VINA RESULT:      -7.5      9.088     12.283
REMARK  Name = 24744336
REMARK  3 active torsions:
REMARK  status: ('A' for Active; 'I' for Inactive)
REMARK    1  A    between atoms: N_3  and  C_15
REMARK    2  A    between atoms: C_12  and  N_21
REMARK    3  A    between atoms: N_21  and  S_23
REMARK                            x       y       z     vdW  Elec       q    Type
REMARK                         _______ _______ _______ _____ _____    ______ ____
ROOT
ATOM      1  O   UNL     1      33.548 -12.996 -25.399  0.00  0.00    -0.473 OA
ATOM      2  O   UNL     1      34.753 -16.229 -26.166  0.00  0.00    -0.270 OA
ATOM      3  N   UNL     1      33.916 -15.479 -24.117  0.00  0.00    -0.232 N 
ATOM      4  C   UNL     1      33.472 -14.188 -26.174  0.00  0.00    +0.202 C 
ATOM      5  C   UNL     1      34.129 -15.401 -25.501  0.00  0.00    +0.269 C 
ATOM      6  C   UNL     1      33.331 -14.377 -23.418  0.00  0.00    +0.092 C 
ATOM      7  C   UNL     1      33.193 -13.158 -24.089  0.00  0.00    +0.154 C 
ATOM      8  C   UNL     1      34.210 -13.869 -27.483  0.00  0.00    +0.053 C 
ATOM      9  C   UNL     1      32.006 -14.514 -26.508  0.00  0.00    +0.053 C 
ATOM     10  C   UNL     1      32.689 -12.023 -23.445  0.00  0.00    +0.054 C 
ATOM     11  C   UNL     1      32.850 -14.453 -22.099  0.00  0.00    +0.020 C 
ATOM     12  C   UNL     1      32.257 -12.109 -22.126  0.00  0.00    +0.068 C 
ATOM     13  C   UNL     1      32.325 -13.327 -21.458  0.00  0.00    +0.017 C 
ENDROOT
BRANCH   3  15
ATOM     14  F   UNL     1      35.681 -19.950 -21.316  0.00  0.00    -0.204 F 
ATOM     15  C   UNL     1      34.370 -16.632 -23.395  0.00  0.00    +0.058 C 
ATOM     16  C   UNL     1      34.920 -16.485 -22.121  0.00  0.00    +0.018 C 
ATOM     17  C   UNL     1      34.264 -17.899 -23.967  0.00  0.00    +0.018 C 
ATOM     18  C   UNL     1      35.363 -17.606 -21.419  0.00  0.00    +0.031 C 
ATOM     19  C   UNL     1      34.707 -19.021 -23.265  0.00  0.00    +0.031 C 
ATOM     20  C   UNL     1      35.256 -18.873 -21.990  0.00  0.00    +0.140 C 
ENDBRANCH   3  15
BRANCH  12  21
ATOM     21  N   UNL     1      31.729 -10.958 -21.467  0.00  0.00    -0.219 N 
ATOM     22  H   UNL     1      31.226 -11.043 -20.626  0.00  0.00    +0.173 HD
BRANCH  21  23
ATOM     23  S   UNL     1      32.000  -9.415 -22.183  0.00  0.00    +0.056 S 
ATOM     24  O   UNL     1      33.348  -9.387 -22.718  0.00  0.00    -0.154 OA
ATOM     25  O   UNL     1      30.873  -9.020 -23.004  0.00  0.00    -0.154 OA
ATOM     26  C   UNL     1      32.000  -8.390 -20.729  0.00  0.00    +0.200 C 
ENDBRANCH  21  23
ENDBRANCH  12  21
TORSDOF 3
ENDMDL
MODEL 8
REMARK VINA RESULT:      -7.3      6.529      9.837
REMARK  Name = 24744336
REMARK  3 active torsions:
REMARK  status: ('A' for Active; 'I' for Inactive)
REMARK    1  A    between atoms: N_3  and  C_15
REMARK    2  A    between atoms: C_12  and  N_21
REMARK    3  A    between atoms: N_21  and  S_23
REMARK                            x       y       z     vdW  Elec       q    Type
REMARK                         _______ _______ _______ _____ _____    ______ ____
ROOT
ATOM      1  O   UNL     1      34.632 -15.015 -23.641  0.00  0.00    -0.473 OA
ATOM      2  O   UNL     1      35.390 -18.439 -24.078  0.00  0.00    -0.270 OA
ATOM      3  N   UNL     1      34.224 -17.463 -22.304  0.00  0.00    -0.232 N 
ATOM      4  C   UNL     1      34.536 -16.210 -24.409  0.00  0.00    +0.202 C 
ATOM      5  C   UNL     1      34.780 -17.486 -23.591  0.00  0.00    +0.269 C 
ATOM      6  C   UNL     1      33.692 -16.245 -21.774  0.00  0.00    +0.092 C 
ATOM      7  C   UNL     1      33.944 -15.053 -22.461  0.00  0.00    +0.154 C 
ATOM      8  C   UNL     1      35.617 -16.085 -25.493  0.00  0.00    +0.053 C 
ATOM      9  C   UNL     1      33.164 -16.293 -25.097  0.00  0.00    +0.053 C 
ATOM     10  C   UNL     1      33.507 -13.819 -21.965  0.00  0.00    +0.054 C 
ATOM     11  C   UNL     1      32.897 -16.176 -20.617  0.00  0.00    +0.020 C 
ATOM     12  C   UNL     1      32.757 -13.768 -20.795  0.00  0.00    +0.068 C 
ATOM     13  C   UNL     1      32.440 -14.948 -20.130  0.00  0.00    +0.017 C 
ENDROOT
BRANCH   3  15
ATOM     14  F   UNL     1      34.422 -22.038 -19.147  0.00  0.00    -0.204 F 
ATOM     15  C   UNL     1      34.274 -18.642 -21.489  0.00  0.00    +0.058 C 
ATOM     16  C   UNL     1      35.505 -19.145 -21.068  0.00  0.00    +0.018 C 
ATOM     17  C   UNL     1      33.094 -19.286 -21.121  0.00  0.00    +0.018 C 
ATOM     18  C   UNL     1      35.554 -20.293 -20.276  0.00  0.00    +0.031 C 
ATOM     19  C   UNL     1      33.143 -20.434 -20.329  0.00  0.00    +0.031 C 
ATOM     20  C   UNL     1      34.374 -20.937 -19.907  0.00  0.00    +0.140 C 
ENDBRANCH   3  15
BRANCH  12  21
ATOM     21  N   UNL     1      32.299 -12.514 -20.290  0.00  0.00    -0.219 N 
ATOM     22  H   UNL     1      32.426 -12.273 -19.345  0.00  0.00    +0.173 HD
BRANCH  21  23
ATOM     23  S   UNL     1      31.517 -11.434 -21.382  0.00  0.00    +0.056 S 
ATOM     24  O   UNL     1      32.209 -11.490 -22.655  0.00  0.00    -0.154 OA
ATOM     25  O   UNL     1      30.078 -11.584 -21.318  0.00  0.00    -0.154 OA
ATOM     26  C   UNL     1      31.937  -9.876 -20.635  0.00  0.00    +0.200 C 
ENDBRANCH  21  23
ENDBRANCH  12  21
TORSDOF 3
ENDMDL
MODEL 9
REMARK VINA RESULT:      -7.1      3.883      7.157
REMARK  Name = 24744336
REMARK  3 active torsions:
REMARK  status: ('A' for Active; 'I' for Inactive)
REMARK    1  A    between atoms: N_3  and  C_15
REMARK    2  A    between atoms: C_12  and  N_21
REMARK    3  A    between atoms: N_21  and  S_23
REMARK                            x       y       z     vdW  Elec       q    Type
REMARK                         _______ _______ _______ _____ _____    ______ ____
ROOT
ATOM      1  O   UNL     1      33.647 -23.120 -16.060  0.00  0.00    -0.473 OA
ATOM      2  O   UNL     1      32.517 -21.846 -19.157  0.00  0.00    -0.270 OA
ATOM      3  N   UNL     1      34.714 -21.885 -18.359  0.00  0.00    -0.232 N 
ATOM      4  C   UNL     1      32.998 -23.319 -17.311  0.00  0.00    +0.202 C 
ATOM      5  C   UNL     1      33.364 -22.266 -18.367  0.00  0.00    +0.269 C 
ATOM      6  C   UNL     1      35.569 -22.298 -17.290  0.00  0.00    +0.092 C 
ATOM      7  C   UNL     1      34.989 -22.883 -16.159  0.00  0.00    +0.154 C 
ATOM      8  C   UNL     1      31.495 -23.234 -17.007  0.00  0.00    +0.053 C 
ATOM      9  C   UNL     1      33.306 -24.724 -17.854  0.00  0.00    +0.053 C 
ATOM     10  C   UNL     1      35.761 -23.251 -15.052  0.00  0.00    +0.054 C 
ATOM     11  C   UNL     1      36.969 -22.185 -17.320  0.00  0.00    +0.020 C 
ATOM     12  C   UNL     1      37.142 -23.092 -15.085  0.00  0.00    +0.068 C 
ATOM     13  C   UNL     1      37.747 -22.572 -16.224  0.00  0.00    +0.017 C 
ENDROOT
BRANCH   3  15
ATOM     14  F   UNL     1      36.627 -18.469 -22.310  0.00  0.00    -0.204 F 
ATOM     15  C   UNL     1      35.206 -21.004 -19.378  0.00  0.00    +0.058 C 
ATOM     16  C   UNL     1      36.577 -20.781 -19.502  0.00  0.00    +0.018 C 
ATOM     17  C   UNL     1      34.315 -20.371 -20.243  0.00  0.00    +0.018 C 
ATOM     18  C   UNL     1      37.057 -19.924 -20.493  0.00  0.00    +0.031 C 
ATOM     19  C   UNL     1      34.794 -19.514 -21.234  0.00  0.00    +0.031 C 
ATOM     20  C   UNL     1      36.166 -19.291 -21.359  0.00  0.00    +0.140 C 
ENDBRANCH   3  15
BRANCH  12  21
ATOM     21  N   UNL     1      37.937 -23.478 -13.964  0.00  0.00    -0.219 N 
ATOM     22  H   UNL     1      38.083 -22.861 -13.211  0.00  0.00    +0.173 HD
BRANCH  21  23
ATOM     23  S   UNL     1      38.632 -25.054 -13.963  0.00  0.00    +0.056 S 
ATOM     24  O   UNL     1      38.026 -25.823 -15.033  0.00  0.00    -0.154 OA
ATOM     25  O   UNL     1      40.073 -24.985 -13.830  0.00  0.00    -0.154 OA
ATOM     26  C   UNL     1      37.973 -25.686 -12.436  0.00  0.00    +0.200 C 
ENDBRANCH  21  23
ENDBRANCH  12  21
TORSDOF 3
ENDMDL
