MODEL 1
REMARK VINA RESULT:      -6.5      0.000      0.000
REMARK  Name = 16666
REMARK  2 active torsions:
REMARK  status: ('A' for Active; 'I' for Inactive)
REMARK    1  A    between atoms: C_1  and  C_8
REMARK    2  A    between atoms: C_2  and  O_11
REMARK                            x       y       z     vdW  Elec       q    Type
REMARK                         _______ _______ _______ _____ _____    ______ ____
ROOT
ATOM      1  C   UNL     1      35.062 -18.913 -21.566  0.00  0.00    +0.027 C 
ATOM      2  C   UNL     1      36.070 -19.460 -20.541  0.00  0.00    +0.110 C 
ATOM      3  C   UNL     1      33.625 -19.050 -21.045  0.00  0.00    +0.002 C 
ATOM      4  C   UNL     1      34.301 -21.026 -19.613  0.00  0.00    +0.002 C 
ATOM      5  C   UNL     1      35.735 -20.898 -20.134  0.00  0.00    +0.029 C 
ATOM      6  C   UNL     1      33.300 -20.487 -20.643  0.00  0.00    +0.000 C 
ATOM      7  C   UNL     1      33.982 -22.477 -19.259  0.00  0.00    +0.000 C 
ENDROOT
BRANCH   1   8
ATOM      8  C   UNL     1      35.363 -17.454 -21.919  0.00  0.00    +0.002 C 
ATOM      9  C   UNL     1      35.011 -17.176 -23.378  0.00  0.00    +0.000 C 
ATOM     10  C   UNL     1      34.600 -16.513 -20.992  0.00  0.00    +0.000 C 
ENDBRANCH   1   8
BRANCH   2  11
ATOM     11  O   UNL     1      37.378 -19.435 -21.106  0.00  0.00    -0.384 OA
ATOM     12  H   UNL     1      37.899 -18.734 -20.684  0.00  0.00    +0.210 HD
ENDBRANCH   2  11
TORSDOF 2
ENDMDL
MODEL 2
REMARK VINA RESULT:      -6.4      2.400      5.142
REMARK  Name = 16666
REMARK  2 active torsions:
REMARK  status: ('A' for Active; 'I' for Inactive)
REMARK    1  A    between atoms: C_1  and  C_8
REMARK    2  A    between atoms: C_2  and  O_11
REMARK                            x       y       z     vdW  Elec       q    Type
REMARK                         _______ _______ _______ _____ _____    ______ ____
ROOT
ATOM      1  C   UNL     1      34.532 -16.884 -21.663  0.00  0.00    +0.027 C 
ATOM      2  C   UNL     1      34.454 -16.168 -23.021  0.00  0.00    +0.110 C 
ATOM      3  C   UNL     1      33.212 -16.741 -20.893  0.00  0.00    +0.002 C 
ATOM      4  C   UNL     1      32.710 -14.572 -22.097  0.00  0.00    +0.002 C 
ATOM      5  C   UNL     1      34.029 -14.705 -22.863  0.00  0.00    +0.029 C 
ATOM      6  C   UNL     1      32.799 -15.279 -20.739  0.00  0.00    +0.000 C 
ATOM      7  C   UNL     1      32.337 -13.101 -21.916  0.00  0.00    +0.000 C 
ENDROOT
BRANCH   1   8
ATOM      8  C   UNL     1      34.893 -18.362 -21.831  0.00  0.00    +0.002 C 
ATOM      9  C   UNL     1      36.258 -18.651 -21.214  0.00  0.00    +0.000 C 
ATOM     10  C   UNL     1      33.819 -19.247 -21.204  0.00  0.00    +0.000 C 
ENDBRANCH   1   8
BRANCH   2  11
ATOM     11  O   UNL     1      35.731 -16.210 -23.652  0.00  0.00    -0.384 OA
ATOM     12  H   UNL     1      36.416 -15.962 -23.012  0.00  0.00    +0.210 HD
ENDBRANCH   2  11
TORSDOF 2
ENDMDL
MODEL 3
REMARK VINA RESULT:      -6.4      9.244     11.440
REMARK  Name = 16666
REMARK  2 active torsions:
REMARK  status: ('A' for Active; 'I' for Inactive)
REMARK    1  A    between atoms: C_1  and  C_8
REMARK    2  A    between atoms: C_2  and  O_11
REMARK                            x       y       z     vdW  Elec       q    Type
REMARK                         _______ _______ _______ _____ _____    ______ ____
ROOT
ATOM      1  C   UNL     1      32.559  -7.841 -21.695  0.00  0.00    +0.027 C 
ATOM      2  C   UNL     1      32.211  -7.931 -20.200  0.00  0.00    +0.110 C 
ATOM      3  C   UNL     1      31.689  -8.803 -22.516  0.00  0.00    +0.002 C 
ATOM      4  C   UNL     1      31.421 -10.322 -20.510  0.00  0.00    +0.002 C 
ATOM      5  C   UNL     1      32.295  -9.371 -19.687  0.00  0.00    +0.029 C 
ATOM      6  C   UNL     1      31.780 -10.236 -21.998  0.00  0.00    +0.000 C 
ATOM      7  C   UNL     1      31.561 -11.757 -20.003  0.00  0.00    +0.000 C 
ENDROOT
BRANCH   1   8
ATOM      8  C   UNL     1      32.410  -6.410 -22.218  0.00  0.00    +0.002 C 
ATOM      9  C   UNL     1      32.658  -6.365 -23.723  0.00  0.00    +0.000 C 
ATOM     10  C   UNL     1      31.026  -5.861 -21.883  0.00  0.00    +0.000 C 
ENDBRANCH   1   8
BRANCH   2  11
ATOM     11  O   UNL     1      33.119  -7.124 -19.455  0.00  0.00    -0.384 OA
ATOM     12  H   UNL     1      33.966  -7.588 -19.367  0.00  0.00    +0.210 HD
ENDBRANCH   2  11
TORSDOF 2
ENDMDL
MODEL 4
REMARK VINA RESULT:      -6.4      1.974      2.737
REMARK  Name = 16666
REMARK  2 active torsions:
REMARK  status: ('A' for Active; 'I' for Inactive)
REMARK    1  A    between atoms: C_1  and  C_8
REMARK    2  A    between atoms: C_2  and  O_11
REMARK                            x       y       z     vdW  Elec       q    Type
REMARK                         _______ _______ _______ _____ _____    ______ ____
ROOT
ATOM      1  C   UNL     1      34.723 -19.583 -20.645  0.00  0.00    +0.027 C 
ATOM      2  C   UNL     1      33.282 -20.114 -20.715  0.00  0.00    +0.110 C 
ATOM      3  C   UNL     1      35.724 -20.738 -20.500  0.00  0.00    +0.002 C 
ATOM      4  C   UNL     1      33.956 -22.169 -19.388  0.00  0.00    +0.002 C 
ATOM      5  C   UNL     1      32.955 -21.018 -19.523  0.00  0.00    +0.029 C 
ATOM      6  C   UNL     1      35.391 -21.633 -19.308  0.00  0.00    +0.000 C 
ATOM      7  C   UNL     1      33.632 -23.026 -18.165  0.00  0.00    +0.000 C 
ENDROOT
BRANCH   1   8
ATOM      8  C   UNL     1      35.066 -18.734 -21.872  0.00  0.00    +0.002 C 
ATOM      9  C   UNL     1      36.553 -18.392 -21.885  0.00  0.00    +0.000 C 
ATOM     10  C   UNL     1      34.669 -19.462 -23.152  0.00  0.00    +0.000 C 
ENDBRANCH   1   8
BRANCH   2  11
ATOM     11  O   UNL     1      32.374 -19.015 -20.721  0.00  0.00    -0.384 OA
ATOM     12  H   UNL     1      32.706 -18.319 -20.133  0.00  0.00    +0.210 HD
ENDBRANCH   2  11
TORSDOF 2
ENDMDL
MODEL 5
REMARK VINA RESULT:      -6.4      1.777      2.633
REMARK  Name = 16666
REMARK  2 active torsions:
REMARK  status: ('A' for Active; 'I' for Inactive)
REMARK    1  A    between atoms: C_1  and  C_8
REMARK    2  A    between atoms: C_2  and  O_11
REMARK                            x       y       z     vdW  Elec       q    Type
REMARK                         _______ _______ _______ _____ _____    ______ ____
ROOT
ATOM      1  C   UNL     1      34.920 -18.743 -21.381  0.00  0.00    +0.027 C 
ATOM      2  C   UNL     1      34.107 -20.026 -21.144  0.00  0.00    +0.110 C 
ATOM      3  C   UNL     1      36.425 -19.042 -21.384  0.00  0.00    +0.002 C 
ATOM      4  C   UNL     1      36.058 -21.049 -19.885  0.00  0.00    +0.002 C 
ATOM      5  C   UNL     1      34.556 -20.751 -19.873  0.00  0.00    +0.029 C 
ATOM      6  C   UNL     1      36.864 -19.764 -20.112  0.00  0.00    +0.000 C 
ATOM      7  C   UNL     1      36.484 -21.731 -18.585  0.00  0.00    +0.000 C 
ENDROOT
BRANCH   1   8
ATOM      8  C   UNL     1      34.512 -18.057 -22.688  0.00  0.00    +0.002 C 
ATOM      9  C   UNL     1      35.176 -16.687 -22.800  0.00  0.00    +0.000 C 
ATOM     10  C   UNL     1      34.874 -18.931 -23.884  0.00  0.00    +0.000 C 
ENDBRANCH   1   8
BRANCH   2  11
ATOM     11  O   UNL     1      32.726 -19.694 -21.021  0.00  0.00    -0.384 OA
ATOM     12  H   UNL     1      32.319 -20.255 -20.342  0.00  0.00    +0.210 HD
ENDBRANCH   2  11
TORSDOF 2
ENDMDL
MODEL 6
REMARK VINA RESULT:      -6.3      1.921      4.999
REMARK  Name = 16666
REMARK  2 active torsions:
REMARK  status: ('A' for Active; 'I' for Inactive)
REMARK    1  A    between atoms: C_1  and  C_8
REMARK    2  A    between atoms: C_2  and  O_11
REMARK                            x       y       z     vdW  Elec       q    Type
REMARK                         _______ _______ _______ _____ _____    ______ ____
ROOT
ATOM      1  C   UNL     1      35.323 -17.538 -22.029  0.00  0.00    +0.027 C 
ATOM      2  C   UNL     1      34.685 -17.316 -23.410  0.00  0.00    +0.110 C 
ATOM      3  C   UNL     1      34.596 -16.720 -20.953  0.00  0.00    +0.002 C 
ATOM      4  C   UNL     1      33.882 -15.019 -22.688  0.00  0.00    +0.002 C 
ATOM      5  C   UNL     1      34.612 -15.828 -23.764  0.00  0.00    +0.029 C 
ATOM      6  C   UNL     1      34.530 -15.238 -21.314  0.00  0.00    +0.000 C 
ATOM      7  C   UNL     1      33.865 -13.534 -23.046  0.00  0.00    +0.000 C 
ENDROOT
BRANCH   1   8
ATOM      8  C   UNL     1      35.334 -19.022 -21.651  0.00  0.00    +0.002 C 
ATOM      9  C   UNL     1      36.510 -19.328 -20.728  0.00  0.00    +0.000 C 
ATOM     10  C   UNL     1      34.015 -19.414 -20.993  0.00  0.00    +0.000 C 
ENDBRANCH   1   8
BRANCH   2  11
ATOM     11  O   UNL     1      35.459 -17.987 -24.402  0.00  0.00    -0.384 OA
ATOM     12  H   UNL     1      35.779 -18.830 -24.045  0.00  0.00    +0.210 HD
ENDBRANCH   2  11
TORSDOF 2
ENDMDL
MODEL 7
REMARK VINA RESULT:      -6.3      1.713      4.636
REMARK  Name = 16666
REMARK  2 active torsions:
REMARK  status: ('A' for Active; 'I' for Inactive)
REMARK    1  A    between atoms: C_1  and  C_8
REMARK    2  A    between atoms: C_2  and  O_11
REMARK                            x       y       z     vdW  Elec       q    Type
REMARK                         _______ _______ _______ _____ _____    ______ ____
ROOT
ATOM      1  C   UNL     1      34.833 -18.432 -21.766  0.00  0.00    +0.027 C 
ATOM      2  C   UNL     1      35.303 -16.972 -21.860  0.00  0.00    +0.110 C 
ATOM      3  C   UNL     1      35.037 -19.159 -23.102  0.00  0.00    +0.002 C 
ATOM      4  C   UNL     1      34.847 -16.968 -24.357  0.00  0.00    +0.002 C 
ATOM      5  C   UNL     1      34.635 -16.239 -23.027  0.00  0.00    +0.029 C 
ATOM      6  C   UNL     1      34.367 -18.422 -24.259  0.00  0.00    +0.000 C 
ATOM      7  C   UNL     1      34.132 -16.239 -25.493  0.00  0.00    +0.000 C 
ENDROOT
BRANCH   1   8
ATOM      8  C   UNL     1      35.552 -19.179 -20.639  0.00  0.00    +0.002 C 
ATOM      9  C   UNL     1      34.906 -20.542 -20.406  0.00  0.00    +0.000 C 
ATOM     10  C   UNL     1      37.035 -19.333 -20.963  0.00  0.00    +0.000 C 
ENDBRANCH   1   8
BRANCH   2  11
ATOM     11  O   UNL     1      34.983 -16.293 -20.648  0.00  0.00    -0.384 OA
ATOM     12  H   UNL     1      35.085 -16.903 -19.900  0.00  0.00    +0.210 HD
ENDBRANCH   2  11
TORSDOF 2
ENDMDL
MODEL 8
REMARK VINA RESULT:      -6.1      2.790      4.249
REMARK  Name = 16666
REMARK  2 active torsions:
REMARK  status: ('A' for Active; 'I' for Inactive)
REMARK    1  A    between atoms: C_1  and  C_8
REMARK    2  A    between atoms: C_2  and  O_11
REMARK                            x       y       z     vdW  Elec       q    Type
REMARK                         _______ _______ _______ _____ _____    ______ ____
ROOT
ATOM      1  C   UNL     1      34.565 -15.102 -22.624  0.00  0.00    +0.027 C 
ATOM      2  C   UNL     1      34.358 -15.829 -21.285  0.00  0.00    +0.110 C 
ATOM      3  C   UNL     1      34.108 -15.979 -23.798  0.00  0.00    +0.002 C 
ATOM      4  C   UNL     1      34.568 -18.073 -22.452  0.00  0.00    +0.002 C 
ATOM      5  C   UNL     1      35.033 -17.204 -21.280  0.00  0.00    +0.029 C 
ATOM      6  C   UNL     1      34.787 -17.347 -23.785  0.00  0.00    +0.000 C 
ATOM      7  C   UNL     1      35.292 -19.419 -22.446  0.00  0.00    +0.000 C 
ENDROOT
BRANCH   1   8
ATOM      8  C   UNL     1      33.834 -13.758 -22.648  0.00  0.00    +0.002 C 
ATOM      9  C   UNL     1      33.831 -13.178 -24.060  0.00  0.00    +0.000 C 
ATOM     10  C   UNL     1      32.409 -13.917 -22.128  0.00  0.00    +0.000 C 
ENDBRANCH   1   8
BRANCH   2  11
ATOM     11  O   UNL     1      34.908 -15.043 -20.231  0.00  0.00    -0.384 OA
ATOM     12  H   UNL     1      34.194 -14.731 -19.654  0.00  0.00    +0.210 HD
ENDBRANCH   2  11
TORSDOF 2
ENDMDL
MODEL 9
REMARK VINA RESULT:      -6.1      1.752      4.612
REMARK  Name = 16666
REMARK  2 active torsions:
REMARK  status: ('A' for Active; 'I' for Inactive)
REMARK    1  A    between atoms: C_1  and  C_8
REMARK    2  A    between atoms: C_2  and  O_11
REMARK                            x       y       z     vdW  Elec       q    Type
REMARK                         _______ _______ _______ _____ _____    ______ ____
ROOT
ATOM      1  C   UNL     1      35.023 -20.713 -20.337  0.00  0.00    +0.027 C 
ATOM      2  C   UNL     1      33.790 -19.807 -20.489  0.00  0.00    +0.110 C 
ATOM      3  C   UNL     1      36.308 -19.877 -20.263  0.00  0.00    +0.002 C 
ATOM      4  C   UNL     1      35.216 -18.024 -21.597  0.00  0.00    +0.002 C 
ATOM      5  C   UNL     1      33.933 -18.856 -21.681  0.00  0.00    +0.029 C 
ATOM      6  C   UNL     1      36.443 -18.933 -21.456  0.00  0.00    +0.000 C 
ATOM      7  C   UNL     1      35.353 -17.119 -22.821  0.00  0.00    +0.000 C 
ENDROOT
BRANCH   1   8
ATOM      8  C   UNL     1      34.904 -21.616 -19.107  0.00  0.00    +0.002 C 
ATOM      9  C   UNL     1      34.353 -22.983 -19.500  0.00  0.00    +0.000 C 
ATOM     10  C   UNL     1      36.258 -21.758 -18.417  0.00  0.00    +0.000 C 
ENDBRANCH   1   8
BRANCH   2  11
ATOM     11  O   UNL     1      32.632 -20.615 -20.683  0.00  0.00    -0.384 OA
ATOM     12  H   UNL     1      32.902 -21.508 -20.949  0.00  0.00    +0.210 HD
ENDBRANCH   2  11
TORSDOF 2
ENDMDL
