MODEL 1
REMARK VINA RESULT:     -10.5      0.000      0.000
REMARK  Name = 446386
REMARK  9 active torsions:
REMARK  status: ('A' for Active; 'I' for Inactive)
REMARK    1  A    between atoms: C_5  and  O_19
REMARK    2  A    between atoms: C_6  and  C_12
REMARK    3  A    between atoms: C_12  and  C_15
REMARK    4  A    between atoms: O_19  and  C_20
REMARK    5  A    between atoms: C_20  and  C_21
REMARK    6  A    between atoms: C_21  and  C_22
REMARK    7  A    between atoms: C_22  and  N_23
REMARK    8  A    between atoms: N_23  and  C_26
REMARK    9  A    between atoms: C_26  and  C_28
REMARK                            x       y       z     vdW  Elec       q    Type
REMARK                         _______ _______ _______ _____ _____    ______ ____
ROOT
ATOM      1  O   UNL     1      35.120 -18.131 -23.424  0.00  0.00    -0.450 OA
ATOM      2  C   UNL     1      34.329 -16.052 -23.034  0.00  0.00    +0.068 A 
ATOM      3  C   UNL     1      34.759 -16.614 -21.802  0.00  0.00    +0.022 A 
ATOM      4  C   UNL     1      34.573 -17.023 -23.998  0.00  0.00    +0.148 A 
ATOM      5  C   UNL     1      33.761 -14.831 -23.437  0.00  0.00    +0.141 C 
ATOM      6  C   UNL     1      35.229 -17.873 -22.095  0.00  0.00    +0.183 A 
ATOM      7  C   UNL     1      34.290 -16.866 -25.354  0.00  0.00    +0.038 C 
ATOM      8  C   UNL     1      33.466 -14.644 -24.795  0.00  0.00    +0.037 C 
ATOM      9  C   UNL     1      34.712 -15.979 -20.471  0.00  0.00    +0.035 C 
ATOM     10  C   UNL     1      33.727 -15.644 -25.734  0.00  0.00    +0.006 C 
ENDROOT
BRANCH   6  12
ATOM     11  O   UNL     1      37.007 -19.012 -21.042  0.00  0.00    -0.280 OA
ATOM     12  C   UNL     1      35.781 -18.893 -21.268  0.00  0.00    +0.261 C 
BRANCH  12  15
ATOM     13  N   UNL     1      35.227 -20.887 -19.882  0.00  0.00    -0.266 N 
ATOM     14  N   UNL     1      33.578 -19.742 -20.832  0.00  0.00    -0.224 NA
ATOM     15  C   UNL     1      34.843 -19.865 -20.645  0.00  0.00    +0.178 C 
ATOM     16  C   UNL     1      34.073 -21.520 -19.518  0.00  0.00    +0.088 C 
ATOM     17  C   UNL     1      36.563 -21.278 -19.498  0.00  0.00    +0.119 C 
ATOM     18  C   UNL     1      33.069 -20.796 -20.116  0.00  0.00    +0.117 C 
ENDBRANCH  12  15
ENDBRANCH   6  12
BRANCH   5  19
ATOM     19  O   UNL     1      33.492 -13.828 -22.545  0.00  0.00    -0.475 OA
BRANCH  19  20
ATOM     20  C   UNL     1      32.195 -13.821 -21.961  0.00  0.00    +0.203 C 
BRANCH  20  21
ATOM     21  C   UNL     1      32.246 -13.036 -20.657  0.00  0.00    +0.024 C 
BRANCH  21  22
ATOM     22  C   UNL     1      31.512 -11.704 -20.776  0.00  0.00    -0.077 C 
BRANCH  22  23
ATOM     23  N   UNL     1      31.222 -11.409 -22.174  0.00  0.00    +0.387 N 
ATOM     24  H   UNL     1      30.229 -11.562 -22.348  0.00  0.00    -0.084 HD
ATOM     25  H   UNL     1      31.785 -12.025 -22.760  0.00  0.00    -0.084 HD
BRANCH  23  26
ATOM     26  C   UNL     1      31.557 -10.028 -22.493  0.00  0.00    -0.053 C 
BRANCH  26  28
ATOM     27  N   UNL     1      34.823  -8.674 -23.795  0.00  0.00    -0.243 NA
ATOM     28  C   UNL     1      32.844  -9.928 -23.268  0.00  0.00    -0.025 C 
ATOM     29  C   UNL     1      33.221 -10.940 -24.129  0.00  0.00    -0.003 C 
ATOM     30  C   UNL     1      33.657  -8.828 -23.128  0.00  0.00    +0.092 C 
ATOM     31  C   UNL     1      34.415 -10.819 -24.832  0.00  0.00    +0.020 C 
ATOM     32  C   UNL     1      35.173  -9.677 -24.632  0.00  0.00    +0.099 C 
ENDBRANCH  26  28
ENDBRANCH  23  26
ENDBRANCH  22  23
ENDBRANCH  21  22
ENDBRANCH  20  21
ENDBRANCH  19  20
ENDBRANCH   5  19
TORSDOF 9
ENDMDL
MODEL 2
REMARK VINA RESULT:     -10.4      4.970      9.094
REMARK  Name = 446386
REMARK  9 active torsions:
REMARK  status: ('A' for Active; 'I' for Inactive)
REMARK    1  A    between atoms: C_5  and  O_19
REMARK    2  A    between atoms: C_6  and  C_12
REMARK    3  A    between atoms: C_12  and  C_15
REMARK    4  A    between atoms: O_19  and  C_20
REMARK    5  A    between atoms: C_20  and  C_21
REMARK    6  A    between atoms: C_21  and  C_22
REMARK    7  A    between atoms: C_22  and  N_23
REMARK    8  A    between atoms: N_23  and  C_26
REMARK    9  A    between atoms: C_26  and  C_28
REMARK                            x       y       z     vdW  Elec       q    Type
REMARK                         _______ _______ _______ _____ _____    ______ ____
ROOT
ATOM      1  O   UNL     1      34.974 -23.696 -14.225  0.00  0.00    -0.450 OA
ATOM      2  C   UNL     1      34.634 -22.961 -16.333  0.00  0.00    +0.068 A 
ATOM      3  C   UNL     1      36.012 -22.820 -16.018  0.00  0.00    +0.022 A 
ATOM      4  C   UNL     1      34.041 -23.505 -15.199  0.00  0.00    +0.148 A 
ATOM      5  C   UNL     1      33.825 -22.690 -17.451  0.00  0.00    +0.141 C 
ATOM      6  C   UNL     1      36.164 -23.278 -14.731  0.00  0.00    +0.183 A 
ATOM      7  C   UNL     1      32.683 -23.802 -15.093  0.00  0.00    +0.038 C 
ATOM      8  C   UNL     1      32.456 -22.980 -17.374  0.00  0.00    +0.037 C 
ATOM      9  C   UNL     1      37.073 -22.286 -16.895  0.00  0.00    +0.035 C 
ATOM     10  C   UNL     1      31.897 -23.526 -16.216  0.00  0.00    +0.006 C 
ENDROOT
BRANCH   6  12
ATOM     11  O   UNL     1      37.526 -22.617 -12.921  0.00  0.00    -0.280 OA
ATOM     12  C   UNL     1      37.310 -23.379 -13.891  0.00  0.00    +0.261 C 
BRANCH  12  15
ATOM     13  N   UNL     1      38.259 -25.670 -13.651  0.00  0.00    -0.266 N 
ATOM     14  N   UNL     1      39.256 -24.226 -15.012  0.00  0.00    -0.224 NA
ATOM     15  C   UNL     1      38.296 -24.451 -14.190  0.00  0.00    +0.178 C 
ATOM     16  C   UNL     1      39.327 -26.333 -14.183  0.00  0.00    +0.088 C 
ATOM     17  C   UNL     1      37.313 -26.213 -12.705  0.00  0.00    +0.119 C 
ATOM     18  C   UNL     1      39.927 -25.422 -15.020  0.00  0.00    +0.117 C 
ENDBRANCH  12  15
ENDBRANCH   6  12
BRANCH   5  19
ATOM     19  O   UNL     1      34.338 -22.156 -18.602  0.00  0.00    -0.475 OA
BRANCH  19  20
ATOM     20  C   UNL     1      33.400 -21.663 -19.552  0.00  0.00    +0.203 C 
BRANCH  20  21
ATOM     21  C   UNL     1      34.003 -20.455 -20.258  0.00  0.00    +0.024 C 
BRANCH  21  22
ATOM     22  C   UNL     1      35.526 -20.463 -20.179  0.00  0.00    -0.077 C 
BRANCH  22  23
ATOM     23  N   UNL     1      36.065 -19.209 -20.693  0.00  0.00    +0.387 N 
ATOM     24  H   UNL     1      37.065 -19.320 -20.862  0.00  0.00    -0.084 HD
ATOM     25  H   UNL     1      35.901 -18.477 -20.002  0.00  0.00    -0.084 HD
BRANCH  23  26
ATOM     26  C   UNL     1      35.408 -18.832 -21.937  0.00  0.00    -0.053 C 
BRANCH  26  28
ATOM     27  N   UNL     1      34.905 -15.352 -23.289  0.00  0.00    -0.243 NA
ATOM     28  C   UNL     1      35.103 -17.359 -21.985  0.00  0.00    -0.025 C 
ATOM     29  C   UNL     1      34.758 -16.679 -20.833  0.00  0.00    -0.003 C 
ATOM     30  C   UNL     1      35.165 -16.673 -23.176  0.00  0.00    +0.092 C 
ATOM     31  C   UNL     1      34.483 -15.317 -20.910  0.00  0.00    +0.020 C 
ATOM     32  C   UNL     1      34.569 -14.706 -22.150  0.00  0.00    +0.099 C 
ENDBRANCH  26  28
ENDBRANCH  23  26
ENDBRANCH  22  23
ENDBRANCH  21  22
ENDBRANCH  20  21
ENDBRANCH  19  20
ENDBRANCH   5  19
TORSDOF 9
ENDMDL
MODEL 3
REMARK VINA RESULT:     -10.2      3.745     10.677
REMARK  Name = 446386
REMARK  9 active torsions:
REMARK  status: ('A' for Active; 'I' for Inactive)
REMARK    1  A    between atoms: C_5  and  O_19
REMARK    2  A    between atoms: C_6  and  C_12
REMARK    3  A    between atoms: C_12  and  C_15
REMARK    4  A    between atoms: O_19  and  C_20
REMARK    5  A    between atoms: C_20  and  C_21
REMARK    6  A    between atoms: C_21  and  C_22
REMARK    7  A    between atoms: C_22  and  N_23
REMARK    8  A    between atoms: N_23  and  C_26
REMARK    9  A    between atoms: C_26  and  C_28
REMARK                            x       y       z     vdW  Elec       q    Type
REMARK                         _______ _______ _______ _____ _____    ______ ____
ROOT
ATOM      1  O   UNL     1      33.800 -19.549 -21.296  0.00  0.00    -0.450 OA
ATOM      2  C   UNL     1      35.201 -20.661 -19.917  0.00  0.00    +0.068 A 
ATOM      3  C   UNL     1      35.953 -19.716 -20.664  0.00  0.00    +0.022 A 
ATOM      4  C   UNL     1      33.884 -20.517 -20.342  0.00  0.00    +0.148 A 
ATOM      5  C   UNL     1      35.488 -21.620 -18.930  0.00  0.00    +0.141 C 
ATOM      6  C   UNL     1      35.057 -19.070 -21.484  0.00  0.00    +0.183 A 
ATOM      7  C   UNL     1      32.818 -21.268 -19.850  0.00  0.00    +0.038 C 
ATOM      8  C   UNL     1      34.435 -22.390 -18.416  0.00  0.00    +0.037 C 
ATOM      9  C   UNL     1      37.406 -19.473 -20.582  0.00  0.00    +0.035 C 
ATOM     10  C   UNL     1      33.125 -22.215 -18.868  0.00  0.00    +0.006 C 
ENDROOT
BRANCH   6  12
ATOM     11  O   UNL     1      35.675 -18.229 -23.601  0.00  0.00    -0.280 OA
ATOM     12  C   UNL     1      35.231 -18.034 -22.446  0.00  0.00    +0.261 C 
BRANCH  12  15
ATOM     13  N   UNL     1      34.388 -15.733 -22.891  0.00  0.00    -0.266 N 
ATOM     14  N   UNL     1      34.998 -16.278 -20.826  0.00  0.00    -0.224 NA
ATOM     15  C   UNL     1      34.863 -16.649 -22.048  0.00  0.00    +0.178 C 
ATOM     16  C   UNL     1      34.182 -14.616 -22.132  0.00  0.00    +0.088 C 
ATOM     17  C   UNL     1      34.130 -15.852 -24.306  0.00  0.00    +0.119 C 
ATOM     18  C   UNL     1      34.566 -14.976 -20.862  0.00  0.00    +0.117 C 
ENDBRANCH  12  15
ENDBRANCH   6  12
BRANCH   5  19
ATOM     19  O   UNL     1      36.759 -21.818 -18.462  0.00  0.00    -0.475 OA
BRANCH  19  20
ATOM     20  C   UNL     1      37.009 -21.449 -17.111  0.00  0.00    +0.203 C 
BRANCH  20  21
ATOM     21  C   UNL     1      37.460 -22.681 -16.339  0.00  0.00    +0.024 C 
BRANCH  21  22
ATOM     22  C   UNL     1      36.836 -22.731 -14.948  0.00  0.00    -0.077 C 
BRANCH  22  23
ATOM     23  N   UNL     1      35.386 -22.609 -15.040  0.00  0.00    +0.387 N 
ATOM     24  H   UNL     1      35.149 -22.054 -15.863  0.00  0.00    -0.084 HD
ATOM     25  H   UNL     1      35.043 -22.155 -14.194  0.00  0.00    -0.084 HD
BRANCH  23  26
ATOM     26  C   UNL     1      34.761 -23.919 -15.151  0.00  0.00    -0.053 C 
BRANCH  26  28
ATOM     27  N   UNL     1      31.616 -24.754 -13.251  0.00  0.00    -0.243 NA
ATOM     28  C   UNL     1      33.323 -23.895 -14.706  0.00  0.00    -0.025 C 
ATOM     29  C   UNL     1      32.421 -23.039 -15.307  0.00  0.00    -0.003 C 
ATOM     30  C   UNL     1      32.892 -24.725 -13.697  0.00  0.00    +0.092 C 
ATOM     31  C   UNL     1      31.099 -23.039 -14.874  0.00  0.00    +0.020 C 
ATOM     32  C   UNL     1      30.750 -23.907 -13.853  0.00  0.00    +0.099 C 
ENDBRANCH  26  28
ENDBRANCH  23  26
ENDBRANCH  22  23
ENDBRANCH  21  22
ENDBRANCH  20  21
ENDBRANCH  19  20
ENDBRANCH   5  19
TORSDOF 9
ENDMDL
MODEL 4
REMARK VINA RESULT:     -10.1      5.896     10.338
REMARK  Name = 446386
REMARK  9 active torsions:
REMARK  status: ('A' for Active; 'I' for Inactive)
REMARK    1  A    between atoms: C_5  and  O_19
REMARK    2  A    between atoms: C_6  and  C_12
REMARK    3  A    between atoms: C_12  and  C_15
REMARK    4  A    between atoms: O_19  and  C_20
REMARK    5  A    between atoms: C_20  and  C_21
REMARK    6  A    between atoms: C_21  and  C_22
REMARK    7  A    between atoms: C_22  and  N_23
REMARK    8  A    between atoms: N_23  and  C_26
REMARK    9  A    between atoms: C_26  and  C_28
REMARK                            x       y       z     vdW  Elec       q    Type
REMARK                         _______ _______ _______ _____ _____    ______ ____
ROOT
ATOM      1  O   UNL     1      32.946 -24.744 -13.083  0.00  0.00    -0.450 OA
ATOM      2  C   UNL     1      32.933 -23.684 -15.078  0.00  0.00    +0.068 A 
ATOM      3  C   UNL     1      34.244 -23.620 -14.537  0.00  0.00    +0.022 A 
ATOM      4  C   UNL     1      32.174 -24.386 -14.147  0.00  0.00    +0.148 A 
ATOM      5  C   UNL     1      32.305 -23.228 -16.250  0.00  0.00    +0.141 C 
ATOM      6  C   UNL     1      34.197 -24.276 -13.329  0.00  0.00    +0.183 A 
ATOM      7  C   UNL     1      30.817 -24.670 -14.299  0.00  0.00    +0.038 C 
ATOM      8  C   UNL     1      30.942 -23.499 -16.431  0.00  0.00    +0.037 C 
ATOM      9  C   UNL     1      35.426 -22.978 -15.145  0.00  0.00    +0.035 C 
ATOM     10  C   UNL     1      30.213 -24.208 -15.472  0.00  0.00    +0.006 C 
ENDROOT
BRANCH   6  12
ATOM     11  O   UNL     1      35.003 -24.428 -11.116  0.00  0.00    -0.280 OA
ATOM     12  C   UNL     1      35.200 -24.528 -12.349  0.00  0.00    +0.261 C 
BRANCH  12  15
ATOM     13  N   UNL     1      37.654 -24.212 -12.633  0.00  0.00    -0.266 N 
ATOM     14  N   UNL     1      36.698 -26.035 -13.467  0.00  0.00    -0.224 NA
ATOM     15  C   UNL     1      36.549 -24.932 -12.826  0.00  0.00    +0.178 C 
ATOM     16  C   UNL     1      38.659 -24.927 -13.219  0.00  0.00    +0.088 C 
ATOM     17  C   UNL     1      37.802 -22.945 -11.957  0.00  0.00    +0.119 C 
ATOM     18  C   UNL     1      38.045 -26.047 -13.727  0.00  0.00    +0.117 C 
ENDBRANCH  12  15
ENDBRANCH   6  12
BRANCH   5  19
ATOM     19  O   UNL     1      32.987 -22.531 -17.211  0.00  0.00    -0.475 OA
BRANCH  19  20
ATOM     20  C   UNL     1      33.556 -23.291 -18.271  0.00  0.00    +0.203 C 
BRANCH  20  21
ATOM     21  C   UNL     1      34.019 -22.340 -19.366  0.00  0.00    +0.024 C 
BRANCH  21  22
ATOM     22  C   UNL     1      35.399 -21.765 -19.062  0.00  0.00    -0.077 C 
BRANCH  22  23
ATOM     23  N   UNL     1      35.653 -20.593 -19.891  0.00  0.00    +0.387 N 
ATOM     24  H   UNL     1      36.333 -20.834 -20.612  0.00  0.00    -0.084 HD
ATOM     25  H   UNL     1      36.013 -19.846 -19.297  0.00  0.00    -0.084 HD
BRANCH  23  26
ATOM     26  C   UNL     1      34.427 -20.132 -20.527  0.00  0.00    -0.053 C 
BRANCH  26  28
ATOM     27  N   UNL     1      35.078 -16.703 -21.948  0.00  0.00    -0.243 NA
ATOM     28  C   UNL     1      34.690 -19.035 -21.525  0.00  0.00    -0.025 C 
ATOM     29  C   UNL     1      34.782 -19.325 -22.872  0.00  0.00    -0.003 C 
ATOM     30  C   UNL     1      34.841 -17.734 -21.106  0.00  0.00    +0.092 C 
ATOM     31  C   UNL     1      35.026 -18.291 -23.770  0.00  0.00    +0.020 C 
ATOM     32  C   UNL     1      35.164 -17.010 -23.263  0.00  0.00    +0.099 C 
ENDBRANCH  26  28
ENDBRANCH  23  26
ENDBRANCH  22  23
ENDBRANCH  21  22
ENDBRANCH  20  21
ENDBRANCH  19  20
ENDBRANCH   5  19
TORSDOF 9
ENDMDL
MODEL 5
REMARK VINA RESULT:     -10.1      1.450      3.043
REMARK  Name = 446386
REMARK  9 active torsions:
REMARK  status: ('A' for Active; 'I' for Inactive)
REMARK    1  A    between atoms: C_5  and  O_19
REMARK    2  A    between atoms: C_6  and  C_12
REMARK    3  A    between atoms: C_12  and  C_15
REMARK    4  A    between atoms: O_19  and  C_20
REMARK    5  A    between atoms: C_20  and  C_21
REMARK    6  A    between atoms: C_21  and  C_22
REMARK    7  A    between atoms: C_22  and  N_23
REMARK    8  A    between atoms: N_23  and  C_26
REMARK    9  A    between atoms: C_26  and  C_28
REMARK                            x       y       z     vdW  Elec       q    Type
REMARK                         _______ _______ _______ _____ _____    ______ ____
ROOT
ATOM      1  O   UNL     1      34.388 -16.784 -20.632  0.00  0.00    -0.450 OA
ATOM      2  C   UNL     1      33.975 -15.848 -22.646  0.00  0.00    +0.068 A 
ATOM      3  C   UNL     1      34.692 -17.058 -22.845  0.00  0.00    +0.022 A 
ATOM      4  C   UNL     1      33.813 -15.726 -21.270  0.00  0.00    +0.148 A 
ATOM      5  C   UNL     1      33.446 -14.844 -23.476  0.00  0.00    +0.141 C 
ATOM      6  C   UNL     1      34.917 -17.584 -21.594  0.00  0.00    +0.183 A 
ATOM      7  C   UNL     1      33.154 -14.665 -20.651  0.00  0.00    +0.038 C 
ATOM      8  C   UNL     1      32.778 -13.764 -22.882  0.00  0.00    +0.037 C 
ATOM      9  C   UNL     1      35.115 -17.638 -24.134  0.00  0.00    +0.035 C 
ATOM     10  C   UNL     1      32.635 -13.679 -21.495  0.00  0.00    +0.006 C 
ENDROOT
BRANCH   6  12
ATOM     11  O   UNL     1      36.819 -18.942 -21.262  0.00  0.00    -0.280 OA
ATOM     12  C   UNL     1      35.581 -18.772 -21.173  0.00  0.00    +0.261 C 
BRANCH  12  15
ATOM     13  N   UNL     1      35.233 -20.843 -19.833  0.00  0.00    -0.266 N 
ATOM     14  N   UNL     1      33.488 -19.897 -20.830  0.00  0.00    -0.224 NA
ATOM     15  C   UNL     1      34.751 -19.863 -20.597  0.00  0.00    +0.178 C 
ATOM     16  C   UNL     1      34.156 -21.622 -19.520  0.00  0.00    +0.088 C 
ATOM     17  C   UNL     1      36.593 -21.070 -19.404  0.00  0.00    +0.119 C 
ATOM     18  C   UNL     1      33.091 -21.018 -20.147  0.00  0.00    +0.117 C 
ENDBRANCH  12  15
ENDBRANCH   6  12
BRANCH   5  19
ATOM     19  O   UNL     1      33.566 -14.895 -24.839  0.00  0.00    -0.475 OA
BRANCH  19  20
ATOM     20  C   UNL     1      32.672 -14.085 -25.592  0.00  0.00    +0.203 C 
BRANCH  20  21
ATOM     21  C   UNL     1      33.441 -13.430 -26.732  0.00  0.00    +0.024 C 
BRANCH  21  22
ATOM     22  C   UNL     1      33.688 -11.950 -26.463  0.00  0.00    -0.077 C 
BRANCH  22  23
ATOM     23  N   UNL     1      34.420 -11.777 -25.214  0.00  0.00    +0.387 N 
ATOM     24  H   UNL     1      35.156 -12.481 -25.159  0.00  0.00    -0.084 HD
ATOM     25  H   UNL     1      33.768 -11.882 -24.437  0.00  0.00    -0.084 HD
BRANCH  23  26
ATOM     26  C   UNL     1      35.020 -10.453 -25.143  0.00  0.00    -0.053 C 
BRANCH  26  28
ATOM     27  N   UNL     1      32.592  -9.323 -22.492  0.00  0.00    -0.243 NA
ATOM     28  C   UNL     1      34.336  -9.582 -24.122  0.00  0.00    -0.025 C 
ATOM     29  C   UNL     1      34.791  -8.299 -23.882  0.00  0.00    -0.003 C 
ATOM     30  C   UNL     1      33.252 -10.052 -23.420  0.00  0.00    +0.092 C 
ATOM     31  C   UNL     1      34.138  -7.518 -22.935  0.00  0.00    +0.020 C 
ATOM     32  C   UNL     1      33.054  -8.070 -22.273  0.00  0.00    +0.099 C 
ENDBRANCH  26  28
ENDBRANCH  23  26
ENDBRANCH  22  23
ENDBRANCH  21  22
ENDBRANCH  20  21
ENDBRANCH  19  20
ENDBRANCH   5  19
TORSDOF 9
ENDMDL
MODEL 6
REMARK VINA RESULT:     -10.1      1.608      2.184
REMARK  Name = 446386
REMARK  9 active torsions:
REMARK  status: ('A' for Active; 'I' for Inactive)
REMARK    1  A    between atoms: C_5  and  O_19
REMARK    2  A    between atoms: C_6  and  C_12
REMARK    3  A    between atoms: C_12  and  C_15
REMARK    4  A    between atoms: O_19  and  C_20
REMARK    5  A    between atoms: C_20  and  C_21
REMARK    6  A    between atoms: C_21  and  C_22
REMARK    7  A    between atoms: C_22  and  N_23
REMARK    8  A    between atoms: N_23  and  C_26
REMARK    9  A    between atoms: C_26  and  C_28
REMARK                            x       y       z     vdW  Elec       q    Type
REMARK                         _______ _______ _______ _____ _____    ______ ____
ROOT
ATOM      1  O   UNL     1      34.875 -17.636 -23.698  0.00  0.00    -0.450 OA
ATOM      2  C   UNL     1      34.109 -15.574 -23.185  0.00  0.00    +0.068 A 
ATOM      3  C   UNL     1      34.579 -16.194 -21.997  0.00  0.00    +0.022 A 
ATOM      4  C   UNL     1      34.315 -16.501 -24.202  0.00  0.00    +0.148 A 
ATOM      5  C   UNL     1      33.535 -14.333 -23.513  0.00  0.00    +0.141 C 
ATOM      6  C   UNL     1      35.031 -17.440 -22.363  0.00  0.00    +0.183 A 
ATOM      7  C   UNL     1      33.986 -16.281 -25.538  0.00  0.00    +0.038 C 
ATOM      8  C   UNL     1      33.194 -14.083 -24.849  0.00  0.00    +0.037 C 
ATOM      9  C   UNL     1      34.582 -15.620 -20.637  0.00  0.00    +0.035 C 
ATOM     10  C   UNL     1      33.417 -15.040 -25.842  0.00  0.00    +0.006 C 
ENDROOT
BRANCH   6  12
ATOM     11  O   UNL     1      36.840 -18.667 -21.475  0.00  0.00    -0.280 OA
ATOM     12  C   UNL     1      35.606 -18.499 -21.604  0.00  0.00    +0.261 C 
BRANCH  12  15
ATOM     13  N   UNL     1      35.085 -20.491 -20.202  0.00  0.00    -0.266 N 
ATOM     14  N   UNL     1      33.412 -19.294 -21.039  0.00  0.00    -0.224 NA
ATOM     15  C   UNL     1      34.682 -19.451 -20.932  0.00  0.00    +0.178 C 
ATOM     16  C   UNL     1      33.939 -21.098 -19.773  0.00  0.00    +0.088 C 
ATOM     17  C   UNL     1      36.431 -20.921 -19.905  0.00  0.00    +0.119 C 
ATOM     18  C   UNL     1      32.920 -20.341 -20.302  0.00  0.00    +0.117 C 
ENDBRANCH  12  15
ENDBRANCH   6  12
BRANCH   5  19
ATOM     19  O   UNL     1      33.303 -13.371 -22.567  0.00  0.00    -0.475 OA
BRANCH  19  20
ATOM     20  C   UNL     1      31.970 -13.256 -22.083  0.00  0.00    +0.203 C 
BRANCH  20  21
ATOM     21  C   UNL     1      31.991 -12.521 -20.750  0.00  0.00    +0.024 C 
BRANCH  21  22
ATOM     22  C   UNL     1      31.628 -11.050 -20.915  0.00  0.00    -0.077 C 
BRANCH  22  23
ATOM     23  N   UNL     1      31.589 -10.694 -22.329  0.00  0.00    +0.387 N 
ATOM     24  H   UNL     1      30.663 -10.332 -22.557  0.00  0.00    -0.084 HD
ATOM     25  H   UNL     1      31.791 -11.528 -22.880  0.00  0.00    -0.084 HD
BRANCH  23  26
ATOM     26  C   UNL     1      32.588  -9.680 -22.636  0.00  0.00    -0.053 C 
BRANCH  26  28
ATOM     27  N   UNL     1      30.715  -6.424 -22.936  0.00  0.00    -0.243 NA
ATOM     28  C   UNL     1      32.093  -8.292 -22.322  0.00  0.00    -0.025 C 
ATOM     29  C   UNL     1      32.535  -7.633 -21.192  0.00  0.00    -0.003 C 
ATOM     30  C   UNL     1      31.197  -7.667 -23.158  0.00  0.00    +0.092 C 
ATOM     31  C   UNL     1      32.061  -6.352 -20.929  0.00  0.00    +0.020 C 
ATOM     32  C   UNL     1      31.161  -5.796 -21.823  0.00  0.00    +0.099 C 
ENDBRANCH  26  28
ENDBRANCH  23  26
ENDBRANCH  22  23
ENDBRANCH  21  22
ENDBRANCH  20  21
ENDBRANCH  19  20
ENDBRANCH   5  19
TORSDOF 9
ENDMDL
MODEL 7
REMARK VINA RESULT:     -10.0      2.349      9.742
REMARK  Name = 446386
REMARK  9 active torsions:
REMARK  status: ('A' for Active; 'I' for Inactive)
REMARK    1  A    between atoms: C_5  and  O_19
REMARK    2  A    between atoms: C_6  and  C_12
REMARK    3  A    between atoms: C_12  and  C_15
REMARK    4  A    between atoms: O_19  and  C_20
REMARK    5  A    between atoms: C_20  and  C_21
REMARK    6  A    between atoms: C_21  and  C_22
REMARK    7  A    between atoms: C_22  and  N_23
REMARK    8  A    between atoms: N_23  and  C_26
REMARK    9  A    between atoms: C_26  and  C_28
REMARK                            x       y       z     vdW  Elec       q    Type
REMARK                         _______ _______ _______ _____ _____    ______ ____
ROOT
ATOM      1  O   UNL     1      33.025 -10.345 -23.572  0.00  0.00    -0.450 OA
ATOM      2  C   UNL     1      32.551 -12.383 -22.723  0.00  0.00    +0.068 A 
ATOM      3  C   UNL     1      32.052 -11.393 -21.836  0.00  0.00    +0.022 A 
ATOM      4  C   UNL     1      33.139 -11.687 -23.774  0.00  0.00    +0.148 A 
ATOM      5  C   UNL     1      32.570 -13.789 -22.753  0.00  0.00    +0.141 C 
ATOM      6  C   UNL     1      32.366 -10.177 -22.397  0.00  0.00    +0.183 A 
ATOM      7  C   UNL     1      33.753 -12.296 -24.867  0.00  0.00    +0.038 C 
ATOM      8  C   UNL     1      33.181 -14.429 -23.840  0.00  0.00    +0.037 C 
ATOM      9  C   UNL     1      31.338 -11.618 -20.564  0.00  0.00    +0.035 C 
ATOM     10  C   UNL     1      33.760 -13.694 -24.878  0.00  0.00    +0.006 C 
ENDROOT
BRANCH   6  12
ATOM     11  O   UNL     1      31.978  -8.522 -20.760  0.00  0.00    -0.280 OA
ATOM     12  C   UNL     1      32.121  -8.843 -21.963  0.00  0.00    +0.261 C 
BRANCH  12  15
ATOM     13  N   UNL     1      33.089  -7.168 -23.531  0.00  0.00    -0.266 N 
ATOM     14  N   UNL     1      30.883  -7.407 -23.436  0.00  0.00    -0.224 NA
ATOM     15  C   UNL     1      32.032  -7.781 -23.000  0.00  0.00    +0.178 C 
ATOM     16  C   UNL     1      32.577  -6.276 -24.430  0.00  0.00    +0.088 C 
ATOM     17  C   UNL     1      34.490  -7.370 -23.247  0.00  0.00    +0.119 C 
ATOM     18  C   UNL     1      31.214  -6.442 -24.353  0.00  0.00    +0.117 C 
ENDBRANCH  12  15
ENDBRANCH   6  12
BRANCH   5  19
ATOM     19  O   UNL     1      32.012 -14.541 -21.755  0.00  0.00    -0.475 OA
BRANCH  19  20
ATOM     20  C   UNL     1      32.845 -14.853 -20.645  0.00  0.00    +0.203 C 
BRANCH  20  21
ATOM     21  C   UNL     1      33.319 -16.295 -20.775  0.00  0.00    +0.024 C 
BRANCH  21  22
ATOM     22  C   UNL     1      34.832 -16.372 -20.957  0.00  0.00    -0.077 C 
BRANCH  22  23
ATOM     23  N   UNL     1      35.282 -17.757 -20.867  0.00  0.00    +0.387 N 
ATOM     24  H   UNL     1      35.475 -17.982 -19.891  0.00  0.00    -0.084 HD
ATOM     25  H   UNL     1      36.126 -17.862 -21.430  0.00  0.00    -0.084 HD
BRANCH  23  26
ATOM     26  C   UNL     1      34.266 -18.667 -21.376  0.00  0.00    -0.053 C 
BRANCH  26  28
ATOM     27  N   UNL     1      32.974 -21.764 -19.661  0.00  0.00    -0.243 NA
ATOM     28  C   UNL     1      34.250 -19.969 -20.619  0.00  0.00    -0.025 C 
ATOM     29  C   UNL     1      35.432 -20.546 -20.198  0.00  0.00    -0.003 C 
ATOM     30  C   UNL     1      33.059 -20.596 -20.337  0.00  0.00    +0.092 C 
ATOM     31  C   UNL     1      35.385 -21.748 -19.500  0.00  0.00    +0.020 C 
ATOM     32  C   UNL     1      34.143 -22.311 -19.259  0.00  0.00    +0.099 C 
ENDBRANCH  26  28
ENDBRANCH  23  26
ENDBRANCH  22  23
ENDBRANCH  21  22
ENDBRANCH  20  21
ENDBRANCH  19  20
ENDBRANCH   5  19
TORSDOF 9
ENDMDL
MODEL 8
REMARK VINA RESULT:      -9.9      5.196      9.631
REMARK  Name = 446386
REMARK  9 active torsions:
REMARK  status: ('A' for Active; 'I' for Inactive)
REMARK    1  A    between atoms: C_5  and  O_19
REMARK    2  A    between atoms: C_6  and  C_12
REMARK    3  A    between atoms: C_12  and  C_15
REMARK    4  A    between atoms: O_19  and  C_20
REMARK    5  A    between atoms: C_20  and  C_21
REMARK    6  A    between atoms: C_21  and  C_22
REMARK    7  A    between atoms: C_22  and  N_23
REMARK    8  A    between atoms: N_23  and  C_26
REMARK    9  A    between atoms: C_26  and  C_28
REMARK                            x       y       z     vdW  Elec       q    Type
REMARK                         _______ _______ _______ _____ _____    ______ ____
ROOT
ATOM      1  O   UNL     1      34.029 -23.914 -13.690  0.00  0.00    -0.450 OA
ATOM      2  C   UNL     1      34.765 -23.178 -15.694  0.00  0.00    +0.068 A 
ATOM      3  C   UNL     1      33.369 -23.421 -15.783  0.00  0.00    +0.022 A 
ATOM      4  C   UNL     1      35.121 -23.496 -14.388  0.00  0.00    +0.148 A 
ATOM      5  C   UNL     1      35.765 -22.725 -16.573  0.00  0.00    +0.141 C 
ATOM      6  C   UNL     1      32.973 -23.866 -14.543  0.00  0.00    +0.183 A 
ATOM      7  C   UNL     1      36.418 -23.394 -13.885  0.00  0.00    +0.038 C 
ATOM      8  C   UNL     1      37.078 -22.613 -16.095  0.00  0.00    +0.037 C 
ATOM      9  C   UNL     1      32.509 -23.236 -16.969  0.00  0.00    +0.035 C 
ATOM     10  C   UNL     1      37.396 -22.941 -14.774  0.00  0.00    +0.006 C 
ENDROOT
BRANCH   6  12
ATOM     11  O   UNL     1      31.550 -25.030 -13.064  0.00  0.00    -0.280 OA
ATOM     12  C   UNL     1      31.700 -24.261 -14.041  0.00  0.00    +0.261 C 
BRANCH  12  15
ATOM     13  N   UNL     1      29.688 -24.454 -15.495  0.00  0.00    -0.266 N 
ATOM     14  N   UNL     1      30.169 -22.491 -14.576  0.00  0.00    -0.224 NA
ATOM     15  C   UNL     1      30.491 -23.726 -14.721  0.00  0.00    +0.178 C 
ATOM     16  C   UNL     1      28.713 -23.595 -15.916  0.00  0.00    +0.088 C 
ATOM     17  C   UNL     1      29.788 -25.852 -15.842  0.00  0.00    +0.119 C 
ATOM     18  C   UNL     1      29.031 -22.390 -15.336  0.00  0.00    +0.117 C 
ENDBRANCH  12  15
ENDBRANCH   6  12
BRANCH   5  19
ATOM     19  O   UNL     1      35.491 -22.394 -17.872  0.00  0.00    -0.475 OA
BRANCH  19  20
ATOM     20  C   UNL     1      36.476 -21.633 -18.561  0.00  0.00    +0.203 C 
BRANCH  20  21
ATOM     21  C   UNL     1      35.942 -21.270 -19.941  0.00  0.00    +0.024 C 
BRANCH  21  22
ATOM     22  C   UNL     1      34.429 -21.074 -19.922  0.00  0.00    -0.077 C 
BRANCH  22  23
ATOM     23  N   UNL     1      34.068 -19.860 -20.645  0.00  0.00    +0.387 N 
ATOM     24  H   UNL     1      33.504 -19.266 -20.037  0.00  0.00    -0.084 HD
ATOM     25  H   UNL     1      33.539 -20.122 -21.477  0.00  0.00    -0.084 HD
BRANCH  23  26
ATOM     26  C   UNL     1      35.256 -19.129 -21.059  0.00  0.00    -0.053 C 
BRANCH  26  28
ATOM     27  N   UNL     1      35.071 -16.418 -23.670  0.00  0.00    -0.243 NA
ATOM     28  C   UNL     1      35.062 -18.450 -22.389  0.00  0.00    -0.025 C 
ATOM     29  C   UNL     1      34.709 -19.186 -23.503  0.00  0.00    -0.003 C 
ATOM     30  C   UNL     1      35.232 -17.090 -22.508  0.00  0.00    +0.092 C 
ATOM     31  C   UNL     1      34.536 -18.529 -24.718  0.00  0.00    +0.020 C 
ATOM     32  C   UNL     1      34.726 -17.158 -24.748  0.00  0.00    +0.099 C 
ENDBRANCH  26  28
ENDBRANCH  23  26
ENDBRANCH  22  23
ENDBRANCH  21  22
ENDBRANCH  20  21
ENDBRANCH  19  20
ENDBRANCH   5  19
TORSDOF 9
ENDMDL
MODEL 9
REMARK VINA RESULT:      -9.7      1.785      9.247
REMARK  Name = 446386
REMARK  9 active torsions:
REMARK  status: ('A' for Active; 'I' for Inactive)
REMARK    1  A    between atoms: C_5  and  O_19
REMARK    2  A    between atoms: C_6  and  C_12
REMARK    3  A    between atoms: C_12  and  C_15
REMARK    4  A    between atoms: O_19  and  C_20
REMARK    5  A    between atoms: C_20  and  C_21
REMARK    6  A    between atoms: C_21  and  C_22
REMARK    7  A    between atoms: C_22  and  N_23
REMARK    8  A    between atoms: N_23  and  C_26
REMARK    9  A    between atoms: C_26  and  C_28
REMARK                            x       y       z     vdW  Elec       q    Type
REMARK                         _______ _______ _______ _____ _____    ______ ____
ROOT
ATOM      1  O   UNL     1      31.955 -12.080 -21.365  0.00  0.00    -0.450 OA
ATOM      2  C   UNL     1      33.169 -13.631 -22.469  0.00  0.00    +0.068 A 
ATOM      3  C   UNL     1      33.087 -12.462 -23.271  0.00  0.00    +0.022 A 
ATOM      4  C   UNL     1      32.459 -13.344 -21.308  0.00  0.00    +0.148 A 
ATOM      5  C   UNL     1      33.766 -14.897 -22.596  0.00  0.00    +0.141 C 
ATOM      6  C   UNL     1      32.340 -11.554 -22.556  0.00  0.00    +0.183 A 
ATOM      7  C   UNL     1      32.296 -14.237 -20.251  0.00  0.00    +0.038 C 
ATOM      8  C   UNL     1      33.620 -15.817 -21.548  0.00  0.00    +0.037 C 
ATOM      9  C   UNL     1      33.681 -12.257 -24.607  0.00  0.00    +0.035 C 
ATOM     10  C   UNL     1      32.898 -15.491 -20.397  0.00  0.00    +0.006 C 
ENDROOT
BRANCH   6  12
ATOM     11  O   UNL     1      30.738  -9.889 -23.034  0.00  0.00    -0.280 OA
ATOM     12  C   UNL     1      31.932 -10.222 -22.853  0.00  0.00    +0.261 C 
BRANCH  12  15
ATOM     13  N   UNL     1      33.254  -8.296 -21.990  0.00  0.00    -0.266 N 
ATOM     14  N   UNL     1      33.703  -9.092 -24.014  0.00  0.00    -0.224 NA
ATOM     15  C   UNL     1      32.987  -9.179 -22.952  0.00  0.00    +0.178 C 
ATOM     16  C   UNL     1      34.275  -7.530 -22.475  0.00  0.00    +0.088 C 
ATOM     17  C   UNL     1      32.626  -8.147 -20.699  0.00  0.00    +0.119 C 
ATOM     18  C   UNL     1      34.535  -8.040 -23.725  0.00  0.00    +0.117 C 
ENDBRANCH  12  15
ENDBRANCH   6  12
BRANCH   5  19
ATOM     19  O   UNL     1      34.481 -15.252 -23.708  0.00  0.00    -0.475 OA
BRANCH  19  20
ATOM     20  C   UNL     1      33.739 -15.753 -24.814  0.00  0.00    +0.203 C 
BRANCH  20  21
ATOM     21  C   UNL     1      34.279 -17.126 -25.188  0.00  0.00    +0.024 C 
BRANCH  21  22
ATOM     22  C   UNL     1      35.274 -17.638 -24.152  0.00  0.00    -0.077 C 
BRANCH  22  23
ATOM     23  N   UNL     1      34.630 -18.600 -23.264  0.00  0.00    +0.387 N 
ATOM     24  H   UNL     1      34.481 -19.473 -23.769  0.00  0.00    -0.084 HD
ATOM     25  H   UNL     1      33.738 -18.211 -22.955  0.00  0.00    -0.084 HD
BRANCH  23  26
ATOM     26  C   UNL     1      35.455 -18.859 -22.093  0.00  0.00    -0.053 C 
BRANCH  26  28
ATOM     27  N   UNL     1      32.745 -20.616 -20.153  0.00  0.00    -0.243 NA
ATOM     28  C   UNL     1      34.781 -19.799 -21.129  0.00  0.00    -0.025 C 
ATOM     29  C   UNL     1      35.532 -20.669 -20.362  0.00  0.00    -0.003 C 
ATOM     30  C   UNL     1      33.412 -19.800 -21.000  0.00  0.00    +0.092 C 
ATOM     31  C   UNL     1      34.881 -21.524 -19.479  0.00  0.00    +0.020 C 
ATOM     32  C   UNL     1      33.499 -21.460 -19.412  0.00  0.00    +0.099 C 
ENDBRANCH  26  28
ENDBRANCH  23  26
ENDBRANCH  22  23
ENDBRANCH  21  22
ENDBRANCH  20  21
ENDBRANCH  19  20
ENDBRANCH   5  19
TORSDOF 9
ENDMDL
