MODEL 1
REMARK VINA RESULT:     -10.8      0.000      0.000
REMARK  Name = 11609955
REMARK  7 active torsions:
REMARK  status: ('A' for Active; 'I' for Inactive)
REMARK    1  A    between atoms: S_1  and  C_4
REMARK    2  A    between atoms: S_1  and  N_15
REMARK    3  A    between atoms: C_5  and  C_10
REMARK    4  A    between atoms: C_10  and  N_11
REMARK    5  A    between atoms: C_18  and  C_20
REMARK    6  A    between atoms: C_21  and  C_24
REMARK    7  A    between atoms: N_23  and  O_26
REMARK                            x       y       z     vdW  Elec       q    Type
REMARK                         _______ _______ _______ _____ _____    ______ ____
ROOT
ATOM      1  S   UNL     1      33.751 -22.659 -18.799  0.00  0.00    +0.080 S 
ATOM      2  O   UNL     1      32.437 -22.467 -18.212  0.00  0.00    -0.149 OA
ATOM      3  O   UNL     1      34.098 -23.846 -19.558  0.00  0.00    -0.149 OA
ENDROOT
BRANCH   1   4
ATOM      4  C   UNL     1      34.209 -21.259 -19.735  0.00  0.00    +0.126 C 
ATOM      5  C   UNL     1      34.937 -19.031 -21.220  0.00  0.00    -0.043 C 
ATOM      6  C   UNL     1      33.228 -20.398 -20.227  0.00  0.00    +0.020 C 
ATOM      7  C   UNL     1      35.555 -21.000 -19.990  0.00  0.00    +0.020 C 
ATOM      8  C   UNL     1      33.594 -19.278 -20.973  0.00  0.00    -0.005 C 
ATOM      9  C   UNL     1      35.922 -19.880 -20.736  0.00  0.00    -0.005 C 
BRANCH   5  10
ATOM     10  C   UNL     1      35.332 -17.821 -22.026  0.00  0.00    -0.050 C 
BRANCH  10  11
ATOM     11  N   UNL     1      34.346 -16.746 -21.915  0.00  0.00    +0.387 N 
ATOM     12  C   UNL     1      34.266 -15.994 -23.167  0.00  0.00    -0.100 C 
ATOM     13  C   UNL     1      34.683 -15.856 -20.804  0.00  0.00    -0.100 C 
ATOM     14  H   UNL     1      33.434 -17.163 -21.729  0.00  0.00    -0.079 HD
ENDBRANCH  10  11
ENDBRANCH   5  10
ENDBRANCH   1   4
BRANCH   1  15
ATOM     15  N   UNL     1      34.792 -22.660 -17.420  0.00  0.00    -0.167 N 
ATOM     16  C   UNL     1      34.419 -23.134 -16.230  0.00  0.00    +0.089 C 
ATOM     17  C   UNL     1      36.038 -22.187 -17.455  0.00  0.00    +0.089 C 
ATOM     18  C   UNL     1      35.510 -22.960 -15.408  0.00  0.00    +0.018 C 
ATOM     19  C   UNL     1      36.534 -22.362 -16.181  0.00  0.00    +0.019 C 
BRANCH  18  20
ATOM     20  C   UNL     1      35.562 -23.325 -14.046  0.00  0.00    +0.006 C 
ATOM     21  C   UNL     1      36.602 -23.189 -13.173  0.00  0.00    +0.060 C 
BRANCH  21  24
ATOM     22  O   UNL     1      37.183 -23.168 -10.855  0.00  0.00    -0.268 OA
ATOM     23  N   UNL     1      35.518 -24.589 -11.599  0.00  0.00    -0.193 N 
ATOM     24  C   UNL     1      36.485 -23.629 -11.754  0.00  0.00    +0.268 C 
ATOM     25  H   UNL     1      34.985 -24.924 -12.356  0.00  0.00    +0.183 HD
BRANCH  23  26
ATOM     26  O   UNL     1      35.335 -25.060 -10.291  0.00  0.00    -0.295 OA
ATOM     27  H   UNL     1      34.408 -24.943 -10.032  0.00  0.00    +0.241 HD
ENDBRANCH  23  26
ENDBRANCH  21  24
ENDBRANCH  18  20
ENDBRANCH   1  15
TORSDOF 7
ENDMDL
MODEL 2
REMARK VINA RESULT:     -10.0      2.934      9.328
REMARK  Name = 11609955
REMARK  7 active torsions:
REMARK  status: ('A' for Active; 'I' for Inactive)
REMARK    1  A    between atoms: S_1  and  C_4
REMARK    2  A    between atoms: S_1  and  N_15
REMARK    3  A    between atoms: C_5  and  C_10
REMARK    4  A    between atoms: C_10  and  N_11
REMARK    5  A    between atoms: C_18  and  C_20
REMARK    6  A    between atoms: C_21  and  C_24
REMARK    7  A    between atoms: N_23  and  O_26
REMARK                            x       y       z     vdW  Elec       q    Type
REMARK                         _______ _______ _______ _____ _____    ______ ____
ROOT
ATOM      1  S   UNL     1      33.769 -22.754 -18.634  0.00  0.00    +0.080 S 
ATOM      2  O   UNL     1      33.951 -23.958 -19.424  0.00  0.00    -0.149 OA
ATOM      3  O   UNL     1      32.470 -22.132 -18.453  0.00  0.00    -0.149 OA
ENDROOT
BRANCH   1   4
ATOM      4  C   UNL     1      34.511 -22.938 -17.065  0.00  0.00    +0.126 C 
ATOM      5  C   UNL     1      35.690 -23.228 -14.569  0.00  0.00    -0.043 C 
ATOM      6  C   UNL     1      35.836 -22.549 -16.870  0.00  0.00    +0.020 C 
ATOM      7  C   UNL     1      33.778 -23.473 -16.005  0.00  0.00    +0.020 C 
ATOM      8  C   UNL     1      36.428 -22.694 -15.615  0.00  0.00    -0.005 C 
ATOM      9  C   UNL     1      34.370 -23.618 -14.751  0.00  0.00    -0.005 C 
BRANCH   5  10
ATOM     10  C   UNL     1      36.329 -23.385 -13.215  0.00  0.00    -0.050 C 
BRANCH  10  11
ATOM     11  N   UNL     1      35.937 -24.637 -12.569  0.00  0.00    +0.387 N 
ATOM     12  C   UNL     1      35.645 -24.413 -11.153  0.00  0.00    -0.100 C 
ATOM     13  C   UNL     1      36.988 -25.642 -12.722  0.00  0.00    -0.100 C 
ATOM     14  H   UNL     1      35.091 -24.983 -13.022  0.00  0.00    -0.079 HD
ENDBRANCH  10  11
ENDBRANCH   5  10
ENDBRANCH   1   4
BRANCH   1  15
ATOM     15  N   UNL     1      34.735 -21.592 -19.473  0.00  0.00    -0.167 N 
ATOM     16  C   UNL     1      34.213 -20.638 -20.246  0.00  0.00    +0.089 C 
ATOM     17  C   UNL     1      36.066 -21.573 -19.402  0.00  0.00    +0.089 C 
ATOM     18  C   UNL     1      35.289 -19.927 -20.728  0.00  0.00    +0.018 C 
ATOM     19  C   UNL     1      36.461 -20.517 -20.195  0.00  0.00    +0.019 C 
BRANCH  18  20
ATOM     20  C   UNL     1      35.203 -18.816 -21.594  0.00  0.00    +0.006 C 
ATOM     21  C   UNL     1      35.085 -18.811 -22.952  0.00  0.00    +0.060 C 
BRANCH  21  24
ATOM     22  O   UNL     1      35.189 -16.436 -23.203  0.00  0.00    -0.268 OA
ATOM     23  N   UNL     1      34.703 -17.755 -25.038  0.00  0.00    -0.193 N 
ATOM     24  C   UNL     1      35.003 -17.535 -23.718  0.00  0.00    +0.268 C 
ATOM     25  H   UNL     1      34.563 -18.660 -25.400  0.00  0.00    +0.183 HD
BRANCH  23  26
ATOM     26  O   UNL     1      34.609 -16.608 -25.838  0.00  0.00    -0.295 OA
ATOM     27  H   UNL     1      35.258 -15.952 -25.539  0.00  0.00    +0.241 HD
ENDBRANCH  23  26
ENDBRANCH  21  24
ENDBRANCH  18  20
ENDBRANCH   1  15
TORSDOF 7
ENDMDL
MODEL 3
REMARK VINA RESULT:      -9.9      3.720      5.924
REMARK  Name = 11609955
REMARK  7 active torsions:
REMARK  status: ('A' for Active; 'I' for Inactive)
REMARK    1  A    between atoms: S_1  and  C_4
REMARK    2  A    between atoms: S_1  and  N_15
REMARK    3  A    between atoms: C_5  and  C_10
REMARK    4  A    between atoms: C_10  and  N_11
REMARK    5  A    between atoms: C_18  and  C_20
REMARK    6  A    between atoms: C_21  and  C_24
REMARK    7  A    between atoms: N_23  and  O_26
REMARK                            x       y       z     vdW  Elec       q    Type
REMARK                         _______ _______ _______ _____ _____    ______ ____
ROOT
ATOM      1  S   UNL     1      35.084 -23.661 -15.374  0.00  0.00    +0.080 S 
ATOM      2  O   UNL     1      35.230 -25.093 -15.561  0.00  0.00    -0.149 OA
ATOM      3  O   UNL     1      35.864 -22.920 -14.399  0.00  0.00    -0.149 OA
ENDROOT
BRANCH   1   4
ATOM      4  C   UNL     1      35.199 -22.833 -16.908  0.00  0.00    +0.126 C 
ATOM      5  C   UNL     1      35.381 -21.519 -19.345  0.00  0.00    -0.043 C 
ATOM      6  C   UNL     1      36.353 -22.118 -17.230  0.00  0.00    +0.020 C 
ATOM      7  C   UNL     1      34.136 -22.886 -17.809  0.00  0.00    +0.020 C 
ATOM      8  C   UNL     1      36.444 -21.459 -18.456  0.00  0.00    -0.005 C 
ATOM      9  C   UNL     1      34.228 -22.226 -19.035  0.00  0.00    -0.005 C 
BRANCH   5  10
ATOM     10  C   UNL     1      35.481 -20.807 -20.668  0.00  0.00    -0.050 C 
BRANCH  10  11
ATOM     11  N   UNL     1      35.143 -19.388 -20.550  0.00  0.00    +0.387 N 
ATOM     12  C   UNL     1      33.809 -19.133 -21.092  0.00  0.00    -0.100 C 
ATOM     13  C   UNL     1      36.140 -18.567 -21.236  0.00  0.00    -0.100 C 
ATOM     14  H   UNL     1      35.144 -19.138 -19.561  0.00  0.00    -0.079 HD
ENDBRANCH  10  11
ENDBRANCH   5  10
ENDBRANCH   1   4
BRANCH   1  15
ATOM     15  N   UNL     1      33.436 -23.502 -14.881  0.00  0.00    -0.167 N 
ATOM     16  C   UNL     1      32.455 -23.180 -15.725  0.00  0.00    +0.089 C 
ATOM     17  C   UNL     1      33.037 -23.690 -13.623  0.00  0.00    +0.089 C 
ATOM     18  C   UNL     1      31.308 -23.154 -14.962  0.00  0.00    +0.018 C 
ATOM     19  C   UNL     1      31.675 -23.476 -13.633  0.00  0.00    +0.019 C 
BRANCH  18  20
ATOM     20  C   UNL     1      30.018 -22.856 -15.450  0.00  0.00    +0.006 C 
ATOM     21  C   UNL     1      29.317 -23.494 -16.430  0.00  0.00    +0.060 C 
BRANCH  21  24
ATOM     22  O   UNL     1      27.526 -23.139 -17.972  0.00  0.00    -0.268 OA
ATOM     23  N   UNL     1      27.260 -22.531 -15.758  0.00  0.00    -0.193 N 
ATOM     24  C   UNL     1      27.952 -23.044 -16.825  0.00  0.00    +0.268 C 
ATOM     25  H   UNL     1      27.650 -22.479 -14.856  0.00  0.00    +0.183 HD
BRANCH  23  26
ATOM     26  O   UNL     1      25.960 -22.086 -16.036  0.00  0.00    -0.295 OA
ATOM     27  H   UNL     1      25.392 -22.246 -15.266  0.00  0.00    +0.241 HD
ENDBRANCH  23  26
ENDBRANCH  21  24
ENDBRANCH  18  20
ENDBRANCH   1  15
TORSDOF 7
ENDMDL
MODEL 4
REMARK VINA RESULT:      -9.9      4.846     10.688
REMARK  Name = 11609955
REMARK  7 active torsions:
REMARK  status: ('A' for Active; 'I' for Inactive)
REMARK    1  A    between atoms: S_1  and  C_4
REMARK    2  A    between atoms: S_1  and  N_15
REMARK    3  A    between atoms: C_5  and  C_10
REMARK    4  A    between atoms: C_10  and  N_11
REMARK    5  A    between atoms: C_18  and  C_20
REMARK    6  A    between atoms: C_21  and  C_24
REMARK    7  A    between atoms: N_23  and  O_26
REMARK                            x       y       z     vdW  Elec       q    Type
REMARK                         _______ _______ _______ _____ _____    ______ ____
ROOT
ATOM      1  S   UNL     1      35.989 -18.357 -21.430  0.00  0.00    +0.080 S 
ATOM      2  O   UNL     1      35.578 -17.120 -20.791  0.00  0.00    -0.149 OA
ATOM      3  O   UNL     1      37.381 -18.670 -21.697  0.00  0.00    -0.149 OA
ENDROOT
BRANCH   1   4
ATOM      4  C   UNL     1      35.266 -19.727 -20.625  0.00  0.00    +0.126 C 
ATOM      5  C   UNL     1      34.116 -21.905 -19.346  0.00  0.00    -0.043 C 
ATOM      6  C   UNL     1      33.877 -19.836 -20.546  0.00  0.00    +0.020 C 
ATOM      7  C   UNL     1      36.076 -20.711 -20.059  0.00  0.00    +0.020 C 
ATOM      8  C   UNL     1      33.300 -20.931 -19.905  0.00  0.00    -0.005 C 
ATOM      9  C   UNL     1      35.498 -21.806 -19.418  0.00  0.00    -0.005 C 
BRANCH   5  10
ATOM     10  C   UNL     1      33.492 -23.087 -18.653  0.00  0.00    -0.050 C 
BRANCH  10  11
ATOM     11  N   UNL     1      33.267 -22.829 -17.231  0.00  0.00    +0.387 N 
ATOM     12  C   UNL     1      34.239 -23.560 -16.419  0.00  0.00    -0.100 C 
ATOM     13  C   UNL     1      31.904 -23.198 -16.853  0.00  0.00    -0.100 C 
ATOM     14  H   UNL     1      33.390 -21.830 -17.061  0.00  0.00    -0.079 HD
ENDBRANCH  10  11
ENDBRANCH   5  10
ENDBRANCH   1   4
BRANCH   1  15
ATOM     15  N   UNL     1      35.221 -18.266 -22.975  0.00  0.00    -0.167 N 
ATOM     16  C   UNL     1      34.894 -17.110 -23.555  0.00  0.00    +0.089 C 
ATOM     17  C   UNL     1      34.906 -19.346 -23.691  0.00  0.00    +0.089 C 
ATOM     18  C   UNL     1      34.313 -17.453 -24.756  0.00  0.00    +0.018 C 
ATOM     19  C   UNL     1      34.320 -18.867 -24.842  0.00  0.00    +0.019 C 
BRANCH  18  20
ATOM     20  C   UNL     1      33.812 -16.536 -25.704  0.00  0.00    +0.006 C 
ATOM     21  C   UNL     1      33.905 -15.176 -25.695  0.00  0.00    +0.060 C 
BRANCH  21  24
ATOM     22  O   UNL     1      33.987 -13.875 -27.699  0.00  0.00    -0.268 OA
ATOM     23  N   UNL     1      31.961 -14.205 -26.636  0.00  0.00    -0.193 N 
ATOM     24  C   UNL     1      33.316 -14.351 -26.787  0.00  0.00    +0.268 C 
ATOM     25  H   UNL     1      31.470 -14.609 -25.884  0.00  0.00    +0.183 HD
BRANCH  23  26
ATOM     26  O   UNL     1      31.319 -13.444 -27.624  0.00  0.00    -0.295 OA
ATOM     27  H   UNL     1      31.471 -13.849 -28.492  0.00  0.00    +0.241 HD
ENDBRANCH  23  26
ENDBRANCH  21  24
ENDBRANCH  18  20
ENDBRANCH   1  15
TORSDOF 7
ENDMDL
MODEL 5
REMARK VINA RESULT:      -9.7      2.264      2.786
REMARK  Name = 11609955
REMARK  7 active torsions:
REMARK  status: ('A' for Active; 'I' for Inactive)
REMARK    1  A    between atoms: S_1  and  C_4
REMARK    2  A    between atoms: S_1  and  N_15
REMARK    3  A    between atoms: C_5  and  C_10
REMARK    4  A    between atoms: C_10  and  N_11
REMARK    5  A    between atoms: C_18  and  C_20
REMARK    6  A    between atoms: C_21  and  C_24
REMARK    7  A    between atoms: N_23  and  O_26
REMARK                            x       y       z     vdW  Elec       q    Type
REMARK                         _______ _______ _______ _____ _____    ______ ____
ROOT
ATOM      1  S   UNL     1      33.392 -23.162 -18.127  0.00  0.00    +0.080 S 
ATOM      2  O   UNL     1      32.084 -22.735 -17.663  0.00  0.00    -0.149 OA
ATOM      3  O   UNL     1      33.604 -24.435 -18.792  0.00  0.00    -0.149 OA
ENDROOT
BRANCH   1   4
ATOM      4  C   UNL     1      34.132 -21.911 -19.094  0.00  0.00    +0.126 C 
ATOM      5  C   UNL     1      35.309 -19.923 -20.633  0.00  0.00    -0.043 C 
ATOM      6  C   UNL     1      35.522 -21.841 -19.199  0.00  0.00    +0.020 C 
ATOM      7  C   UNL     1      33.335 -20.981 -19.761  0.00  0.00    +0.020 C 
ATOM      8  C   UNL     1      36.113 -20.842 -19.973  0.00  0.00    -0.005 C 
ATOM      9  C   UNL     1      33.926 -19.983 -20.535  0.00  0.00    -0.005 C 
BRANCH   5  10
ATOM     10  C   UNL     1      35.948 -18.845 -21.468  0.00  0.00    -0.050 C 
BRANCH  10  11
ATOM     11  N   UNL     1      34.992 -18.236 -22.394  0.00  0.00    +0.387 N 
ATOM     12  C   UNL     1      35.139 -18.810 -23.731  0.00  0.00    -0.100 C 
ATOM     13  C   UNL     1      35.176 -16.786 -22.436  0.00  0.00    -0.100 C 
ATOM     14  H   UNL     1      34.049 -18.433 -22.059  0.00  0.00    -0.079 HD
ENDBRANCH  10  11
ENDBRANCH   5  10
ENDBRANCH   1   4
BRANCH   1  15
ATOM     15  N   UNL     1      34.316 -23.231 -16.669  0.00  0.00    -0.167 N 
ATOM     16  C   UNL     1      35.596 -23.604 -16.638  0.00  0.00    +0.089 C 
ATOM     17  C   UNL     1      33.809 -22.915 -15.477  0.00  0.00    +0.089 C 
ATOM     18  C   UNL     1      35.969 -23.529 -15.315  0.00  0.00    +0.018 C 
ATOM     19  C   UNL     1      34.840 -23.094 -14.580  0.00  0.00    +0.019 C 
BRANCH  18  20
ATOM     20  C   UNL     1      37.253 -23.838 -14.818  0.00  0.00    +0.006 C 
ATOM     21  C   UNL     1      37.770 -25.063 -14.515  0.00  0.00    +0.060 C 
BRANCH  21  24
ATOM     22  O   UNL     1      39.643 -24.453 -13.161  0.00  0.00    -0.268 OA
ATOM     23  N   UNL     1      39.799 -26.284 -14.563  0.00  0.00    -0.193 N 
ATOM     24  C   UNL     1      39.159 -25.212 -13.996  0.00  0.00    +0.268 C 
ATOM     25  H   UNL     1      39.363 -26.862 -15.230  0.00  0.00    +0.183 HD
BRANCH  23  26
ATOM     26  O   UNL     1      41.114 -26.504 -14.130  0.00  0.00    -0.295 OA
ATOM     27  H   UNL     1      41.222 -27.436 -13.885  0.00  0.00    +0.241 HD
ENDBRANCH  23  26
ENDBRANCH  21  24
ENDBRANCH  18  20
ENDBRANCH   1  15
TORSDOF 7
ENDMDL
MODEL 6
REMARK VINA RESULT:      -9.6      1.407      1.623
REMARK  Name = 11609955
REMARK  7 active torsions:
REMARK  status: ('A' for Active; 'I' for Inactive)
REMARK    1  A    between atoms: S_1  and  C_4
REMARK    2  A    between atoms: S_1  and  N_15
REMARK    3  A    between atoms: C_5  and  C_10
REMARK    4  A    between atoms: C_10  and  N_11
REMARK    5  A    between atoms: C_18  and  C_20
REMARK    6  A    between atoms: C_21  and  C_24
REMARK    7  A    between atoms: N_23  and  O_26
REMARK                            x       y       z     vdW  Elec       q    Type
REMARK                         _______ _______ _______ _____ _____    ______ ____
ROOT
ATOM      1  S   UNL     1      33.841 -22.464 -19.070  0.00  0.00    +0.080 S 
ATOM      2  O   UNL     1      32.632 -22.387 -18.269  0.00  0.00    -0.149 OA
ATOM      3  O   UNL     1      34.130 -23.592 -19.935  0.00  0.00    -0.149 OA
ENDROOT
BRANCH   1   4
ATOM      4  C   UNL     1      34.051 -20.998 -19.995  0.00  0.00    +0.126 C 
ATOM      5  C   UNL     1      34.386 -18.667 -21.463  0.00  0.00    -0.043 C 
ATOM      6  C   UNL     1      32.946 -20.208 -20.310  0.00  0.00    +0.020 C 
ATOM      7  C   UNL     1      35.324 -20.618 -20.418  0.00  0.00    +0.020 C 
ATOM      8  C   UNL     1      33.115 -19.036 -21.047  0.00  0.00    -0.005 C 
ATOM      9  C   UNL     1      35.493 -19.445 -21.155  0.00  0.00    -0.005 C 
BRANCH   5  10
ATOM     10  C   UNL     1      34.568 -17.402 -22.259  0.00  0.00    -0.050 C 
BRANCH  10  11
ATOM     11  N   UNL     1      35.236 -17.653 -23.535  0.00  0.00    +0.387 N 
ATOM     12  C   UNL     1      35.163 -16.470 -24.393  0.00  0.00    -0.100 C 
ATOM     13  C   UNL     1      34.641 -18.808 -24.206  0.00  0.00    -0.100 C 
ATOM     14  H   UNL     1      36.219 -17.857 -23.351  0.00  0.00    -0.079 HD
ENDBRANCH  10  11
ENDBRANCH   5  10
ENDBRANCH   1   4
BRANCH   1  15
ATOM     15  N   UNL     1      35.093 -22.448 -17.880  0.00  0.00    -0.167 N 
ATOM     16  C   UNL     1      35.041 -23.175 -16.763  0.00  0.00    +0.089 C 
ATOM     17  C   UNL     1      36.196 -21.709 -18.000  0.00  0.00    +0.089 C 
ATOM     18  C   UNL     1      36.207 -22.893 -16.086  0.00  0.00    +0.018 C 
ATOM     19  C   UNL     1      36.937 -21.966 -16.867  0.00  0.00    +0.019 C 
BRANCH  18  20
ATOM     20  C   UNL     1      36.574 -23.447 -14.841  0.00  0.00    +0.006 C 
ATOM     21  C   UNL     1      37.478 -24.436 -14.589  0.00  0.00    +0.060 C 
BRANCH  21  24
ATOM     22  O   UNL     1      38.594 -24.387 -12.476  0.00  0.00    -0.268 OA
ATOM     23  N   UNL     1      36.943 -25.959 -12.855  0.00  0.00    -0.193 N 
ATOM     24  C   UNL     1      37.748 -24.904 -13.200  0.00  0.00    +0.268 C 
ATOM     25  H   UNL     1      36.278 -26.336 -13.476  0.00  0.00    +0.183 HD
BRANCH  23  26
ATOM     26  O   UNL     1      37.125 -26.463 -11.560  0.00  0.00    -0.295 OA
ATOM     27  H   UNL     1      36.967 -25.758 -10.914  0.00  0.00    +0.241 HD
ENDBRANCH  23  26
ENDBRANCH  21  24
ENDBRANCH  18  20
ENDBRANCH   1  15
TORSDOF 7
ENDMDL
MODEL 7
REMARK VINA RESULT:      -9.5      3.373      5.323
REMARK  Name = 11609955
REMARK  7 active torsions:
REMARK  status: ('A' for Active; 'I' for Inactive)
REMARK    1  A    between atoms: S_1  and  C_4
REMARK    2  A    between atoms: S_1  and  N_15
REMARK    3  A    between atoms: C_5  and  C_10
REMARK    4  A    between atoms: C_10  and  N_11
REMARK    5  A    between atoms: C_18  and  C_20
REMARK    6  A    between atoms: C_21  and  C_24
REMARK    7  A    between atoms: N_23  and  O_26
REMARK                            x       y       z     vdW  Elec       q    Type
REMARK                         _______ _______ _______ _____ _____    ______ ____
ROOT
ATOM      1  S   UNL     1      35.372 -18.460 -22.545  0.00  0.00    +0.080 S 
ATOM      2  O   UNL     1      34.807 -19.003 -23.767  0.00  0.00    -0.149 OA
ATOM      3  O   UNL     1      36.803 -18.333 -22.339  0.00  0.00    -0.149 OA
ENDROOT
BRANCH   1   4
ATOM      4  C   UNL     1      34.627 -16.929 -22.159  0.00  0.00    +0.126 C 
ATOM      5  C   UNL     1      33.441 -14.496 -21.545  0.00  0.00    -0.043 C 
ATOM      6  C   UNL     1      33.902 -16.241 -23.132  0.00  0.00    +0.020 C 
ATOM      7  C   UNL     1      34.758 -16.393 -20.878  0.00  0.00    +0.020 C 
ATOM      8  C   UNL     1      33.305 -15.019 -22.823  0.00  0.00    -0.005 C 
ATOM      9  C   UNL     1      34.161 -15.171 -20.569  0.00  0.00    -0.005 C 
BRANCH   5  10
ATOM     10  C   UNL     1      32.797 -13.176 -21.212  0.00  0.00    -0.050 C 
BRANCH  10  11
ATOM     11  N   UNL     1      32.148 -12.576 -22.378  0.00  0.00    +0.387 N 
ATOM     12  C   UNL     1      33.143 -11.963 -23.257  0.00  0.00    -0.100 C 
ATOM     13  C   UNL     1      31.157 -11.586 -21.959  0.00  0.00    -0.100 C 
ATOM     14  H   UNL     1      31.670 -13.314 -22.896  0.00  0.00    -0.079 HD
ENDBRANCH  10  11
ENDBRANCH   5  10
ENDBRANCH   1   4
BRANCH   1  15
ATOM     15  N   UNL     1      34.817 -19.565 -21.339  0.00  0.00    -0.167 N 
ATOM     16  C   UNL     1      35.643 -20.222 -20.522  0.00  0.00    +0.089 C 
ATOM     17  C   UNL     1      33.527 -19.835 -21.144  0.00  0.00    +0.089 C 
ATOM     18  C   UNL     1      34.831 -20.991 -19.719  0.00  0.00    +0.018 C 
ATOM     19  C   UNL     1      33.493 -20.747 -20.111  0.00  0.00    +0.019 C 
BRANCH  18  20
ATOM     20  C   UNL     1      35.285 -21.854 -18.700  0.00  0.00    +0.006 C 
ATOM     21  C   UNL     1      36.299 -21.652 -17.811  0.00  0.00    +0.060 C 
BRANCH  21  24
ATOM     22  O   UNL     1      35.816 -23.421 -16.278  0.00  0.00    -0.268 OA
ATOM     23  N   UNL     1      37.992 -22.676 -16.507  0.00  0.00    -0.193 N 
ATOM     24  C   UNL     1      36.649 -22.678 -16.787  0.00  0.00    +0.268 C 
ATOM     25  H   UNL     1      38.618 -22.057 -16.947  0.00  0.00    +0.183 HD
BRANCH  23  26
ATOM     26  O   UNL     1      38.414 -23.615 -15.555  0.00  0.00    -0.295 OA
ATOM     27  H   UNL     1      38.293 -24.510 -15.909  0.00  0.00    +0.241 HD
ENDBRANCH  23  26
ENDBRANCH  21  24
ENDBRANCH  18  20
ENDBRANCH   1  15
TORSDOF 7
ENDMDL
MODEL 8
REMARK VINA RESULT:      -9.4      3.657      5.969
REMARK  Name = 11609955
REMARK  7 active torsions:
REMARK  status: ('A' for Active; 'I' for Inactive)
REMARK    1  A    between atoms: S_1  and  C_4
REMARK    2  A    between atoms: S_1  and  N_15
REMARK    3  A    between atoms: C_5  and  C_10
REMARK    4  A    between atoms: C_10  and  N_11
REMARK    5  A    between atoms: C_18  and  C_20
REMARK    6  A    between atoms: C_21  and  C_24
REMARK    7  A    between atoms: N_23  and  O_26
REMARK                            x       y       z     vdW  Elec       q    Type
REMARK                         _______ _______ _______ _____ _____    ______ ____
ROOT
ATOM      1  S   UNL     1      35.597 -18.486 -22.863  0.00  0.00    +0.080 S 
ATOM      2  O   UNL     1      35.451 -19.280 -24.069  0.00  0.00    -0.149 OA
ATOM      3  O   UNL     1      36.874 -18.312 -22.195  0.00  0.00    -0.149 OA
ENDROOT
BRANCH   1   4
ATOM      4  C   UNL     1      34.876 -16.911 -23.082  0.00  0.00    +0.126 C 
ATOM      5  C   UNL     1      33.733 -14.406 -23.429  0.00  0.00    -0.043 C 
ATOM      6  C   UNL     1      34.900 -15.982 -22.041  0.00  0.00    +0.020 C 
ATOM      7  C   UNL     1      34.276 -16.581 -24.297  0.00  0.00    +0.020 C 
ATOM      8  C   UNL     1      34.326 -14.723 -22.216  0.00  0.00    -0.005 C 
ATOM      9  C   UNL     1      33.702 -15.322 -24.472  0.00  0.00    -0.005 C 
BRANCH   5  10
ATOM     10  C   UNL     1      33.113 -13.047 -23.619  0.00  0.00    -0.050 C 
BRANCH  10  11
ATOM     11  N   UNL     1      34.017 -12.127 -24.310  0.00  0.00    +0.387 N 
ATOM     12  C   UNL     1      33.858 -10.768 -23.793  0.00  0.00    -0.100 C 
ATOM     13  C   UNL     1      33.772 -12.157 -25.752  0.00  0.00    -0.100 C 
ATOM     14  H   UNL     1      34.976 -12.429 -24.140  0.00  0.00    -0.079 HD
ENDBRANCH  10  11
ENDBRANCH   5  10
ENDBRANCH   1   4
BRANCH   1  15
ATOM     15  N   UNL     1      34.582 -19.310 -21.734  0.00  0.00    -0.167 N 
ATOM     16  C   UNL     1      35.039 -20.237 -20.890  0.00  0.00    +0.089 C 
ATOM     17  C   UNL     1      33.274 -19.072 -21.630  0.00  0.00    +0.089 C 
ATOM     18  C   UNL     1      33.941 -20.649 -20.167  0.00  0.00    +0.018 C 
ATOM     19  C   UNL     1      32.825 -19.913 -20.634  0.00  0.00    +0.019 C 
BRANCH  18  20
ATOM     20  C   UNL     1      33.962 -21.629 -19.152  0.00  0.00    +0.006 C 
ATOM     21  C   UNL     1      32.926 -22.076 -18.388  0.00  0.00    +0.060 C 
BRANCH  21  24
ATOM     22  O   UNL     1      34.142 -23.813 -17.284  0.00  0.00    -0.268 OA
ATOM     23  N   UNL     1      32.047 -23.220 -16.509  0.00  0.00    -0.193 N 
ATOM     24  C   UNL     1      33.125 -23.129 -17.351  0.00  0.00    +0.268 C 
ATOM     25  H   UNL     1      31.254 -22.645 -16.607  0.00  0.00    +0.183 HD
BRANCH  23  26
ATOM     26  O   UNL     1      32.149 -24.185 -15.496  0.00  0.00    -0.295 OA
ATOM     27  H   UNL     1      33.061 -24.511 -15.452  0.00  0.00    +0.241 HD
ENDBRANCH  23  26
ENDBRANCH  21  24
ENDBRANCH  18  20
ENDBRANCH   1  15
TORSDOF 7
ENDMDL
MODEL 9
REMARK VINA RESULT:      -9.2      5.670      6.924
REMARK  Name = 11609955
REMARK  7 active torsions:
REMARK  status: ('A' for Active; 'I' for Inactive)
REMARK    1  A    between atoms: S_1  and  C_4
REMARK    2  A    between atoms: S_1  and  N_15
REMARK    3  A    between atoms: C_5  and  C_10
REMARK    4  A    between atoms: C_10  and  N_11
REMARK    5  A    between atoms: C_18  and  C_20
REMARK    6  A    between atoms: C_21  and  C_24
REMARK    7  A    between atoms: N_23  and  O_26
REMARK                            x       y       z     vdW  Elec       q    Type
REMARK                         _______ _______ _______ _____ _____    ______ ____
ROOT
ATOM      1  S   UNL     1      31.732 -24.068 -13.586  0.00  0.00    +0.080 S 
ATOM      2  O   UNL     1      31.880 -22.964 -12.655  0.00  0.00    -0.149 OA
ATOM      3  O   UNL     1      31.596 -25.445 -13.144  0.00  0.00    -0.149 OA
ENDROOT
BRANCH   1   4
ATOM      4  C   UNL     1      30.456 -23.733 -14.729  0.00  0.00    +0.126 C 
ATOM      5  C   UNL     1      28.430 -23.199 -16.548  0.00  0.00    -0.043 C 
ATOM      6  C   UNL     1      29.978 -22.431 -14.878  0.00  0.00    +0.020 C 
ATOM      7  C   UNL     1      29.915 -24.767 -15.493  0.00  0.00    +0.020 C 
ATOM      8  C   UNL     1      28.960 -22.163 -15.793  0.00  0.00    -0.005 C 
ATOM      9  C   UNL     1      28.897 -24.498 -16.408  0.00  0.00    -0.005 C 
BRANCH   5  10
ATOM     10  C   UNL     1      27.330 -22.909 -17.536  0.00  0.00    -0.050 C 
BRANCH  10  11
ATOM     11  N   UNL     1      26.658 -21.643 -17.247  0.00  0.00    +0.387 N 
ATOM     12  C   UNL     1      25.788 -21.781 -16.079  0.00  0.00    -0.100 C 
ATOM     13  C   UNL     1      25.889 -21.195 -18.407  0.00  0.00    -0.100 C 
ATOM     14  H   UNL     1      27.368 -20.940 -17.040  0.00  0.00    -0.079 HD
ENDBRANCH  10  11
ENDBRANCH   5  10
ENDBRANCH   1   4
BRANCH   1  15
ATOM     15  N   UNL     1      33.201 -24.006 -14.494  0.00  0.00    -0.167 N 
ATOM     16  C   UNL     1      34.305 -24.661 -14.132  0.00  0.00    +0.089 C 
ATOM     17  C   UNL     1      33.326 -23.300 -15.618  0.00  0.00    +0.089 C 
ATOM     18  C   UNL     1      35.241 -24.364 -15.098  0.00  0.00    +0.018 C 
ATOM     19  C   UNL     1      34.623 -23.503 -16.037  0.00  0.00    +0.019 C 
BRANCH  18  20
ATOM     20  C   UNL     1      36.567 -24.847 -15.115  0.00  0.00    +0.006 C 
ATOM     21  C   UNL     1      37.410 -25.040 -14.061  0.00  0.00    +0.060 C 
BRANCH  21  24
ATOM     22  O   UNL     1      39.408 -26.163 -13.382  0.00  0.00    -0.268 OA
ATOM     23  N   UNL     1      39.258 -25.298 -15.520  0.00  0.00    -0.193 N 
ATOM     24  C   UNL     1      38.791 -25.565 -14.259  0.00  0.00    +0.268 C 
ATOM     25  H   UNL     1      38.720 -24.814 -16.187  0.00  0.00    +0.183 HD
BRANCH  23  26
ATOM     26  O   UNL     1      40.552 -25.761 -15.798  0.00  0.00    -0.295 OA
ATOM     27  H   UNL     1      40.650 -25.891 -16.754  0.00  0.00    +0.241 HD
ENDBRANCH  23  26
ENDBRANCH  21  24
ENDBRANCH  18  20
ENDBRANCH   1  15
TORSDOF 7
ENDMDL
