MODEL 1
REMARK VINA RESULT:     -10.7      0.000      0.000
REMARK  Name = 4030
REMARK  4 active torsions:
REMARK  status: ('A' for Active; 'I' for Inactive)
REMARK    1  A    between atoms: N_4  and  C_11
REMARK    2  A    between atoms: C_7  and  C_17
REMARK    3  A    between atoms: C_12  and  O_24
REMARK    4  A    between atoms: C_17  and  C_18
REMARK                            x       y       z     vdW  Elec       q    Type
REMARK                         _______ _______ _______ _____ _____    ______ ____
ROOT
ATOM      1  N   UNL     1      32.705 -21.772 -18.990  0.00  0.00    -0.302 N 
ATOM      2  N   UNL     1      34.656 -22.449 -18.169  0.00  0.00    -0.302 N 
ATOM      3  C   UNL     1      33.658 -21.135 -19.741  0.00  0.00    +0.060 C 
ATOM      4  C   UNL     1      34.868 -21.572 -19.209  0.00  0.00    +0.060 C 
ATOM      5  C   UNL     1      34.776 -19.779 -21.344  0.00  0.00    +0.040 C 
ATOM      6  C   UNL     1      33.570 -20.239 -20.807  0.00  0.00    +0.019 C 
ATOM      7  C   UNL     1      36.071 -21.100 -19.762  0.00  0.00    +0.016 C 
ATOM      8  C   UNL     1      36.006 -20.201 -20.833  0.00  0.00    +0.005 C 
ATOM      9  C   UNL     1      33.350 -22.545 -18.065  0.00  0.00    +0.229 C 
ATOM     10  H   UNL     1      31.730 -21.688 -19.098  0.00  0.00    +0.150 HD
ATOM     11  H   UNL     1      35.336 -22.903 -17.622  0.00  0.00    +0.150 HD
ENDROOT
BRANCH   9  13
ATOM     12  O   UNL     1      30.518 -22.280 -17.098  0.00  0.00    -0.226 OA
ATOM     13  N   UNL     1      32.634 -23.301 -17.174  0.00  0.00    -0.240 N 
ATOM     14  C   UNL     1      31.303 -23.149 -16.741  0.00  0.00    +0.404 C 
ATOM     15  H   UNL     1      33.121 -24.062 -16.780  0.00  0.00    +0.156 HD
BRANCH  14  16
ATOM     16  O   UNL     1      30.988 -24.131 -15.838  0.00  0.00    -0.431 OA
ATOM     17  C   UNL     1      29.600 -24.474 -15.742  0.00  0.00    +0.257 C 
ENDBRANCH  14  16
ENDBRANCH   9  13
BRANCH   5  19
ATOM     18  O   UNL     1      34.803 -19.209 -23.637  0.00  0.00    -0.287 OA
ATOM     19  C   UNL     1      34.749 -18.843 -22.459  0.00  0.00    +0.196 C 
BRANCH  19  20
ATOM     20  C   UNL     1      34.671 -17.381 -22.212  0.00  0.00    +0.039 C 
ATOM     21  C   UNL     1      34.625 -16.927 -20.910  0.00  0.00    +0.003 C 
ATOM     22  C   UNL     1      34.646 -16.523 -23.291  0.00  0.00    +0.003 C 
ATOM     23  C   UNL     1      34.550 -15.553 -20.677  0.00  0.00    +0.000 C 
ATOM     24  C   UNL     1      34.572 -15.149 -23.060  0.00  0.00    +0.000 C 
ATOM     25  C   UNL     1      34.524 -14.665 -21.752  0.00  0.00    +0.000 C 
ENDBRANCH  19  20
ENDBRANCH   5  19
TORSDOF 4
ENDMDL
MODEL 2
REMARK VINA RESULT:     -10.6      4.838      8.532
REMARK  Name = 4030
REMARK  4 active torsions:
REMARK  status: ('A' for Active; 'I' for Inactive)
REMARK    1  A    between atoms: N_4  and  C_11
REMARK    2  A    between atoms: C_7  and  C_17
REMARK    3  A    between atoms: C_12  and  O_24
REMARK    4  A    between atoms: C_17  and  C_18
REMARK                            x       y       z     vdW  Elec       q    Type
REMARK                         _______ _______ _______ _____ _____    ______ ____
ROOT
ATOM      1  N   UNL     1      33.878 -14.154 -22.116  0.00  0.00    -0.302 N 
ATOM      2  N   UNL     1      33.609 -14.354 -24.313  0.00  0.00    -0.302 N 
ATOM      3  C   UNL     1      34.366 -15.395 -22.432  0.00  0.00    +0.060 C 
ATOM      4  C   UNL     1      34.186 -15.498 -23.809  0.00  0.00    +0.060 C 
ATOM      5  C   UNL     1      35.325 -17.570 -22.327  0.00  0.00    +0.040 C 
ATOM      6  C   UNL     1      34.930 -16.409 -21.655  0.00  0.00    +0.019 C 
ATOM      7  C   UNL     1      34.590 -16.672 -24.467  0.00  0.00    +0.016 C 
ATOM      8  C   UNL     1      35.160 -17.702 -23.708  0.00  0.00    +0.005 C 
ATOM      9  C   UNL     1      33.439 -13.571 -23.272  0.00  0.00    +0.229 C 
ATOM     10  H   UNL     1      33.850 -13.753 -21.217  0.00  0.00    +0.150 HD
ATOM     11  H   UNL     1      33.375 -14.166 -25.250  0.00  0.00    +0.150 HD
ENDROOT
BRANCH   9  13
ATOM     12  O   UNL     1      31.600 -12.259 -21.291  0.00  0.00    -0.226 OA
ATOM     13  N   UNL     1      32.898 -12.312 -23.250  0.00  0.00    -0.240 N 
ATOM     14  C   UNL     1      32.036 -11.726 -22.303  0.00  0.00    +0.404 C 
ATOM     15  H   UNL     1      33.149 -11.733 -24.006  0.00  0.00    +0.156 HD
BRANCH  14  16
ATOM     16  O   UNL     1      31.738 -10.441 -22.672  0.00  0.00    -0.431 OA
ATOM     17  C   UNL     1      32.788  -9.713 -23.322  0.00  0.00    +0.257 C 
ENDBRANCH  14  16
ENDBRANCH   9  13
BRANCH   5  19
ATOM     18  O   UNL     1      37.142 -18.828 -21.493  0.00  0.00    -0.287 OA
ATOM     19  C   UNL     1      35.922 -18.662 -21.572  0.00  0.00    +0.196 C 
BRANCH  19  20
ATOM     20  C   UNL     1      35.062 -19.646 -20.866  0.00  0.00    +0.039 C 
ATOM     21  C   UNL     1      35.661 -20.670 -20.162  0.00  0.00    +0.003 C 
ATOM     22  C   UNL     1      33.692 -19.507 -20.938  0.00  0.00    +0.003 C 
ATOM     23  C   UNL     1      34.855 -21.596 -19.500  0.00  0.00    +0.000 C 
ATOM     24  C   UNL     1      32.884 -20.432 -20.276  0.00  0.00    +0.000 C 
ATOM     25  C   UNL     1      33.466 -21.477 -19.557  0.00  0.00    +0.000 C 
ENDBRANCH  19  20
ENDBRANCH   5  19
TORSDOF 4
ENDMDL
MODEL 3
REMARK VINA RESULT:     -10.4      2.866      7.661
REMARK  Name = 4030
REMARK  4 active torsions:
REMARK  status: ('A' for Active; 'I' for Inactive)
REMARK    1  A    between atoms: N_4  and  C_11
REMARK    2  A    between atoms: C_7  and  C_17
REMARK    3  A    between atoms: C_12  and  O_24
REMARK    4  A    between atoms: C_17  and  C_18
REMARK                            x       y       z     vdW  Elec       q    Type
REMARK                         _______ _______ _______ _____ _____    ______ ____
ROOT
ATOM      1  N   UNL     1      33.785 -18.691 -21.100  0.00  0.00    -0.302 N 
ATOM      2  N   UNL     1      35.989 -18.409 -21.088  0.00  0.00    -0.302 N 
ATOM      3  C   UNL     1      34.294 -19.813 -20.499  0.00  0.00    +0.060 C 
ATOM      4  C   UNL     1      35.672 -19.614 -20.504  0.00  0.00    +0.060 C 
ATOM      5  C   UNL     1      34.534 -21.920 -19.420  0.00  0.00    +0.040 C 
ATOM      6  C   UNL     1      33.686 -20.951 -19.968  0.00  0.00    +0.019 C 
ATOM      7  C   UNL     1      36.508 -20.597 -19.949  0.00  0.00    +0.016 C 
ATOM      8  C   UNL     1      35.920 -21.748 -19.409  0.00  0.00    +0.005 C 
ATOM      9  C   UNL     1      34.836 -17.883 -21.434  0.00  0.00    +0.229 C 
ATOM     10  H   UNL     1      32.832 -18.501 -21.262  0.00  0.00    +0.150 HD
ATOM     11  H   UNL     1      36.886 -18.026 -21.219  0.00  0.00    +0.150 HD
ENDROOT
BRANCH   9  13
ATOM     12  O   UNL     1      34.878 -15.081 -20.350  0.00  0.00    -0.226 OA
ATOM     13  N   UNL     1      34.616 -16.681 -22.053  0.00  0.00    -0.240 N 
ATOM     14  C   UNL     1      34.643 -15.379 -21.514  0.00  0.00    +0.404 C 
ATOM     15  H   UNL     1      34.409 -16.733 -23.015  0.00  0.00    +0.156 HD
BRANCH  14  16
ATOM     16  O   UNL     1      34.364 -14.461 -22.491  0.00  0.00    -0.431 OA
ATOM     17  C   UNL     1      33.887 -14.990 -23.734  0.00  0.00    +0.257 C 
ENDBRANCH  14  16
ENDBRANCH   9  13
BRANCH   5  19
ATOM     18  O   UNL     1      33.847 -24.178 -19.490  0.00  0.00    -0.287 OA
ATOM     19  C   UNL     1      33.959 -23.129 -18.850  0.00  0.00    +0.196 C 
BRANCH  19  20
ATOM     20  C   UNL     1      33.462 -23.138 -17.451  0.00  0.00    +0.039 C 
ATOM     21  C   UNL     1      32.106 -23.013 -17.224  0.00  0.00    +0.003 C 
ATOM     22  C   UNL     1      34.369 -23.270 -16.421  0.00  0.00    +0.003 C 
ATOM     23  C   UNL     1      31.638 -23.020 -15.910  0.00  0.00    +0.000 C 
ATOM     24  C   UNL     1      33.903 -23.277 -15.106  0.00  0.00    +0.000 C 
ATOM     25  C   UNL     1      32.536 -23.152 -14.852  0.00  0.00    +0.000 C 
ENDBRANCH  19  20
ENDBRANCH   5  19
TORSDOF 4
ENDMDL
MODEL 4
REMARK VINA RESULT:     -10.4      2.007      2.635
REMARK  Name = 4030
REMARK  4 active torsions:
REMARK  status: ('A' for Active; 'I' for Inactive)
REMARK    1  A    between atoms: N_4  and  C_11
REMARK    2  A    between atoms: C_7  and  C_17
REMARK    3  A    between atoms: C_12  and  O_24
REMARK    4  A    between atoms: C_17  and  C_18
REMARK                            x       y       z     vdW  Elec       q    Type
REMARK                         _______ _______ _______ _____ _____    ______ ____
ROOT
ATOM      1  N   UNL     1      35.090 -22.068 -18.501  0.00  0.00    -0.302 N 
ATOM      2  N   UNL     1      32.886 -22.085 -18.782  0.00  0.00    -0.302 N 
ATOM      3  C   UNL     1      34.843 -21.171 -19.508  0.00  0.00    +0.060 C 
ATOM      4  C   UNL     1      33.460 -21.199 -19.665  0.00  0.00    +0.060 C 
ATOM      5  C   UNL     1      35.074 -19.550 -21.234  0.00  0.00    +0.040 C 
ATOM      6  C   UNL     1      35.684 -20.361 -20.272  0.00  0.00    +0.019 C 
ATOM      7  C   UNL     1      32.863 -20.377 -20.636  0.00  0.00    +0.016 C 
ATOM      8  C   UNL     1      33.689 -19.555 -21.414  0.00  0.00    +0.005 C 
ATOM      9  C   UNL     1      33.891 -22.587 -18.101  0.00  0.00    +0.229 C 
ATOM     10  H   UNL     1      35.974 -22.297 -18.133  0.00  0.00    +0.150 HD
ATOM     11  H   UNL     1      31.930 -22.296 -18.683  0.00  0.00    +0.150 HD
ENDROOT
BRANCH   9  13
ATOM     12  O   UNL     1      35.259 -22.665 -15.427  0.00  0.00    -0.226 OA
ATOM     13  N   UNL     1      33.840 -23.518 -17.096  0.00  0.00    -0.240 N 
ATOM     14  C   UNL     1      34.496 -23.524 -15.850  0.00  0.00    +0.404 C 
ATOM     15  H   UNL     1      33.260 -24.295 -17.270  0.00  0.00    +0.156 HD
BRANCH  14  16
ATOM     16  O   UNL     1      34.162 -24.653 -15.149  0.00  0.00    -0.431 OA
ATOM     17  C   UNL     1      33.165 -24.488 -14.132  0.00  0.00    +0.257 C 
ENDBRANCH  14  16
ENDBRANCH   9  13
BRANCH   5  19
ATOM     18  O   UNL     1      37.126 -18.625 -21.948  0.00  0.00    -0.287 OA
ATOM     19  C   UNL     1      35.899 -18.682 -22.061  0.00  0.00    +0.196 C 
BRANCH  19  20
ATOM     20  C   UNL     1      35.276 -17.803 -23.083  0.00  0.00    +0.039 C 
ATOM     21  C   UNL     1      34.995 -16.492 -22.753  0.00  0.00    +0.003 C 
ATOM     22  C   UNL     1      34.995 -18.323 -24.329  0.00  0.00    +0.003 C 
ATOM     23  C   UNL     1      34.409 -15.666 -23.712  0.00  0.00    +0.000 C 
ATOM     24  C   UNL     1      34.409 -17.498 -25.289  0.00  0.00    +0.000 C 
ATOM     25  C   UNL     1      34.116 -16.168 -24.979  0.00  0.00    +0.000 C 
ENDBRANCH  19  20
ENDBRANCH   5  19
TORSDOF 4
ENDMDL
MODEL 5
REMARK VINA RESULT:     -10.3      4.511      8.718
REMARK  Name = 4030
REMARK  4 active torsions:
REMARK  status: ('A' for Active; 'I' for Inactive)
REMARK    1  A    between atoms: N_4  and  C_11
REMARK    2  A    between atoms: C_7  and  C_17
REMARK    3  A    between atoms: C_12  and  O_24
REMARK    4  A    between atoms: C_17  and  C_18
REMARK                            x       y       z     vdW  Elec       q    Type
REMARK                         _______ _______ _______ _____ _____    ______ ____
ROOT
ATOM      1  N   UNL     1      34.607 -14.811 -21.896  0.00  0.00    -0.302 N 
ATOM      2  N   UNL     1      34.307 -15.189 -24.065  0.00  0.00    -0.302 N 
ATOM      3  C   UNL     1      34.930 -16.130 -22.085  0.00  0.00    +0.060 C 
ATOM      4  C   UNL     1      34.734 -16.343 -23.447  0.00  0.00    +0.060 C 
ATOM      5  C   UNL     1      35.602 -18.389 -21.760  0.00  0.00    +0.040 C 
ATOM      6  C   UNL     1      35.362 -17.126 -21.208  0.00  0.00    +0.019 C 
ATOM      7  C   UNL     1      34.981 -17.618 -23.984  0.00  0.00    +0.016 C 
ATOM      8  C   UNL     1      35.416 -18.633 -23.123  0.00  0.00    +0.005 C 
ATOM      9  C   UNL     1      34.242 -14.293 -23.107  0.00  0.00    +0.229 C 
ATOM     10  H   UNL     1      34.634 -14.324 -21.041  0.00  0.00    +0.150 HD
ATOM     11  H   UNL     1      34.096 -15.065 -25.018  0.00  0.00    +0.150 HD
ENDROOT
BRANCH   9  13
ATOM     12  O   UNL     1      33.658 -12.609 -25.526  0.00  0.00    -0.226 OA
ATOM     13  N   UNL     1      33.869 -12.979 -23.214  0.00  0.00    -0.240 N 
ATOM     14  C   UNL     1      33.601 -12.217 -24.368  0.00  0.00    +0.404 C 
ATOM     15  H   UNL     1      33.772 -12.497 -22.360  0.00  0.00    +0.156 HD
BRANCH  14  16
ATOM     16  O   UNL     1      33.259 -10.937 -24.017  0.00  0.00    -0.431 OA
ATOM     17  C   UNL     1      34.337  -9.996 -23.944  0.00  0.00    +0.257 C 
ENDBRANCH  14  16
ENDBRANCH   9  13
BRANCH   5  19
ATOM     18  O   UNL     1      37.250 -19.677 -20.663  0.00  0.00    -0.287 OA
ATOM     19  C   UNL     1      36.056 -19.469 -20.896  0.00  0.00    +0.196 C 
BRANCH  19  20
ATOM     20  C   UNL     1      35.076 -20.388 -20.264  0.00  0.00    +0.039 C 
ATOM     21  C   UNL     1      33.730 -20.191 -20.497  0.00  0.00    +0.003 C 
ATOM     22  C   UNL     1      35.541 -21.411 -19.463  0.00  0.00    +0.003 C 
ATOM     23  C   UNL     1      32.809 -21.054 -19.903  0.00  0.00    +0.000 C 
ATOM     24  C   UNL     1      34.621 -22.275 -18.869  0.00  0.00    +0.000 C 
ATOM     25  C   UNL     1      33.254 -22.096 -19.089  0.00  0.00    +0.000 C 
ENDBRANCH  19  20
ENDBRANCH   5  19
TORSDOF 4
ENDMDL
MODEL 6
REMARK VINA RESULT:      -9.9      2.689      3.496
REMARK  Name = 4030
REMARK  4 active torsions:
REMARK  status: ('A' for Active; 'I' for Inactive)
REMARK    1  A    between atoms: N_4  and  C_11
REMARK    2  A    between atoms: C_7  and  C_17
REMARK    3  A    between atoms: C_12  and  O_24
REMARK    4  A    between atoms: C_17  and  C_18
REMARK                            x       y       z     vdW  Elec       q    Type
REMARK                         _______ _______ _______ _____ _____    ______ ____
ROOT
ATOM      1  N   UNL     1      37.033 -21.086 -18.657  0.00  0.00    -0.302 N 
ATOM      2  N   UNL     1      35.217 -22.149 -17.943  0.00  0.00    -0.302 N 
ATOM      3  C   UNL     1      36.032 -20.718 -19.518  0.00  0.00    +0.060 C 
ATOM      4  C   UNL     1      34.908 -21.395 -19.052  0.00  0.00    +0.060 C 
ATOM      5  C   UNL     1      34.786 -19.730 -21.288  0.00  0.00    +0.040 C 
ATOM      6  C   UNL     1      36.012 -19.877 -20.632  0.00  0.00    +0.019 C 
ATOM      7  C   UNL     1      33.683 -21.235 -19.723  0.00  0.00    +0.016 C 
ATOM      8  C   UNL     1      33.641 -20.395 -20.843  0.00  0.00    +0.005 C 
ATOM      9  C   UNL     1      36.497 -21.940 -17.734  0.00  0.00    +0.229 C 
ATOM     10  H   UNL     1      37.970 -20.787 -18.697  0.00  0.00    +0.150 HD
ATOM     11  H   UNL     1      34.610 -22.720 -17.420  0.00  0.00    +0.150 HD
ENDROOT
BRANCH   9  13
ATOM     12  O   UNL     1      35.894 -24.027 -15.658  0.00  0.00    -0.226 OA
ATOM     13  N   UNL     1      37.281 -22.467 -16.742  0.00  0.00    -0.240 N 
ATOM     14  C   UNL     1      36.966 -23.448 -15.781  0.00  0.00    +0.404 C 
ATOM     15  H   UNL     1      38.197 -22.109 -16.693  0.00  0.00    +0.156 HD
BRANCH  14  16
ATOM     16  O   UNL     1      38.049 -23.680 -14.975  0.00  0.00    -0.431 OA
ATOM     17  C   UNL     1      38.114 -24.976 -14.366  0.00  0.00    +0.257 C 
ENDBRANCH  14  16
ENDBRANCH   9  13
BRANCH   5  19
ATOM     18  O   UNL     1      34.698 -19.305 -23.610  0.00  0.00    -0.287 OA
ATOM     19  C   UNL     1      34.702 -18.866 -22.456  0.00  0.00    +0.196 C 
BRANCH  19  20
ATOM     20  C   UNL     1      34.633 -17.391 -22.297  0.00  0.00    +0.039 C 
ATOM     21  C   UNL     1      34.549 -16.861 -21.026  0.00  0.00    +0.003 C 
ATOM     22  C   UNL     1      34.654 -16.597 -23.425  0.00  0.00    +0.003 C 
ATOM     23  C   UNL     1      34.483 -15.476 -20.875  0.00  0.00    +0.000 C 
ATOM     24  C   UNL     1      34.589 -15.212 -23.276  0.00  0.00    +0.000 C 
ATOM     25  C   UNL     1      34.503 -14.651 -22.000  0.00  0.00    +0.000 C 
ENDBRANCH  19  20
ENDBRANCH   5  19
TORSDOF 4
ENDMDL
MODEL 7
REMARK VINA RESULT:      -9.9      5.256      9.233
REMARK  Name = 4030
REMARK  4 active torsions:
REMARK  status: ('A' for Active; 'I' for Inactive)
REMARK    1  A    between atoms: N_4  and  C_11
REMARK    2  A    between atoms: C_7  and  C_17
REMARK    3  A    between atoms: C_12  and  O_24
REMARK    4  A    between atoms: C_17  and  C_18
REMARK                            x       y       z     vdW  Elec       q    Type
REMARK                         _______ _______ _______ _____ _____    ______ ____
ROOT
ATOM      1  N   UNL     1      34.101 -13.457 -23.561  0.00  0.00    -0.302 N 
ATOM      2  N   UNL     1      32.610 -13.123 -21.947  0.00  0.00    -0.302 N 
ATOM      3  C   UNL     1      34.086 -14.618 -22.833  0.00  0.00    +0.060 C 
ATOM      4  C   UNL     1      33.148 -14.385 -21.830  0.00  0.00    +0.060 C 
ATOM      5  C   UNL     1      34.515 -16.811 -22.016  0.00  0.00    +0.040 C 
ATOM      6  C   UNL     1      34.790 -15.816 -22.959  0.00  0.00    +0.019 C 
ATOM      7  C   UNL     1      32.883 -15.397 -20.891  0.00  0.00    +0.016 C 
ATOM      8  C   UNL     1      33.578 -16.608 -20.999  0.00  0.00    +0.005 C 
ATOM      9  C   UNL     1      33.204 -12.596 -22.994  0.00  0.00    +0.229 C 
ATOM     10  H   UNL     1      34.659 -13.276 -24.352  0.00  0.00    +0.150 HD
ATOM     11  H   UNL     1      31.930 -12.708 -21.371  0.00  0.00    +0.150 HD
ENDROOT
BRANCH   9  13
ATOM     12  O   UNL     1      31.946 -10.135 -21.815  0.00  0.00    -0.226 OA
ATOM     13  N   UNL     1      33.011 -11.347 -23.525  0.00  0.00    -0.240 N 
ATOM     14  C   UNL     1      32.416 -10.211 -22.943  0.00  0.00    +0.404 C 
ATOM     15  H   UNL     1      33.336 -11.226 -24.447  0.00  0.00    +0.156 HD
BRANCH  14  16
ATOM     16  O   UNL     1      32.428  -9.168 -23.831  0.00  0.00    -0.431 OA
ATOM     17  C   UNL     1      31.424  -8.164 -23.636  0.00  0.00    +0.257 C 
ENDBRANCH  14  16
ENDBRANCH   9  13
BRANCH   5  19
ATOM     18  O   UNL     1      36.151 -18.279 -22.879  0.00  0.00    -0.287 OA
ATOM     19  C   UNL     1      35.218 -18.083 -22.096  0.00  0.00    +0.196 C 
BRANCH  19  20
ATOM     20  C   UNL     1      34.816 -19.220 -21.230  0.00  0.00    +0.039 C 
ATOM     21  C   UNL     1      33.473 -19.504 -21.082  0.00  0.00    +0.003 C 
ATOM     22  C   UNL     1      35.796 -19.957 -20.598  0.00  0.00    +0.003 C 
ATOM     23  C   UNL     1      33.094 -20.571 -20.268  0.00  0.00    +0.000 C 
ATOM     24  C   UNL     1      35.419 -21.024 -19.784  0.00  0.00    +0.000 C 
ATOM     25  C   UNL     1      34.067 -21.331 -19.619  0.00  0.00    +0.000 C 
ENDBRANCH  19  20
ENDBRANCH   5  19
TORSDOF 4
ENDMDL
MODEL 8
REMARK VINA RESULT:      -9.8      4.099      5.707
REMARK  Name = 4030
REMARK  4 active torsions:
REMARK  status: ('A' for Active; 'I' for Inactive)
REMARK    1  A    between atoms: N_4  and  C_11
REMARK    2  A    between atoms: C_7  and  C_17
REMARK    3  A    between atoms: C_12  and  O_24
REMARK    4  A    between atoms: C_17  and  C_18
REMARK                            x       y       z     vdW  Elec       q    Type
REMARK                         _______ _______ _______ _____ _____    ______ ____
ROOT
ATOM      1  N   UNL     1      35.496 -23.335 -14.565  0.00  0.00    -0.302 N 
ATOM      2  N   UNL     1      33.434 -23.448 -13.743  0.00  0.00    -0.302 N 
ATOM      3  C   UNL     1      34.663 -23.219 -15.648  0.00  0.00    +0.060 C 
ATOM      4  C   UNL     1      33.381 -23.293 -15.109  0.00  0.00    +0.060 C 
ATOM      5  C   UNL     1      33.797 -22.975 -17.851  0.00  0.00    +0.040 C 
ATOM      6  C   UNL     1      34.913 -23.061 -17.013  0.00  0.00    +0.019 C 
ATOM      7  C   UNL     1      32.271 -23.205 -15.967  0.00  0.00    +0.016 C 
ATOM      8  C   UNL     1      32.498 -23.045 -17.340  0.00  0.00    +0.005 C 
ATOM      9  C   UNL     1      34.715 -23.470 -13.452  0.00  0.00    +0.229 C 
ATOM     10  H   UNL     1      36.480 -23.324 -14.587  0.00  0.00    +0.150 HD
ATOM     11  H   UNL     1      32.676 -23.527 -13.120  0.00  0.00    +0.150 HD
ENDROOT
BRANCH   9  13
ATOM     12  O   UNL     1      37.542 -23.011 -12.542  0.00  0.00    -0.226 OA
ATOM     13  N   UNL     1      35.290 -23.604 -12.215  0.00  0.00    -0.240 N 
ATOM     14  C   UNL     1      36.624 -23.380 -11.821  0.00  0.00    +0.404 C 
ATOM     15  H   UNL     1      34.684 -23.899 -11.497  0.00  0.00    +0.156 HD
BRANCH  14  16
ATOM     16  O   UNL     1      36.768 -23.637 -10.483  0.00  0.00    -0.431 OA
ATOM     17  C   UNL     1      35.745 -24.443  -9.884  0.00  0.00    +0.257 C 
ENDBRANCH  14  16
ENDBRANCH   9  13
BRANCH   5  19
ATOM     18  O   UNL     1      34.076 -23.766 -20.059  0.00  0.00    -0.287 OA
ATOM     19  C   UNL     1      33.993 -22.809 -19.283  0.00  0.00    +0.196 C 
BRANCH  19  20
ATOM     20  C   UNL     1      34.118 -21.452 -19.873  0.00  0.00    +0.039 C 
ATOM     21  C   UNL     1      35.377 -20.961 -20.153  0.00  0.00    +0.003 C 
ATOM     22  C   UNL     1      32.973 -20.724 -20.121  0.00  0.00    +0.003 C 
ATOM     23  C   UNL     1      35.496 -19.686 -20.706  0.00  0.00    +0.000 C 
ATOM     24  C   UNL     1      33.090 -19.449 -20.674  0.00  0.00    +0.000 C 
ATOM     25  C   UNL     1      34.352 -18.930 -20.966  0.00  0.00    +0.000 C 
ENDBRANCH  19  20
ENDBRANCH   5  19
TORSDOF 4
ENDMDL
MODEL 9
REMARK VINA RESULT:      -9.7      6.223      8.348
REMARK  Name = 4030
REMARK  4 active torsions:
REMARK  status: ('A' for Active; 'I' for Inactive)
REMARK    1  A    between atoms: N_4  and  C_11
REMARK    2  A    between atoms: C_7  and  C_17
REMARK    3  A    between atoms: C_12  and  O_24
REMARK    4  A    between atoms: C_17  and  C_18
REMARK                            x       y       z     vdW  Elec       q    Type
REMARK                         _______ _______ _______ _____ _____    ______ ____
ROOT
ATOM      1  N   UNL     1      31.181 -22.956 -17.180  0.00  0.00    -0.302 N 
ATOM      2  N   UNL     1      30.186 -23.390 -15.241  0.00  0.00    -0.302 N 
ATOM      3  C   UNL     1      32.197 -23.226 -16.300  0.00  0.00    +0.060 C 
ATOM      4  C   UNL     1      31.551 -23.494 -15.096  0.00  0.00    +0.060 C 
ATOM      5  C   UNL     1      34.332 -23.581 -15.311  0.00  0.00    +0.040 C 
ATOM      6  C   UNL     1      33.585 -23.259 -16.449  0.00  0.00    +0.019 C 
ATOM      7  C   UNL     1      32.318 -23.817 -13.964  0.00  0.00    +0.016 C 
ATOM      8  C   UNL     1      33.712 -23.856 -14.090  0.00  0.00    +0.005 C 
ATOM      9  C   UNL     1      30.000 -23.066 -16.500  0.00  0.00    +0.229 C 
ATOM     10  H   UNL     1      31.284 -22.723 -18.131  0.00  0.00    +0.150 HD
ATOM     11  H   UNL     1      29.500 -23.528 -14.549  0.00  0.00    +0.150 HD
ENDROOT
BRANCH   9  13
ATOM     12  O   UNL     1      27.392 -21.979 -15.479  0.00  0.00    -0.226 OA
ATOM     13  N   UNL     1      28.809 -22.848 -17.142  0.00  0.00    -0.240 N 
ATOM     14  C   UNL     1      27.601 -22.335 -16.632  0.00  0.00    +0.404 C 
ATOM     15  H   UNL     1      28.796 -23.083 -18.098  0.00  0.00    +0.156 HD
BRANCH  14  16
ATOM     16  O   UNL     1      26.656 -22.284 -17.623  0.00  0.00    -0.431 OA
ATOM     17  C   UNL     1      25.952 -21.043 -17.757  0.00  0.00    +0.257 C 
ENDBRANCH  14  16
ENDBRANCH   9  13
BRANCH   5  19
ATOM     18  O   UNL     1      36.412 -23.082 -16.312  0.00  0.00    -0.287 OA
ATOM     19  C   UNL     1      35.783 -23.631 -15.403  0.00  0.00    +0.196 C 
BRANCH  19  20
ATOM     20  C   UNL     1      36.575 -24.376 -14.393  0.00  0.00    +0.039 C 
ATOM     21  C   UNL     1      37.189 -23.674 -13.375  0.00  0.00    +0.003 C 
ATOM     22  C   UNL     1      36.676 -25.748 -14.502  0.00  0.00    +0.003 C 
ATOM     23  C   UNL     1      37.934 -24.373 -12.426  0.00  0.00    +0.000 C 
ATOM     24  C   UNL     1      37.420 -26.448 -13.553  0.00  0.00    +0.000 C 
ATOM     25  C   UNL     1      38.050 -25.760 -12.515  0.00  0.00    +0.000 C 
ENDBRANCH  19  20
ENDBRANCH   5  19
TORSDOF 4
ENDMDL
