MODEL 1
REMARK VINA RESULT:      -9.7      0.000      0.000
REMARK  Name = 91270
REMARK  13 active torsions:
REMARK  status: ('A' for Active; 'I' for Inactive)
REMARK    1  A    between atoms: C_3  and  C_18
REMARK    2  A    between atoms: C_8  and  C_21
REMARK    3  A    between atoms: C_11  and  O_13
REMARK    4  A    between atoms: C_12  and  O_15
REMARK    5  A    between atoms: C_18  and  O_19
REMARK    6  A    between atoms: C_21  and  N_23
REMARK    7  A    between atoms: N_23  and  C_26
REMARK    8  A    between atoms: C_26  and  C_28
REMARK    9  A    between atoms: C_26  and  C_32
REMARK   10  A    between atoms: C_28  and  O_29
REMARK   11  A    between atoms: O_29  and  C_30
REMARK   12  A    between atoms: C_32  and  C_33
REMARK   13  A    between atoms: C_33  and  C_34
REMARK                            x       y       z     vdW  Elec       q    Type
REMARK                         _______ _______ _______ _____ _____    ______ ____
ROOT
ATOM      1  O   UNK A   1      35.305 -14.857 -22.620  0.00  0.00    -0.277 OA
ATOM      2  N   UNK A   1      34.574 -16.940 -21.868  0.00  0.00    -0.269 N 
ATOM      3  C   UNK A   1      35.756 -17.633 -22.385  0.00  0.00    +0.179 C 
ATOM      4  C   UNK A   1      36.318 -18.654 -21.401  0.00  0.00    +0.057 C 
ATOM      5  C   UNK A   0      33.502 -17.758 -21.277  0.00  0.00    +0.120 C 
ATOM      6  C   UNK A   1      35.258 -19.531 -20.794  0.00  0.00    -0.019 C 
ATOM      7  C   UNK A   1      33.927 -19.093 -20.724  0.00  0.00    -0.003 C 
ATOM      8  C   UNK A   1      34.427 -15.569 -22.126  0.00  0.00    +0.206 C 
ATOM      9  C   UNK A   1      35.608 -20.775 -20.250  0.00  0.00    +0.036 C 
ATOM     10  C   UNK A   1      32.962 -19.921 -20.131  0.00  0.00    +0.037 C 
ATOM     11  C   UNK A   1      34.640 -21.589 -19.663  0.00  0.00    +0.172 C 
ATOM     12  C   UNK A   1      33.317 -21.163 -19.605  0.00  0.00    +0.172 C 
ENDROOT
BRANCH  11  13
ATOM     13  O   UNK A   1      35.003 -22.796 -19.147  0.00  0.00    -0.468 OA
ATOM     14  C   UNK A   1      35.658 -22.790 -17.881  0.00  0.00    +0.253 C 
ENDBRANCH  11  13
BRANCH  12  15
ATOM     15  O   UNK A   1      32.360 -21.947 -19.034  0.00  0.00    -0.468 OA
ATOM     16  C   UNK A   1      32.593 -22.381 -17.696  0.00  0.00    +0.253 C 
ENDBRANCH  12  15
BRANCH   3  18
ATOM     17  O   UNK A   1      35.123 -19.431 -23.876  0.00  0.00    -0.248 OA
ATOM     18  C   UNK A   1      35.363 -18.246 -23.700  0.00  0.00    +0.332 C 
BRANCH  18  19
ATOM     19  O   UNK A   1      35.314 -17.304 -24.672  0.00  0.00    -0.479 OA
ATOM     20  H   UNK A   1      36.037 -17.199 -25.259  0.00  0.00    +0.295 HD
ENDBRANCH  18  19
ENDBRANCH   3  18
BRANCH   8  21
ATOM     21  C   UNK A   1      33.098 -14.957 -21.757  0.00  0.00    +0.018 C 
ATOM     22  C   UNK A   1      32.330 -15.899 -20.851  0.00  0.00    -0.014 C 
BRANCH  21  23
ATOM     23  N   UNK A   1      32.382 -14.727 -23.000  0.00  0.00    +0.399 N 
ATOM     24  H   UNK A   1      31.466 -15.173 -22.944  0.00  0.00    -0.083 HD
ATOM     25  H   UNK A   1      32.928 -15.122 -23.765  0.00  0.00    -0.083 HD
BRANCH  23  26
ATOM     26  C   UNK A   0      32.204 -13.300 -23.248  0.00  0.00    +0.041 C 
BRANCH  26  28
ATOM     27  O   UNK A   0      33.460 -13.483 -25.334  0.00  0.00    -0.252 OA
ATOM     28  C   UNK A   0      33.229 -12.886 -24.290  0.00  0.00    +0.297 C 
BRANCH  28  29
ATOM     29  O   UNK A   0      33.845 -11.736 -23.880  0.00  0.00    -0.450 OA
BRANCH  29  30
ATOM     30  C   UNK A   0      34.323 -10.885 -24.926  0.00  0.00    +0.208 C 
ATOM     31  C   UNK A   0      34.919  -9.635 -24.312  0.00  0.00    +0.051 C 
ENDBRANCH  29  30
ENDBRANCH  28  29
ENDBRANCH  26  28
BRANCH  26  32
ATOM     32  C   UNK A   0      32.404 -12.472 -21.968  0.00  0.00    -0.006 C 
BRANCH  32  33
ATOM     33  C   UNK A   0      31.233 -11.554 -21.593  0.00  0.00    +0.025 C 
BRANCH  33  34
ATOM     34  C   UNK A   0      31.607 -10.095 -21.509  0.00  0.00    -0.022 C 
ATOM     35  C   UNK A   0      31.606  -9.308 -22.661  0.00  0.00    -0.004 C 
ATOM     36  C   UNK A   0      31.954  -9.533 -20.280  0.00  0.00    -0.004 C 
ATOM     37  C   UNK A   0      31.952  -7.958 -22.583  0.00  0.00    -0.000 C 
ATOM     38  C   UNK A   0      32.300  -8.183 -20.203  0.00  0.00    -0.000 C 
ATOM     39  C   UNK A   0      32.299  -7.396 -21.355  0.00  0.00    -0.000 C 
ENDBRANCH  33  34
ENDBRANCH  32  33
ENDBRANCH  26  32
ENDBRANCH  23  26
ENDBRANCH  21  23
ENDBRANCH   8  21
TORSDOF 13
ENDMDL
MODEL 2
REMARK VINA RESULT:      -9.2      5.215      9.570
REMARK  Name = 91270
REMARK  13 active torsions:
REMARK  status: ('A' for Active; 'I' for Inactive)
REMARK    1  A    between atoms: C_3  and  C_18
REMARK    2  A    between atoms: C_8  and  C_21
REMARK    3  A    between atoms: C_11  and  O_13
REMARK    4  A    between atoms: C_12  and  O_15
REMARK    5  A    between atoms: C_18  and  O_19
REMARK    6  A    between atoms: C_21  and  N_23
REMARK    7  A    between atoms: N_23  and  C_26
REMARK    8  A    between atoms: C_26  and  C_28
REMARK    9  A    between atoms: C_26  and  C_32
REMARK   10  A    between atoms: C_28  and  O_29
REMARK   11  A    between atoms: O_29  and  C_30
REMARK   12  A    between atoms: C_32  and  C_33
REMARK   13  A    between atoms: C_33  and  C_34
REMARK                            x       y       z     vdW  Elec       q    Type
REMARK                         _______ _______ _______ _____ _____    ______ ____
ROOT
ATOM      1  O   UNK A   1      30.659  -6.392 -22.407  0.00  0.00    -0.277 OA
ATOM      2  N   UNK A   1      31.729  -8.451 -22.632  0.00  0.00    -0.269 N 
ATOM      3  C   UNK A   1      31.432  -8.848 -21.254  0.00  0.00    +0.179 C 
ATOM      4  C   UNK A   1      30.963 -10.296 -21.146  0.00  0.00    +0.057 C 
ATOM      5  C   UNK A   0      32.574  -9.348 -23.438  0.00  0.00    +0.120 C 
ATOM      6  C   UNK A   1      31.817 -11.251 -21.933  0.00  0.00    -0.019 C 
ATOM      7  C   UNK A   1      32.566 -10.797 -23.029  0.00  0.00    -0.003 C 
ATOM      8  C   UNK A   1      31.364  -7.166 -23.059  0.00  0.00    +0.206 C 
ATOM      9  C   UNK A   1      31.828 -12.613 -21.601  0.00  0.00    +0.036 C 
ATOM     10  C   UNK A   1      33.336 -11.714 -23.761  0.00  0.00    +0.037 C 
ATOM     11  C   UNK A   1      32.597 -13.515 -22.336  0.00  0.00    +0.172 C 
ATOM     12  C   UNK A   1      33.352 -13.065 -23.415  0.00  0.00    +0.172 C 
ENDROOT
BRANCH  11  13
ATOM     13  O   UNK A   1      32.597 -14.832 -21.991  0.00  0.00    -0.468 OA
ATOM     14  C   UNK A   1      32.569 -15.139 -20.599  0.00  0.00    +0.253 C 
ENDBRANCH  11  13
BRANCH  12  15
ATOM     15  O   UNK A   1      34.108 -13.934 -24.143  0.00  0.00    -0.468 OA
ATOM     16  C   UNK A   1      33.467 -14.592 -25.234  0.00  0.00    +0.253 C 
ENDBRANCH  12  15
BRANCH   3  18
ATOM     17  O   UNK A   1      33.554  -7.794 -20.758  0.00  0.00    -0.248 OA
ATOM     18  C   UNK A   1      32.668  -8.575 -20.444  0.00  0.00    +0.332 C 
BRANCH  18  19
ATOM     19  O   UNK A   1      32.672  -9.318 -19.311  0.00  0.00    -0.479 OA
ATOM     20  H   UNK A   1      31.904  -9.794 -19.060  0.00  0.00    +0.295 HD
ENDBRANCH  18  19
ENDBRANCH   3  18
BRANCH   8  21
ATOM     21  C   UNK A   1      31.882  -6.738 -24.411  0.00  0.00    +0.018 C 
ATOM     22  C   UNK A   1      33.357  -6.405 -24.317  0.00  0.00    -0.014 C 
BRANCH  21  23
ATOM     23  N   UNK A   1      31.107  -5.574 -24.808  0.00  0.00    +0.399 N 
ATOM     24  H   UNK A   1      30.444  -5.347 -24.067  0.00  0.00    -0.083 HD
ATOM     25  H   UNK A   1      30.615  -5.794 -25.674  0.00  0.00    -0.083 HD
BRANCH  23  26
ATOM     26  C   UNK A   0      31.971  -4.423 -25.045  0.00  0.00    +0.041 C 
BRANCH  26  28
ATOM     27  O   UNK A   0      31.850  -2.493 -23.554  0.00  0.00    -0.252 OA
ATOM     28  C   UNK A   0      31.320  -3.220 -24.384  0.00  0.00    +0.297 C 
BRANCH  28  29
ATOM     29  O   UNK A   0      30.051  -3.072 -24.873  0.00  0.00    -0.450 OA
BRANCH  29  30
ATOM     30  C   UNK A   0      29.757  -1.800 -25.457  0.00  0.00    +0.208 C 
ATOM     31  C   UNK A   0      28.332  -1.808 -25.968  0.00  0.00    +0.051 C 
ENDBRANCH  29  30
ENDBRANCH  28  29
ENDBRANCH  26  28
BRANCH  26  32
ATOM     32  C   UNK A   0      32.156  -4.152 -26.547  0.00  0.00    -0.006 C 
BRANCH  32  33
ATOM     33  C   UNK A   0      33.004  -2.918 -26.889  0.00  0.00    +0.025 C 
BRANCH  33  34
ATOM     34  C   UNK A   0      34.429  -3.244 -27.257  0.00  0.00    -0.022 C 
ATOM     35  C   UNK A   0      35.324  -2.217 -27.556  0.00  0.00    -0.004 C 
ATOM     36  C   UNK A   0      34.853  -4.572 -27.299  0.00  0.00    -0.004 C 
ATOM     37  C   UNK A   0      36.644  -2.518 -27.897  0.00  0.00    -0.000 C 
ATOM     38  C   UNK A   0      36.172  -4.874 -27.639  0.00  0.00    -0.000 C 
ATOM     39  C   UNK A   0      37.067  -3.846 -27.939  0.00  0.00    -0.000 C 
ENDBRANCH  33  34
ENDBRANCH  32  33
ENDBRANCH  26  32
ENDBRANCH  23  26
ENDBRANCH  21  23
ENDBRANCH   8  21
TORSDOF 13
ENDMDL
MODEL 3
REMARK VINA RESULT:      -9.1      2.561      4.445
REMARK  Name = 91270
REMARK  13 active torsions:
REMARK  status: ('A' for Active; 'I' for Inactive)
REMARK    1  A    between atoms: C_3  and  C_18
REMARK    2  A    between atoms: C_8  and  C_21
REMARK    3  A    between atoms: C_11  and  O_13
REMARK    4  A    between atoms: C_12  and  O_15
REMARK    5  A    between atoms: C_18  and  O_19
REMARK    6  A    between atoms: C_21  and  N_23
REMARK    7  A    between atoms: N_23  and  C_26
REMARK    8  A    between atoms: C_26  and  C_28
REMARK    9  A    between atoms: C_26  and  C_32
REMARK   10  A    between atoms: C_28  and  O_29
REMARK   11  A    between atoms: O_29  and  C_30
REMARK   12  A    between atoms: C_32  and  C_33
REMARK   13  A    between atoms: C_33  and  C_34
REMARK                            x       y       z     vdW  Elec       q    Type
REMARK                         _______ _______ _______ _____ _____    ______ ____
ROOT
ATOM      1  O   UNK A   1      34.148 -12.195 -25.120  0.00  0.00    -0.277 OA
ATOM      2  N   UNK A   1      33.915 -14.212 -23.974  0.00  0.00    -0.269 N 
ATOM      3  C   UNK A   1      34.425 -15.003 -25.096  0.00  0.00    +0.179 C 
ATOM      4  C   UNK A   1      35.407 -16.084 -24.658  0.00  0.00    +0.057 C 
ATOM      5  C   UNK A   0      33.420 -14.937 -22.791  0.00  0.00    +0.120 C 
ATOM      6  C   UNK A   1      34.926 -16.869 -23.469  0.00  0.00    -0.019 C 
ATOM      7  C   UNK A   1      33.995 -16.313 -22.579  0.00  0.00    -0.003 C 
ATOM      8  C   UNK A   1      33.745 -12.830 -24.142  0.00  0.00    +0.206 C 
ATOM      9  C   UNK A   1      35.446 -18.147 -23.219  0.00  0.00    +0.036 C 
ATOM     10  C   UNK A   1      33.581 -17.057 -21.464  0.00  0.00    +0.037 C 
ATOM     11  C   UNK A   1      35.027 -18.877 -22.108  0.00  0.00    +0.172 C 
ATOM     12  C   UNK A   1      34.093 -18.333 -21.231  0.00  0.00    +0.172 C 
ENDROOT
BRANCH  11  13
ATOM     13  O   UNK A   1      35.542 -20.120 -21.889  0.00  0.00    -0.468 OA
ATOM     14  C   UNK A   1      36.428 -20.269 -20.783  0.00  0.00    +0.253 C 
ENDBRANCH  11  13
BRANCH  12  15
ATOM     15  O   UNK A   1      33.674 -19.035 -20.141  0.00  0.00    -0.468 OA
ATOM     16  C   UNK A   1      32.735 -20.084 -20.368  0.00  0.00    +0.253 C 
ENDBRANCH  12  15
BRANCH   3  18
ATOM     17  O   UNK A   1      33.083 -16.732 -26.130  0.00  0.00    -0.248 OA
ATOM     18  C   UNK A   1      33.229 -15.560 -25.816  0.00  0.00    +0.332 C 
BRANCH  18  19
ATOM     19  O   UNK A   1      32.328 -14.582 -26.077  0.00  0.00    -0.479 OA
ATOM     20  H   UNK A   1      32.417 -13.743 -25.670  0.00  0.00    +0.295 HD
ENDBRANCH  18  19
ENDBRANCH   3  18
BRANCH   8  21
ATOM     21  C   UNK A   1      33.022 -12.105 -23.033  0.00  0.00    +0.018 C 
ATOM     22  C   UNK A   1      31.828 -12.918 -22.577  0.00  0.00    -0.014 C 
BRANCH  21  23
ATOM     23  N   UNK A   1      32.606 -10.822 -23.572  0.00  0.00    +0.399 N 
ATOM     24  H   UNK A   1      31.610 -10.692 -23.393  0.00  0.00    -0.083 HD
ATOM     25  H   UNK A   1      32.793 -10.816 -24.575  0.00  0.00    -0.083 HD
BRANCH  23  26
ATOM     26  C   UNK A   0      33.348  -9.727 -22.958  0.00  0.00    +0.041 C 
BRANCH  26  28
ATOM     27  O   UNK A   0      31.282  -8.452 -22.696  0.00  0.00    -0.252 OA
ATOM     28  C   UNK A   0      32.345  -8.845 -22.233  0.00  0.00    +0.297 C 
BRANCH  28  29
ATOM     29  O   UNK A   0      32.815  -8.569 -20.979  0.00  0.00    -0.450 OA
BRANCH  29  30
ATOM     30  C   UNK A   0      31.907  -8.834 -19.906  0.00  0.00    +0.208 C 
ATOM     31  C   UNK A   0      31.699 -10.329 -19.793  0.00  0.00    +0.051 C 
ENDBRANCH  29  30
ENDBRANCH  28  29
ENDBRANCH  26  28
BRANCH  26  32
ATOM     32  C   UNK A   0      34.106  -8.895 -24.005  0.00  0.00    -0.006 C 
BRANCH  32  33
ATOM     33  C   UNK A   0      34.376  -7.436 -23.613  0.00  0.00    +0.025 C 
BRANCH  33  34
ATOM     34  C   UNK A   0      33.875  -6.433 -24.622  0.00  0.00    -0.022 C 
ATOM     35  C   UNK A   0      32.619  -5.849 -24.460  0.00  0.00    -0.004 C 
ATOM     36  C   UNK A   0      34.668  -6.090 -25.717  0.00  0.00    -0.004 C 
ATOM     37  C   UNK A   0      32.155  -4.921 -25.394  0.00  0.00    -0.000 C 
ATOM     38  C   UNK A   0      34.205  -5.162 -26.650  0.00  0.00    -0.000 C 
ATOM     39  C   UNK A   0      32.948  -4.578 -26.489  0.00  0.00    -0.000 C 
ENDBRANCH  33  34
ENDBRANCH  32  33
ENDBRANCH  26  32
ENDBRANCH  23  26
ENDBRANCH  21  23
ENDBRANCH   8  21
TORSDOF 13
ENDMDL
MODEL 4
REMARK VINA RESULT:      -9.0      2.588     10.559
REMARK  Name = 91270
REMARK  13 active torsions:
REMARK  status: ('A' for Active; 'I' for Inactive)
REMARK    1  A    between atoms: C_3  and  C_18
REMARK    2  A    between atoms: C_8  and  C_21
REMARK    3  A    between atoms: C_11  and  O_13
REMARK    4  A    between atoms: C_12  and  O_15
REMARK    5  A    between atoms: C_18  and  O_19
REMARK    6  A    between atoms: C_21  and  N_23
REMARK    7  A    between atoms: N_23  and  C_26
REMARK    8  A    between atoms: C_26  and  C_28
REMARK    9  A    between atoms: C_26  and  C_32
REMARK   10  A    between atoms: C_28  and  O_29
REMARK   11  A    between atoms: O_29  and  C_30
REMARK   12  A    between atoms: C_32  and  C_33
REMARK   13  A    between atoms: C_33  and  C_34
REMARK                            x       y       z     vdW  Elec       q    Type
REMARK                         _______ _______ _______ _____ _____    ______ ____
ROOT
ATOM      1  O   UNK A   1      33.013 -13.641 -20.751  0.00  0.00    -0.277 OA
ATOM      2  N   UNK A   1      32.463 -11.578 -21.688  0.00  0.00    -0.269 N 
ATOM      3  C   UNK A   1      32.001 -11.029 -20.411  0.00  0.00    +0.179 C 
ATOM      4  C   UNK A   1      32.484  -9.602 -20.174  0.00  0.00    +0.057 C 
ATOM      5  C   UNK A   0      32.294 -10.749 -22.893  0.00  0.00    +0.120 C 
ATOM      6  C   UNK A   1      32.304  -8.712 -21.373  0.00  0.00    -0.019 C 
ATOM      7  C   UNK A   1      32.230  -9.262 -22.661  0.00  0.00    -0.003 C 
ATOM      8  C   UNK A   1      32.863 -12.921 -21.741  0.00  0.00    +0.206 C 
ATOM      9  C   UNK A   1      32.257  -7.320 -21.209  0.00  0.00    +0.036 C 
ATOM     10  C   UNK A   1      32.086  -8.408 -23.765  0.00  0.00    +0.037 C 
ATOM     11  C   UNK A   1      32.113  -6.482 -22.313  0.00  0.00    +0.172 C 
ATOM     12  C   UNK A   1      32.026  -7.026 -23.591  0.00  0.00    +0.172 C 
ENDROOT
BRANCH  11  13
ATOM     13  O   UNK A   1      32.064  -5.133 -22.129  0.00  0.00    -0.468 OA
ATOM     14  C   UNK A   1      30.776  -4.523 -22.139  0.00  0.00    +0.253 C 
ENDBRANCH  11  13
BRANCH  12  15
ATOM     15  O   UNK A   1      31.885  -6.219 -24.680  0.00  0.00    -0.468 OA
ATOM     16  C   UNK A   1      33.083  -5.775 -25.315  0.00  0.00    +0.253 C 
ENDBRANCH  12  15
BRANCH   3  18
ATOM     17  O   UNK A   1      29.826 -11.569 -21.326  0.00  0.00    -0.248 OA
ATOM     18  C   UNK A   1      30.503 -11.144 -20.402  0.00  0.00    +0.332 C 
BRANCH  18  19
ATOM     19  O   UNK A   1      29.996 -10.708 -19.223  0.00  0.00    -0.479 OA
ATOM     20  H   UNK A   1      29.295 -11.174 -18.813  0.00  0.00    +0.295 HD
ENDBRANCH  18  19
ENDBRANCH   3  18
BRANCH   8  21
ATOM     21  C   UNK A   1      33.124 -13.487 -23.115  0.00  0.00    +0.018 C 
ATOM     22  C   UNK A   1      31.981 -13.135 -24.045  0.00  0.00    -0.014 C 
BRANCH  21  23
ATOM     23  N   UNK A   1      33.248 -14.927 -22.960  0.00  0.00    +0.399 N 
ATOM     24  H   UNK A   1      32.497 -15.383 -23.478  0.00  0.00    -0.083 HD
ATOM     25  H   UNK A   1      33.186 -15.151 -21.967  0.00  0.00    -0.083 HD
BRANCH  23  26
ATOM     26  C   UNK A   0      34.532 -15.402 -23.463  0.00  0.00    +0.041 C 
BRANCH  26  28
ATOM     27  O   UNK A   0      33.549 -15.684 -25.680  0.00  0.00    -0.252 OA
ATOM     28  C   UNK A   0      34.274 -16.102 -24.786  0.00  0.00    +0.297 C 
BRANCH  28  29
ATOM     29  O   UNK A   0      34.988 -17.267 -24.824  0.00  0.00    -0.450 OA
BRANCH  29  30
ATOM     30  C   UNK A   0      34.234 -18.446 -25.119  0.00  0.00    +0.208 C 
ATOM     31  C   UNK A   0      34.877 -19.630 -24.428  0.00  0.00    +0.051 C 
ENDBRANCH  29  30
ENDBRANCH  28  29
ENDBRANCH  26  28
BRANCH  26  32
ATOM     32  C   UNK A   0      35.199 -16.380 -22.482  0.00  0.00    -0.006 C 
BRANCH  32  33
ATOM     33  C   UNK A   0      34.248 -17.061 -21.488  0.00  0.00    +0.025 C 
BRANCH  33  34
ATOM     34  C   UNK A   0      34.709 -18.427 -21.044  0.00  0.00    -0.022 C 
ATOM     35  C   UNK A   0      36.073 -18.697 -20.927  0.00  0.00    -0.004 C 
ATOM     36  C   UNK A   0      33.774 -19.418 -20.750  0.00  0.00    -0.004 C 
ATOM     37  C   UNK A   0      36.500 -19.961 -20.516  0.00  0.00    -0.000 C 
ATOM     38  C   UNK A   0      34.201 -20.681 -20.338  0.00  0.00    -0.000 C 
ATOM     39  C   UNK A   0      35.565 -20.952 -20.222  0.00  0.00    -0.000 C 
ENDBRANCH  33  34
ENDBRANCH  32  33
ENDBRANCH  26  32
ENDBRANCH  23  26
ENDBRANCH  21  23
ENDBRANCH   8  21
TORSDOF 13
ENDMDL
MODEL 5
REMARK VINA RESULT:      -8.9      3.653      7.298
REMARK  Name = 91270
REMARK  13 active torsions:
REMARK  status: ('A' for Active; 'I' for Inactive)
REMARK    1  A    between atoms: C_3  and  C_18
REMARK    2  A    between atoms: C_8  and  C_21
REMARK    3  A    between atoms: C_11  and  O_13
REMARK    4  A    between atoms: C_12  and  O_15
REMARK    5  A    between atoms: C_18  and  O_19
REMARK    6  A    between atoms: C_21  and  N_23
REMARK    7  A    between atoms: N_23  and  C_26
REMARK    8  A    between atoms: C_26  and  C_28
REMARK    9  A    between atoms: C_26  and  C_32
REMARK   10  A    between atoms: C_28  and  O_29
REMARK   11  A    between atoms: O_29  and  C_30
REMARK   12  A    between atoms: C_32  and  C_33
REMARK   13  A    between atoms: C_33  and  C_34
REMARK                            x       y       z     vdW  Elec       q    Type
REMARK                         _______ _______ _______ _____ _____    ______ ____
ROOT
ATOM      1  O   UNK A   1      37.196 -20.922 -17.551  0.00  0.00    -0.277 OA
ATOM      2  N   UNK A   1      35.265 -22.157 -17.125  0.00  0.00    -0.269 N 
ATOM      3  C   UNK A   1      35.714 -22.551 -15.788  0.00  0.00    +0.179 C 
ATOM      4  C   UNK A   1      34.608 -22.450 -14.742  0.00  0.00    +0.057 C 
ATOM      5  C   UNK A   0      34.004 -22.731 -17.624  0.00  0.00    +0.120 C 
ATOM      6  C   UNK A   1      33.308 -23.051 -15.200  0.00  0.00    -0.019 C 
ATOM      7  C   UNK A   1      33.021 -23.166 -16.568  0.00  0.00    -0.003 C 
ATOM      8  C   UNK A   1      36.134 -21.415 -17.938  0.00  0.00    +0.206 C 
ATOM      9  C   UNK A   1      32.354 -23.454 -14.255  0.00  0.00    +0.036 C 
ATOM     10  C   UNK A   1      31.791 -23.708 -16.969  0.00  0.00    +0.037 C 
ATOM     11  C   UNK A   1      31.134 -23.991 -14.665  0.00  0.00    +0.172 C 
ATOM     12  C   UNK A   1      30.853 -24.120 -16.022  0.00  0.00    +0.172 C 
ENDROOT
BRANCH  11  13
ATOM     13  O   UNK A   1      30.225 -24.382 -13.729  0.00  0.00    -0.468 OA
ATOM     14  C   UNK A   1      30.416 -23.905 -12.399  0.00  0.00    +0.253 C 
ENDBRANCH  11  13
BRANCH  12  15
ATOM     15  O   UNK A   1      29.666 -24.643 -16.438  0.00  0.00    -0.468 OA
ATOM     16  C   UNK A   1      28.612 -23.721 -16.708  0.00  0.00    +0.253 C 
ENDBRANCH  12  15
BRANCH   3  18
ATOM     17  O   UNK A   1      35.617 -24.968 -15.884  0.00  0.00    -0.248 OA
ATOM     18  C   UNK A   1      36.276 -23.939 -15.907  0.00  0.00    +0.332 C 
BRANCH  18  19
ATOM     19  O   UNK A   1      37.624 -23.900 -16.041  0.00  0.00    -0.479 OA
ATOM     20  H   UNK A   1      38.101 -24.687 -16.216  0.00  0.00    +0.295 HD
ENDBRANCH  18  19
ENDBRANCH   3  18
BRANCH   8  21
ATOM     21  C   UNK A   1      35.707 -21.221 -19.372  0.00  0.00    +0.018 C 
ATOM     22  C   UNK A   1      36.430 -22.209 -20.265  0.00  0.00    -0.014 C 
BRANCH  21  23
ATOM     23  N   UNK A   1      36.041 -19.853 -19.729  0.00  0.00    +0.399 N 
ATOM     24  H   UNK A   1      37.056 -19.758 -19.772  0.00  0.00    -0.083 HD
ATOM     25  H   UNK A   1      35.652 -19.230 -19.021  0.00  0.00    -0.083 HD
BRANCH  23  26
ATOM     26  C   UNK A   0      35.472 -19.493 -21.023  0.00  0.00    +0.041 C 
BRANCH  26  28
ATOM     27  O   UNK A   0      37.795 -18.999 -21.593  0.00  0.00    -0.252 OA
ATOM     28  C   UNK A   0      36.609 -18.995 -21.899  0.00  0.00    +0.297 C 
BRANCH  28  29
ATOM     29  O   UNK A   0      36.098 -18.552 -23.088  0.00  0.00    -0.450 OA
BRANCH  29  30
ATOM     30  C   UNK A   0      35.183 -19.439 -23.737  0.00  0.00    +0.208 C 
ATOM     31  C   UNK A   0      34.428 -18.676 -24.805  0.00  0.00    +0.051 C 
ENDBRANCH  29  30
ENDBRANCH  28  29
ENDBRANCH  26  28
BRANCH  26  32
ATOM     32  C   UNK A   0      34.404 -18.395 -20.889  0.00  0.00    -0.006 C 
BRANCH  32  33
ATOM     33  C   UNK A   0      34.948 -16.975 -20.674  0.00  0.00    +0.025 C 
BRANCH  33  34
ATOM     34  C   UNK A   0      34.193 -15.914 -21.434  0.00  0.00    -0.022 C 
ATOM     35  C   UNK A   0      34.597 -15.558 -22.721  0.00  0.00    -0.004 C 
ATOM     36  C   UNK A   0      33.092 -15.288 -20.851  0.00  0.00    -0.004 C 
ATOM     37  C   UNK A   0      33.899 -14.576 -23.425  0.00  0.00    -0.000 C 
ATOM     38  C   UNK A   0      32.393 -14.306 -21.555  0.00  0.00    -0.000 C 
ATOM     39  C   UNK A   0      32.798 -13.950 -22.841  0.00  0.00    -0.000 C 
ENDBRANCH  33  34
ENDBRANCH  32  33
ENDBRANCH  26  32
ENDBRANCH  23  26
ENDBRANCH  21  23
ENDBRANCH   8  21
TORSDOF 13
ENDMDL
MODEL 6
REMARK VINA RESULT:      -8.8      5.751      9.355
REMARK  Name = 91270
REMARK  13 active torsions:
REMARK  status: ('A' for Active; 'I' for Inactive)
REMARK    1  A    between atoms: C_3  and  C_18
REMARK    2  A    between atoms: C_8  and  C_21
REMARK    3  A    between atoms: C_11  and  O_13
REMARK    4  A    between atoms: C_12  and  O_15
REMARK    5  A    between atoms: C_18  and  O_19
REMARK    6  A    between atoms: C_21  and  N_23
REMARK    7  A    between atoms: N_23  and  C_26
REMARK    8  A    between atoms: C_26  and  C_28
REMARK    9  A    between atoms: C_26  and  C_32
REMARK   10  A    between atoms: C_28  and  O_29
REMARK   11  A    between atoms: O_29  and  C_30
REMARK   12  A    between atoms: C_32  and  C_33
REMARK   13  A    between atoms: C_33  and  C_34
REMARK                            x       y       z     vdW  Elec       q    Type
REMARK                         _______ _______ _______ _____ _____    ______ ____
ROOT
ATOM      1  O   UNK A   1      38.104 -22.859 -15.317  0.00  0.00    -0.277 OA
ATOM      2  N   UNK A   1      35.845 -23.371 -15.580  0.00  0.00    -0.269 N 
ATOM      3  C   UNK A   1      35.815 -24.219 -14.386  0.00  0.00    +0.179 C 
ATOM      4  C   UNK A   1      34.575 -23.986 -13.529  0.00  0.00    +0.057 C 
ATOM      5  C   UNK A   0      34.628 -23.304 -16.406  0.00  0.00    +0.120 C 
ATOM      6  C   UNK A   1      33.304 -23.938 -14.331  0.00  0.00    -0.019 C 
ATOM      7  C   UNK A   1      33.335 -23.599 -15.692  0.00  0.00    -0.003 C 
ATOM      8  C   UNK A   1      37.069 -22.819 -15.986  0.00  0.00    +0.206 C 
ATOM      9  C   UNK A   1      32.074 -24.188 -13.706  0.00  0.00    +0.036 C 
ATOM     10  C   UNK A   1      32.133 -23.539 -16.412  0.00  0.00    +0.037 C 
ATOM     11  C   UNK A   1      30.885 -24.125 -14.432  0.00  0.00    +0.172 C 
ATOM     12  C   UNK A   1      30.915 -23.802 -15.786  0.00  0.00    +0.172 C 
ENDROOT
BRANCH  11  13
ATOM     13  O   UNK A   1      29.703 -24.377 -13.805  0.00  0.00    -0.468 OA
ATOM     14  C   UNK A   1      28.973 -25.524 -14.233  0.00  0.00    +0.253 C 
ENDBRANCH  11  13
BRANCH  12  15
ATOM     15  O   UNK A   1      29.762 -23.737 -16.508  0.00  0.00    -0.468 OA
ATOM     16  C   UNK A   1      29.041 -22.506 -16.467  0.00  0.00    +0.253 C 
ENDBRANCH  12  15
BRANCH   3  18
ATOM     17  O   UNK A   1      35.617 -26.043 -15.967  0.00  0.00    -0.248 OA
ATOM     18  C   UNK A   1      35.936 -25.641 -14.857  0.00  0.00    +0.332 C 
BRANCH  18  19
ATOM     19  O   UNK A   1      36.448 -26.428 -13.880  0.00  0.00    -0.479 OA
ATOM     20  H   UNK A   1      35.925 -27.109 -13.505  0.00  0.00    +0.295 HD
ENDBRANCH  18  19
ENDBRANCH   3  18
BRANCH   8  21
ATOM     21  C   UNK A   1      37.080 -22.134 -17.331  0.00  0.00    +0.018 C 
ATOM     22  C   UNK A   1      37.200 -20.635 -17.146  0.00  0.00    -0.014 C 
BRANCH  21  23
ATOM     23  N   UNK A   1      35.833 -22.483 -17.990  0.00  0.00    +0.399 N 
ATOM     24  H   UNK A   1      35.110 -22.621 -17.284  0.00  0.00    -0.083 HD
ATOM     25  H   UNK A   1      35.979 -23.338 -18.527  0.00  0.00    -0.083 HD
BRANCH  23  26
ATOM     26  C   UNK A   0      35.411 -21.429 -18.906  0.00  0.00    +0.041 C 
BRANCH  26  28
ATOM     27  O   UNK A   0      33.643 -22.919 -19.693  0.00  0.00    -0.252 OA
ATOM     28  C   UNK A   0      34.023 -21.790 -19.409  0.00  0.00    +0.297 C 
BRANCH  28  29
ATOM     29  O   UNK A   0      33.264 -20.655 -19.483  0.00  0.00    -0.450 OA
BRANCH  29  30
ATOM     30  C   UNK A   0      32.790 -20.312 -20.788  0.00  0.00    +0.208 C 
ATOM     31  C   UNK A   0      32.145 -18.943 -20.736  0.00  0.00    +0.051 C 
ENDBRANCH  29  30
ENDBRANCH  28  29
ENDBRANCH  26  28
BRANCH  26  32
ATOM     32  C   UNK A   0      36.373 -21.292 -20.098  0.00  0.00    -0.006 C 
BRANCH  32  33
ATOM     33  C   UNK A   0      36.932 -19.882 -20.328  0.00  0.00    +0.025 C 
BRANCH  33  34
ATOM     34  C   UNK A   0      36.124 -19.059 -21.300  0.00  0.00    -0.022 C 
ATOM     35  C   UNK A   0      35.854 -19.553 -22.576  0.00  0.00    -0.004 C 
ATOM     36  C   UNK A   0      35.646 -17.804 -20.922  0.00  0.00    -0.004 C 
ATOM     37  C   UNK A   0      35.106 -18.792 -23.476  0.00  0.00    -0.000 C 
ATOM     38  C   UNK A   0      34.897 -17.044 -21.821  0.00  0.00    -0.000 C 
ATOM     39  C   UNK A   0      34.628 -17.538 -23.098  0.00  0.00    -0.000 C 
ENDBRANCH  33  34
ENDBRANCH  32  33
ENDBRANCH  26  32
ENDBRANCH  23  26
ENDBRANCH  21  23
ENDBRANCH   8  21
TORSDOF 13
ENDMDL
MODEL 7
REMARK VINA RESULT:      -8.5      1.435      2.524
REMARK  Name = 91270
REMARK  13 active torsions:
REMARK  status: ('A' for Active; 'I' for Inactive)
REMARK    1  A    between atoms: C_3  and  C_18
REMARK    2  A    between atoms: C_8  and  C_21
REMARK    3  A    between atoms: C_11  and  O_13
REMARK    4  A    between atoms: C_12  and  O_15
REMARK    5  A    between atoms: C_18  and  O_19
REMARK    6  A    between atoms: C_21  and  N_23
REMARK    7  A    between atoms: N_23  and  C_26
REMARK    8  A    between atoms: C_26  and  C_28
REMARK    9  A    between atoms: C_26  and  C_32
REMARK   10  A    between atoms: C_28  and  O_29
REMARK   11  A    between atoms: O_29  and  C_30
REMARK   12  A    between atoms: C_32  and  C_33
REMARK   13  A    between atoms: C_33  and  C_34
REMARK                            x       y       z     vdW  Elec       q    Type
REMARK                         _______ _______ _______ _____ _____    ______ ____
ROOT
ATOM      1  O   UNK A   1      34.795 -14.213 -22.474  0.00  0.00    -0.277 OA
ATOM      2  N   UNK A   1      34.270 -16.396 -21.845  0.00  0.00    -0.269 N 
ATOM      3  C   UNK A   1      35.417 -16.964 -22.557  0.00  0.00    +0.179 C 
ATOM      4  C   UNK A   1      36.145 -18.030 -21.744  0.00  0.00    +0.057 C 
ATOM      5  C   UNK A   0      33.320 -17.330 -21.216  0.00  0.00    +0.120 C 
ATOM      6  C   UNK A   1      35.213 -19.023 -21.106  0.00  0.00    -0.019 C 
ATOM      7  C   UNK A   1      33.879 -18.679 -20.844  0.00  0.00    -0.003 C 
ATOM      8  C   UNK A   1      34.021 -15.020 -21.953  0.00  0.00    +0.206 C 
ATOM      9  C   UNK A   1      35.691 -20.285 -20.726  0.00  0.00    +0.036 C 
ATOM     10  C   UNK A   1      33.037 -19.615 -20.226  0.00  0.00    +0.037 C 
ATOM     11  C   UNK A   1      34.845 -21.208 -20.113  0.00  0.00    +0.172 C 
ATOM     12  C   UNK A   1      33.517 -20.873 -19.865  0.00  0.00    +0.172 C 
ENDROOT
BRANCH  11  13
ATOM     13  O   UNK A   1      35.330 -22.430 -19.758  0.00  0.00    -0.468 OA
ATOM     14  C   UNK A   1      36.490 -22.453 -18.930  0.00  0.00    +0.253 C 
ENDBRANCH  11  13
BRANCH  12  15
ATOM     15  O   UNK A   1      32.678 -21.764 -19.265  0.00  0.00    -0.468 OA
ATOM     16  C   UNK A   1      33.163 -22.428 -18.100  0.00  0.00    +0.253 C 
ENDBRANCH  12  15
BRANCH   3  18
ATOM     17  O   UNK A   1      34.174 -16.867 -24.632  0.00  0.00    -0.248 OA
ATOM     18  C   UNK A   1      34.903 -17.484 -23.870  0.00  0.00    +0.332 C 
BRANCH  18  19
ATOM     19  O   UNK A   1      35.357 -18.740 -24.098  0.00  0.00    -0.479 OA
ATOM     20  H   UNK A   1      35.487 -19.329 -23.381  0.00  0.00    +0.295 HD
ENDBRANCH  18  19
ENDBRANCH   3  18
BRANCH   8  21
ATOM     21  C   UNK A   1      32.714 -14.529 -21.379  0.00  0.00    +0.018 C 
ATOM     22  C   UNK A   1      31.841 -15.708 -21.001  0.00  0.00    -0.014 C 
BRANCH  21  23
ATOM     23  N   UNK A   1      32.082 -13.719 -22.405  0.00  0.00    +0.399 N 
ATOM     24  H   UNK A   1      31.070 -13.832 -22.344  0.00  0.00    -0.083 HD
ATOM     25  H   UNK A   1      32.423 -14.027 -23.316  0.00  0.00    -0.083 HD
BRANCH  23  26
ATOM     26  C   UNK A   0      32.416 -12.308 -22.241  0.00  0.00    +0.041 C 
BRANCH  26  28
ATOM     27  O   UNK A   0      30.242 -11.226 -21.989  0.00  0.00    -0.252 OA
ATOM     28  C   UNK A   0      31.272 -11.653 -21.485  0.00  0.00    +0.297 C 
BRANCH  28  29
ATOM     29  O   UNK A   0      31.573 -11.627 -20.151  0.00  0.00    -0.450 OA
BRANCH  29  30
ATOM     30  C   UNK A   0      31.191 -10.438 -19.454  0.00  0.00    +0.208 C 
ATOM     31  C   UNK A   0      32.036  -9.283 -19.948  0.00  0.00    +0.051 C 
ENDBRANCH  29  30
ENDBRANCH  28  29
ENDBRANCH  26  28
BRANCH  26  32
ATOM     32  C   UNK A   0      32.607 -11.608 -23.596  0.00  0.00    -0.006 C 
BRANCH  32  33
ATOM     33  C   UNK A   0      33.900 -10.792 -23.734  0.00  0.00    +0.025 C 
BRANCH  33  34
ATOM     34  C   UNK A   0      33.676  -9.301 -23.775  0.00  0.00    -0.022 C 
ATOM     35  C   UNK A   0      34.747  -8.442 -24.023  0.00  0.00    -0.004 C 
ATOM     36  C   UNK A   0      32.399  -8.782 -23.564  0.00  0.00    -0.004 C 
ATOM     37  C   UNK A   0      34.540  -7.062 -24.060  0.00  0.00    -0.000 C 
ATOM     38  C   UNK A   0      32.192  -7.402 -23.602  0.00  0.00    -0.000 C 
ATOM     39  C   UNK A   0      33.263  -6.543 -23.850  0.00  0.00    -0.000 C 
ENDBRANCH  33  34
ENDBRANCH  32  33
ENDBRANCH  26  32
ENDBRANCH  23  26
ENDBRANCH  21  23
ENDBRANCH   8  21
TORSDOF 13
ENDMDL
MODEL 8
REMARK VINA RESULT:      -8.4      2.580      5.710
REMARK  Name = 91270
REMARK  13 active torsions:
REMARK  status: ('A' for Active; 'I' for Inactive)
REMARK    1  A    between atoms: C_3  and  C_18
REMARK    2  A    between atoms: C_8  and  C_21
REMARK    3  A    between atoms: C_11  and  O_13
REMARK    4  A    between atoms: C_12  and  O_15
REMARK    5  A    between atoms: C_18  and  O_19
REMARK    6  A    between atoms: C_21  and  N_23
REMARK    7  A    between atoms: N_23  and  C_26
REMARK    8  A    between atoms: C_26  and  C_28
REMARK    9  A    between atoms: C_26  and  C_32
REMARK   10  A    between atoms: C_28  and  O_29
REMARK   11  A    between atoms: O_29  and  C_30
REMARK   12  A    between atoms: C_32  and  C_33
REMARK   13  A    between atoms: C_33  and  C_34
REMARK                            x       y       z     vdW  Elec       q    Type
REMARK                         _______ _______ _______ _____ _____    ______ ____
ROOT
ATOM      1  O   UNK A   1      35.908 -21.010 -19.918  0.00  0.00    -0.277 OA
ATOM      2  N   UNK A   1      33.973 -21.802 -18.885  0.00  0.00    -0.269 N 
ATOM      3  C   UNK A   1      34.615 -23.045 -18.452  0.00  0.00    +0.179 C 
ATOM      4  C   UNK A   1      34.266 -23.419 -17.015  0.00  0.00    +0.057 C 
ATOM      5  C   UNK A   0      32.531 -21.647 -18.627  0.00  0.00    +0.120 C 
ATOM      6  C   UNK A   1      32.797 -23.302 -16.716  0.00  0.00    -0.019 C 
ATOM      7  C   UNK A   1      31.983 -22.447 -17.475  0.00  0.00    -0.003 C 
ATOM      8  C   UNK A   1      34.701 -20.908 -19.683  0.00  0.00    +0.206 C 
ATOM      9  C   UNK A   1      32.244 -24.014 -15.642  0.00  0.00    +0.036 C 
ATOM     10  C   UNK A   1      30.620 -22.339 -17.160  0.00  0.00    +0.037 C 
ATOM     11  C   UNK A   1      30.888 -23.898 -15.339  0.00  0.00    +0.172 C 
ATOM     12  C   UNK A   1      30.075 -23.061 -16.099  0.00  0.00    +0.172 C 
ENDROOT
BRANCH  11  13
ATOM     13  O   UNK A   1      30.372 -24.604 -14.295  0.00  0.00    -0.468 OA
ATOM     14  C   UNK A   1      31.256 -24.917 -13.222  0.00  0.00    +0.253 C 
ENDBRANCH  11  13
BRANCH  12  15
ATOM     15  O   UNK A   1      28.749 -22.937 -15.815  0.00  0.00    -0.468 OA
ATOM     16  C   UNK A   1      27.855 -22.841 -16.923  0.00  0.00    +0.253 C 
ENDBRANCH  12  15
BRANCH   3  18
ATOM     17  O   UNK A   1      33.520 -25.074 -19.189  0.00  0.00    -0.248 OA
ATOM     18  C   UNK A   1      34.223 -24.106 -19.441  0.00  0.00    +0.332 C 
BRANCH  18  19
ATOM     19  O   UNK A   1      34.759 -23.848 -20.658  0.00  0.00    -0.479 OA
ATOM     20  H   UNK A   1      34.214 -23.849 -21.420  0.00  0.00    +0.295 HD
ENDBRANCH  18  19
ENDBRANCH   3  18
BRANCH   8  21
ATOM     21  C   UNK A   1      33.927 -19.754 -20.272  0.00  0.00    +0.018 C 
ATOM     22  C   UNK A   1      32.991 -20.258 -21.352  0.00  0.00    -0.014 C 
BRANCH  21  23
ATOM     23  N   UNK A   1      34.904 -18.827 -20.818  0.00  0.00    +0.399 N 
ATOM     24  H   UNK A   1      35.611 -19.353 -21.331  0.00  0.00    -0.083 HD
ATOM     25  H   UNK A   1      35.329 -18.314 -20.046  0.00  0.00    -0.083 HD
BRANCH  23  26
ATOM     26  C   UNK A   0      34.274 -17.869 -21.719  0.00  0.00    +0.041 C 
BRANCH  26  28
ATOM     27  O   UNK A   0      35.753 -18.829 -23.408  0.00  0.00    -0.252 OA
ATOM     28  C   UNK A   0      35.031 -17.913 -23.035  0.00  0.00    +0.297 C 
BRANCH  28  29
ATOM     29  O   UNK A   0      34.768 -16.772 -23.742  0.00  0.00    -0.450 OA
BRANCH  29  30
ATOM     30  C   UNK A   0      34.543 -16.951 -25.144  0.00  0.00    +0.208 C 
ATOM     31  C   UNK A   0      33.737 -15.781 -25.667  0.00  0.00    +0.051 C 
ENDBRANCH  29  30
ENDBRANCH  28  29
ENDBRANCH  26  28
BRANCH  26  32
ATOM     32  C   UNK A   0      34.313 -16.442 -21.148  0.00  0.00    -0.006 C 
BRANCH  32  33
ATOM     33  C   UNK A   0      32.966 -15.897 -20.655  0.00  0.00    +0.025 C 
BRANCH  33  34
ATOM     34  C   UNK A   0      32.619 -14.539 -21.212  0.00  0.00    -0.022 C 
ATOM     35  C   UNK A   0      32.690 -14.311 -22.587  0.00  0.00    -0.004 C 
ATOM     36  C   UNK A   0      32.226 -13.512 -20.354  0.00  0.00    -0.004 C 
ATOM     37  C   UNK A   0      32.370 -13.054 -23.103  0.00  0.00    -0.000 C 
ATOM     38  C   UNK A   0      31.905 -12.256 -20.871  0.00  0.00    -0.000 C 
ATOM     39  C   UNK A   0      31.977 -12.028 -22.245  0.00  0.00    -0.000 C 
ENDBRANCH  33  34
ENDBRANCH  32  33
ENDBRANCH  26  32
ENDBRANCH  23  26
ENDBRANCH  21  23
ENDBRANCH   8  21
TORSDOF 13
ENDMDL
MODEL 9
REMARK VINA RESULT:      -8.4      2.567     10.039
REMARK  Name = 91270
REMARK  13 active torsions:
REMARK  status: ('A' for Active; 'I' for Inactive)
REMARK    1  A    between atoms: C_3  and  C_18
REMARK    2  A    between atoms: C_8  and  C_21
REMARK    3  A    between atoms: C_11  and  O_13
REMARK    4  A    between atoms: C_12  and  O_15
REMARK    5  A    between atoms: C_18  and  O_19
REMARK    6  A    between atoms: C_21  and  N_23
REMARK    7  A    between atoms: N_23  and  C_26
REMARK    8  A    between atoms: C_26  and  C_28
REMARK    9  A    between atoms: C_26  and  C_32
REMARK   10  A    between atoms: C_28  and  O_29
REMARK   11  A    between atoms: O_29  and  C_30
REMARK   12  A    between atoms: C_32  and  C_33
REMARK   13  A    between atoms: C_33  and  C_34
REMARK                            x       y       z     vdW  Elec       q    Type
REMARK                         _______ _______ _______ _____ _____    ______ ____
ROOT
ATOM      1  O   UNK A   1      35.736 -17.998 -20.056  0.00  0.00    -0.277 OA
ATOM      2  N   UNK A   1      34.722 -16.743 -21.738  0.00  0.00    -0.269 N 
ATOM      3  C   UNK A   1      34.410 -15.633 -20.835  0.00  0.00    +0.179 C 
ATOM      4  C   UNK A   1      34.702 -14.270 -21.454  0.00  0.00    +0.057 C 
ATOM      5  C   UNK A   0      34.221 -16.665 -23.121  0.00  0.00    +0.120 C 
ATOM      6  C   UNK A   1      34.182 -14.137 -22.858  0.00  0.00    -0.019 C 
ATOM      7  C   UNK A   1      33.971 -15.277 -23.649  0.00  0.00    -0.003 C 
ATOM      8  C   UNK A   1      35.308 -17.901 -21.208  0.00  0.00    +0.206 C 
ATOM      9  C   UNK A   1      33.951 -12.865 -23.400  0.00  0.00    +0.036 C 
ATOM     10  C   UNK A   1      33.508 -15.124 -24.964  0.00  0.00    +0.037 C 
ATOM     11  C   UNK A   1      33.491 -12.725 -24.709  0.00  0.00    +0.172 C 
ATOM     12  C   UNK A   1      33.268 -13.855 -25.491  0.00  0.00    +0.172 C 
ENDROOT
BRANCH  11  13
ATOM     13  O   UNK A   1      33.268 -11.479 -25.212  0.00  0.00    -0.468 OA
ATOM     14  C   UNK A   1      33.701 -10.373 -24.423  0.00  0.00    +0.253 C 
ENDBRANCH  11  13
BRANCH  12  15
ATOM     15  O   UNK A   1      32.819 -13.734 -26.771  0.00  0.00    -0.468 OA
ATOM     16  C   UNK A   1      33.783 -13.394 -27.766  0.00  0.00    +0.253 C 
ENDBRANCH  12  15
BRANCH   3  18
ATOM     17  O   UNK A   1      32.302 -16.800 -20.597  0.00  0.00    -0.248 OA
ATOM     18  C   UNK A   1      32.971 -15.791 -20.429  0.00  0.00    +0.332 C 
BRANCH  18  19
ATOM     19  O   UNK A   1      32.510 -14.656 -19.850  0.00  0.00    -0.479 OA
ATOM     20  H   UNK A   1      32.555 -13.843 -20.313  0.00  0.00    +0.295 HD
ENDBRANCH  18  19
ENDBRANCH   3  18
BRANCH   8  21
ATOM     21  C   UNK A   1      35.411 -19.085 -22.139  0.00  0.00    +0.018 C 
ATOM     22  C   UNK A   1      35.126 -18.650 -23.562  0.00  0.00    -0.014 C 
BRANCH  21  23
ATOM     23  N   UNK A   1      34.435 -20.062 -21.686  0.00  0.00    +0.399 N 
ATOM     24  H   UNK A   1      34.585 -20.939 -22.185  0.00  0.00    -0.083 HD
ATOM     25  H   UNK A   1      33.501 -19.697 -21.873  0.00  0.00    -0.083 HD
BRANCH  23  26
ATOM     26  C   UNK A   0      34.559 -20.302 -20.252  0.00  0.00    +0.041 C 
BRANCH  26  28
ATOM     27  O   UNK A   0      36.204 -22.020 -20.802  0.00  0.00    -0.252 OA
ATOM     28  C   UNK A   0      35.796 -21.156 -20.037  0.00  0.00    +0.297 C 
BRANCH  28  29
ATOM     29  O   UNK A   0      36.388 -20.798 -18.857  0.00  0.00    -0.450 OA
BRANCH  29  30
ATOM     30  C   UNK A   0      36.946 -21.871 -18.093  0.00  0.00    +0.208 C 
ATOM     31  C   UNK A   0      37.213 -21.388 -16.684  0.00  0.00    +0.051 C 
ENDBRANCH  29  30
ENDBRANCH  28  29
ENDBRANCH  26  28
BRANCH  26  32
ATOM     32  C   UNK A   0      33.326 -21.028 -19.690  0.00  0.00    -0.006 C 
BRANCH  32  33
ATOM     33  C   UNK A   0      33.564 -22.480 -19.253  0.00  0.00    +0.025 C 
BRANCH  33  34
ATOM     34  C   UNK A   0      33.119 -22.770 -17.841  0.00  0.00    -0.022 C 
ATOM     35  C   UNK A   0      31.783 -22.589 -17.480  0.00  0.00    -0.004 C 
ATOM     36  C   UNK A   0      34.042 -23.220 -16.897  0.00  0.00    -0.004 C 
ATOM     37  C   UNK A   0      31.372 -22.857 -16.174  0.00  0.00    -0.000 C 
ATOM     38  C   UNK A   0      33.630 -23.489 -15.591  0.00  0.00    -0.000 C 
ATOM     39  C   UNK A   0      32.295 -23.307 -15.230  0.00  0.00    -0.000 C 
ENDBRANCH  33  34
ENDBRANCH  32  33
ENDBRANCH  26  32
ENDBRANCH  23  26
ENDBRANCH  21  23
ENDBRANCH   8  21
TORSDOF 13
ENDMDL
