MODEL 1
REMARK VINA RESULT:     -10.4      0.000      0.000
REMARK  Name = 11661758
REMARK  7 active torsions:
REMARK  status: ('A' for Active; 'I' for Inactive)
REMARK    1  A    between atoms: S_1  and  C_9
REMARK    2  A    between atoms: S_1  and  C_19
REMARK    3  A    between atoms: N_5  and  C_11
REMARK    4  A    between atoms: C_13  and  O_17
REMARK    5  A    between atoms: C_20  and  N_26
REMARK    6  A    between atoms: C_27  and  C_29
REMARK    7  A    between atoms: C_29  and  N_31
REMARK                            x       y       z     vdW  Elec       q    Type
REMARK                         _______ _______ _______ _____ _____    ______ ____
ROOT
ATOM      1  S   UNL     1      35.893 -18.206 -22.341  0.00  0.00    -0.087 S 
ENDROOT
BRANCH   1   7
ATOM      2  N   UNL     1      35.205 -21.945 -18.677  0.00  0.00    -0.302 N 
ATOM      3  N   UNL     1      32.993 -22.048 -18.868  0.00  0.00    -0.302 N 
ATOM      4  C   UNL     1      34.878 -21.028 -19.642  0.00  0.00    +0.061 C 
ATOM      5  C   UNL     1      33.492 -21.111 -19.742  0.00  0.00    +0.060 C 
ATOM      6  C   UNL     1      35.652 -20.159 -20.411  0.00  0.00    +0.022 C 
ATOM      7  C   UNL     1      34.967 -19.344 -21.320  0.00  0.00    +0.031 C 
ATOM      8  C   UNL     1      32.822 -20.284 -20.661  0.00  0.00    +0.016 C 
ATOM      9  C   UNL     1      34.047 -22.528 -18.245  0.00  0.00    +0.229 C 
ATOM     10  C   UNL     1      33.578 -19.405 -21.444  0.00  0.00    +0.008 C 
ATOM     11  H   UNL     1      36.113 -22.148 -18.353  0.00  0.00    +0.150 HD
ATOM     12  H   UNL     1      32.052 -22.303 -18.736  0.00  0.00    +0.150 HD
BRANCH   9  14
ATOM     13  O   UNL     1      35.491 -22.551 -15.646  0.00  0.00    -0.226 OA
ATOM     14  N   UNL     1      34.078 -23.493 -17.272  0.00  0.00    -0.240 N 
ATOM     15  C   UNL     1      34.776 -23.453 -16.064  0.00  0.00    +0.404 C 
ATOM     16  H   UNL     1      33.548 -24.304 -17.444  0.00  0.00    +0.156 HD
BRANCH  15  17
ATOM     17  O   UNL     1      34.545 -24.612 -15.369  0.00  0.00    -0.431 OA
ATOM     18  C   UNL     1      35.702 -25.274 -14.846  0.00  0.00    +0.257 C 
ENDBRANCH  15  17
ENDBRANCH   9  14
ENDBRANCH   1   7
BRANCH   1  19
ATOM     19  C   UNL     1      34.864 -16.750 -22.256  0.00  0.00    +0.030 C 
ATOM     20  C   UNL     1      33.265 -14.472 -22.126  0.00  0.00    +0.050 C 
ATOM     21  C   UNL     1      33.457 -15.121 -23.346  0.00  0.00    +0.015 C 
ATOM     22  C   UNL     1      33.873 -14.965 -20.971  0.00  0.00    +0.015 C 
ATOM     23  C   UNL     1      34.258 -16.261 -23.411  0.00  0.00    +0.008 C 
ATOM     24  C   UNL     1      34.674 -16.105 -21.036  0.00  0.00    +0.008 C 
BRANCH  20  26
ATOM     25  O   UNL     1      33.483 -11.866 -23.597  0.00  0.00    -0.277 OA
ATOM     26  N   UNL     1      32.466 -13.331 -22.062  0.00  0.00    -0.286 N 
ATOM     27  C   UNL     1      32.605 -12.129 -22.778  0.00  0.00    +0.206 C 
ATOM     28  H   UNL     1      31.708 -13.371 -21.435  0.00  0.00    +0.155 HD
BRANCH  27  29
ATOM     29  C   UNL     1      31.520 -11.120 -22.416  0.00  0.00    +0.013 C 
ATOM     30  C   UNL     1      32.111  -9.775 -22.007  0.00  0.00    -0.015 C 
BRANCH  29  31
ATOM     31  N   UNL     1      30.772 -11.690 -21.297  0.00  0.00    +0.387 N 
ATOM     32  H   UNL     1      29.945 -12.170 -21.651  0.00  0.00    -0.089 HD
ATOM     33  H   UNL     1      30.486 -10.943 -20.664  0.00  0.00    -0.089 HD
ATOM     34  H   UNL     1      31.363 -12.353 -20.797  0.00  0.00    -0.089 HD
ENDBRANCH  29  31
ENDBRANCH  27  29
ENDBRANCH  20  26
ENDBRANCH   1  19
TORSDOF 7
ENDMDL
MODEL 2
REMARK VINA RESULT:     -10.2      1.718      9.674
REMARK  Name = 11661758
REMARK  7 active torsions:
REMARK  status: ('A' for Active; 'I' for Inactive)
REMARK    1  A    between atoms: S_1  and  C_9
REMARK    2  A    between atoms: S_1  and  C_19
REMARK    3  A    between atoms: N_5  and  C_11
REMARK    4  A    between atoms: C_13  and  O_17
REMARK    5  A    between atoms: C_20  and  N_26
REMARK    6  A    between atoms: C_27  and  C_29
REMARK    7  A    between atoms: C_29  and  N_31
REMARK                            x       y       z     vdW  Elec       q    Type
REMARK                         _______ _______ _______ _____ _____    ______ ____
ROOT
ATOM      1  S   UNL     1      36.078 -18.640 -22.432  0.00  0.00    -0.087 S 
ENDROOT
BRANCH   1   7
ATOM      2  N   UNL     1      33.251 -14.593 -20.558  0.00  0.00    -0.302 N 
ATOM      3  N   UNL     1      32.625 -13.814 -22.543  0.00  0.00    -0.302 N 
ATOM      4  C   UNL     1      33.821 -15.435 -21.478  0.00  0.00    +0.061 C 
ATOM      5  C   UNL     1      33.415 -14.927 -22.709  0.00  0.00    +0.060 C 
ATOM      6  C   UNL     1      34.632 -16.562 -21.344  0.00  0.00    +0.022 C 
ATOM      7  C   UNL     1      35.039 -17.190 -22.526  0.00  0.00    +0.031 C 
ATOM      8  C   UNL     1      33.835 -15.570 -23.886  0.00  0.00    +0.016 C 
ATOM      9  C   UNL     1      32.547 -13.642 -21.242  0.00  0.00    +0.229 C 
ATOM     10  C   UNL     1      34.648 -16.704 -23.776  0.00  0.00    +0.008 C 
ATOM     11  H   UNL     1      33.335 -14.662 -19.579  0.00  0.00    +0.150 HD
ATOM     12  H   UNL     1      32.208 -13.264 -23.245  0.00  0.00    +0.150 HD
BRANCH   9  14
ATOM     13  O   UNL     1      31.252 -11.174 -22.278  0.00  0.00    -0.226 OA
ATOM     14  N   UNL     1      31.870 -12.661 -20.565  0.00  0.00    -0.240 N 
ATOM     15  C   UNL     1      31.278 -11.517 -21.102  0.00  0.00    +0.404 C 
ATOM     16  H   UNL     1      31.793 -12.777 -19.590  0.00  0.00    +0.156 HD
BRANCH  15  17
ATOM     17  O   UNL     1      30.700 -10.791 -20.094  0.00  0.00    -0.431 OA
ATOM     18  C   UNL     1      31.554 -10.439 -19.000  0.00  0.00    +0.257 C 
ENDBRANCH  15  17
ENDBRANCH   9  14
ENDBRANCH   1   7
BRANCH   1  19
ATOM     19  C   UNL     1      35.146 -19.660 -21.301  0.00  0.00    +0.030 C 
ATOM     20  C   UNL     1      33.691 -21.257 -19.542  0.00  0.00    +0.050 C 
ATOM     21  C   UNL     1      35.085 -21.316 -19.548  0.00  0.00    +0.015 C 
ATOM     22  C   UNL     1      33.026 -20.398 -20.417  0.00  0.00    +0.015 C 
ATOM     23  C   UNL     1      35.813 -20.516 -20.429  0.00  0.00    +0.008 C 
ATOM     24  C   UNL     1      33.754 -19.598 -21.298  0.00  0.00    +0.008 C 
BRANCH  20  26
ATOM     25  O   UNL     1      34.622 -23.017 -17.298  0.00  0.00    -0.277 OA
ATOM     26  N   UNL     1      32.964 -22.059 -18.663  0.00  0.00    -0.286 N 
ATOM     27  C   UNL     1      33.446 -22.865 -17.618  0.00  0.00    +0.206 C 
ATOM     28  H   UNL     1      31.987 -22.060 -18.790  0.00  0.00    +0.155 HD
BRANCH  27  29
ATOM     29  C   UNL     1      32.319 -23.589 -16.888  0.00  0.00    +0.013 C 
ATOM     30  C   UNL     1      31.051 -22.743 -16.824  0.00  0.00    -0.015 C 
BRANCH  29  31
ATOM     31  N   UNL     1      32.799 -23.858 -15.535  0.00  0.00    +0.387 N 
ATOM     32  H   UNL     1      33.408 -24.676 -15.547  0.00  0.00    -0.089 HD
ATOM     33  H   UNL     1      32.004 -24.037 -14.920  0.00  0.00    -0.089 HD
ATOM     34  H   UNL     1      33.320 -23.051 -15.192  0.00  0.00    -0.089 HD
ENDBRANCH  29  31
ENDBRANCH  27  29
ENDBRANCH  20  26
ENDBRANCH   1  19
TORSDOF 7
ENDMDL
MODEL 3
REMARK VINA RESULT:     -10.0      1.530      2.168
REMARK  Name = 11661758
REMARK  7 active torsions:
REMARK  status: ('A' for Active; 'I' for Inactive)
REMARK    1  A    between atoms: S_1  and  C_9
REMARK    2  A    between atoms: S_1  and  C_19
REMARK    3  A    between atoms: N_5  and  C_11
REMARK    4  A    between atoms: C_13  and  O_17
REMARK    5  A    between atoms: C_20  and  N_26
REMARK    6  A    between atoms: C_27  and  C_29
REMARK    7  A    between atoms: C_29  and  N_31
REMARK                            x       y       z     vdW  Elec       q    Type
REMARK                         _______ _______ _______ _____ _____    ______ ____
ROOT
ATOM      1  S   UNL     1      35.116 -17.327 -24.252  0.00  0.00    -0.087 S 
ENDROOT
BRANCH   1   7
ATOM      2  N   UNL     1      33.010 -20.598 -20.681  0.00  0.00    -0.302 N 
ATOM      3  N   UNL     1      34.870 -20.868 -19.495  0.00  0.00    -0.302 N 
ATOM      4  C   UNL     1      33.960 -19.836 -21.311  0.00  0.00    +0.061 C 
ATOM      5  C   UNL     1      35.112 -20.022 -20.552  0.00  0.00    +0.060 C 
ATOM      6  C   UNL     1      33.913 -19.026 -22.446  0.00  0.00    +0.022 C 
ATOM      7  C   UNL     1      35.101 -18.383 -22.810  0.00  0.00    +0.031 C 
ATOM      8  C   UNL     1      36.296 -19.368 -20.933  0.00  0.00    +0.016 C 
ATOM      9  C   UNL     1      33.601 -21.194 -19.603  0.00  0.00    +0.229 C 
ATOM     10  C   UNL     1      36.272 -18.549 -22.068  0.00  0.00    +0.008 C 
ATOM     11  H   UNL     1      32.070 -20.697 -20.957  0.00  0.00    +0.150 HD
ATOM     12  H   UNL     1      35.508 -21.166 -18.807  0.00  0.00    +0.150 HD
BRANCH   9  14
ATOM     13  O   UNL     1      34.532 -23.021 -17.449  0.00  0.00    -0.226 OA
ATOM     14  N   UNL     1      32.876 -22.021 -18.785  0.00  0.00    -0.240 N 
ATOM     15  C   UNL     1      33.364 -22.863 -17.784  0.00  0.00    +0.404 C 
ATOM     16  H   UNL     1      31.900 -22.021 -18.918  0.00  0.00    +0.156 HD
BRANCH  15  17
ATOM     17  O   UNL     1      32.317 -23.522 -17.195  0.00  0.00    -0.431 OA
ATOM     18  C   UNL     1      32.264 -23.470 -15.765  0.00  0.00    +0.257 C 
ENDBRANCH  15  17
ENDBRANCH   9  14
ENDBRANCH   1   7
BRANCH   1  19
ATOM     19  C   UNL     1      34.183 -15.924 -23.662  0.00  0.00    +0.030 C 
ATOM     20  C   UNL     1      32.733 -13.730 -22.744  0.00  0.00    +0.050 C 
ATOM     21  C   UNL     1      32.772 -14.019 -24.108  0.00  0.00    +0.015 C 
ATOM     22  C   UNL     1      33.420 -14.540 -21.839  0.00  0.00    +0.015 C 
ATOM     23  C   UNL     1      33.498 -15.118 -24.568  0.00  0.00    +0.008 C 
ATOM     24  C   UNL     1      34.146 -15.638 -22.299  0.00  0.00    +0.008 C 
BRANCH  20  26
ATOM     25  O   UNL     1      33.103 -10.801 -23.281  0.00  0.00    -0.277 OA
ATOM     26  N   UNL     1      32.009 -12.630 -22.285  0.00  0.00    -0.286 N 
ATOM     27  C   UNL     1      32.218 -11.269 -22.570  0.00  0.00    +0.206 C 
ATOM     28  H   UNL     1      31.255 -12.831 -21.685  0.00  0.00    +0.155 HD
BRANCH  27  29
ATOM     29  C   UNL     1      31.201 -10.376 -21.865  0.00  0.00    +0.013 C 
ATOM     30  C   UNL     1      31.852  -9.121 -21.293  0.00  0.00    -0.015 C 
BRANCH  29  31
ATOM     31  N   UNL     1      30.624 -11.169 -20.783  0.00  0.00    +0.387 N 
ATOM     32  H   UNL     1      31.226 -11.112 -19.962  0.00  0.00    -0.089 HD
ATOM     33  H   UNL     1      30.545 -12.143 -21.079  0.00  0.00    -0.089 HD
ATOM     34  H   UNL     1      29.699 -10.807 -20.552  0.00  0.00    -0.089 HD
ENDBRANCH  29  31
ENDBRANCH  27  29
ENDBRANCH  20  26
ENDBRANCH   1  19
TORSDOF 7
ENDMDL
MODEL 4
REMARK VINA RESULT:      -9.9      2.745      3.140
REMARK  Name = 11661758
REMARK  7 active torsions:
REMARK  status: ('A' for Active; 'I' for Inactive)
REMARK    1  A    between atoms: S_1  and  C_9
REMARK    2  A    between atoms: S_1  and  C_19
REMARK    3  A    between atoms: N_5  and  C_11
REMARK    4  A    between atoms: C_13  and  O_17
REMARK    5  A    between atoms: C_20  and  N_26
REMARK    6  A    between atoms: C_27  and  C_29
REMARK    7  A    between atoms: C_29  and  N_31
REMARK                            x       y       z     vdW  Elec       q    Type
REMARK                         _______ _______ _______ _____ _____    ______ ____
ROOT
ATOM      1  S   UNL     1      36.694 -19.748 -21.140  0.00  0.00    -0.087 S 
ENDROOT
BRANCH   1   7
ATOM      2  N   UNL     1      34.359 -22.846 -17.558  0.00  0.00    -0.302 N 
ATOM      3  N   UNL     1      32.275 -22.363 -18.162  0.00  0.00    -0.302 N 
ATOM      4  C   UNL     1      34.476 -21.958 -18.595  0.00  0.00    +0.061 C 
ATOM      5  C   UNL     1      33.161 -21.672 -18.954  0.00  0.00    +0.060 C 
ATOM      6  C   UNL     1      35.583 -21.396 -19.231  0.00  0.00    +0.022 C 
ATOM      7  C   UNL     1      35.324 -20.505 -20.278  0.00  0.00    +0.031 C 
ATOM      8  C   UNL     1      32.920 -20.773 -20.008  0.00  0.00    +0.016 C 
ATOM      9  C   UNL     1      33.027 -23.057 -17.336  0.00  0.00    +0.229 C 
ATOM     10  C   UNL     1      34.016 -20.198 -20.661  0.00  0.00    +0.008 C 
ATOM     11  H   UNL     1      35.103 -23.259 -17.061  0.00  0.00    +0.150 HD
ATOM     12  H   UNL     1      31.292 -22.343 -18.203  0.00  0.00    +0.150 HD
BRANCH   9  14
ATOM     13  O   UNL     1      30.836 -22.741 -15.351  0.00  0.00    -0.226 OA
ATOM     14  N   UNL     1      32.617 -23.911 -16.345  0.00  0.00    -0.240 N 
ATOM     15  C   UNL     1      31.576 -23.713 -15.435  0.00  0.00    +0.404 C 
ATOM     16  H   UNL     1      33.110 -24.758 -16.267  0.00  0.00    +0.156 HD
BRANCH  15  17
ATOM     17  O   UNL     1      31.485 -24.801 -14.608  0.00  0.00    -0.431 OA
ATOM     18  C   UNL     1      30.185 -25.385 -14.475  0.00  0.00    +0.257 C 
ENDBRANCH  15  17
ENDBRANCH   9  14
ENDBRANCH   1   7
BRANCH   1  19
ATOM     19  C   UNL     1      35.867 -18.427 -22.011  0.00  0.00    +0.030 C 
ATOM     20  C   UNL     1      34.585 -16.362 -23.371  0.00  0.00    +0.050 C 
ATOM     21  C   UNL     1      34.997 -17.501 -24.061  0.00  0.00    +0.015 C 
ATOM     22  C   UNL     1      34.813 -16.256 -21.999  0.00  0.00    +0.015 C 
ATOM     23  C   UNL     1      35.640 -18.535 -23.380  0.00  0.00    +0.008 C 
ATOM     24  C   UNL     1      35.455 -17.290 -21.318  0.00  0.00    +0.008 C 
BRANCH  20  26
ATOM     25  O   UNL     1      33.740 -16.162 -26.243  0.00  0.00    -0.277 OA
ATOM     26  N   UNL     1      33.944 -15.327 -24.054  0.00  0.00    -0.286 N 
ATOM     27  C   UNL     1      33.562 -15.282 -25.406  0.00  0.00    +0.206 C 
ATOM     28  H   UNL     1      33.733 -14.527 -23.521  0.00  0.00    +0.155 HD
BRANCH  27  29
ATOM     29  C   UNL     1      32.884 -13.962 -25.763  0.00  0.00    +0.013 C 
ATOM     30  C   UNL     1      33.258 -13.496 -27.166  0.00  0.00    -0.015 C 
BRANCH  29  31
ATOM     31  N   UNL     1      33.335 -12.979 -24.781  0.00  0.00    +0.387 N 
ATOM     32  H   UNL     1      33.891 -13.445 -24.064  0.00  0.00    -0.089 HD
ATOM     33  H   UNL     1      32.525 -12.536 -24.346  0.00  0.00    -0.089 HD
ATOM     34  H   UNL     1      33.903 -12.270 -25.245  0.00  0.00    -0.089 HD
ENDBRANCH  29  31
ENDBRANCH  27  29
ENDBRANCH  20  26
ENDBRANCH   1  19
TORSDOF 7
ENDMDL
MODEL 5
REMARK VINA RESULT:      -9.8      2.697     10.701
REMARK  Name = 11661758
REMARK  7 active torsions:
REMARK  status: ('A' for Active; 'I' for Inactive)
REMARK    1  A    between atoms: S_1  and  C_9
REMARK    2  A    between atoms: S_1  and  C_19
REMARK    3  A    between atoms: N_5  and  C_11
REMARK    4  A    between atoms: C_13  and  O_17
REMARK    5  A    between atoms: C_20  and  N_26
REMARK    6  A    between atoms: C_27  and  C_29
REMARK    7  A    between atoms: C_29  and  N_31
REMARK                            x       y       z     vdW  Elec       q    Type
REMARK                         _______ _______ _______ _____ _____    ______ ____
ROOT
ATOM      1  S   UNL     1      34.470 -15.539 -24.641  0.00  0.00    -0.087 S 
ENDROOT
BRANCH   1   7
ATOM      2  N   UNL     1      33.040 -10.609 -23.403  0.00  0.00    -0.302 N 
ATOM      3  N   UNL     1      31.785 -11.167 -21.656  0.00  0.00    -0.302 N 
ATOM      4  C   UNL     1      33.116 -11.975 -23.320  0.00  0.00    +0.061 C 
ATOM      5  C   UNL     1      32.324 -12.299 -22.222  0.00  0.00    +0.060 C 
ATOM      6  C   UNL     1      33.788 -12.927 -24.087  0.00  0.00    +0.022 C 
ATOM      7  C   UNL     1      33.637 -14.265 -23.706  0.00  0.00    +0.031 C 
ATOM      8  C   UNL     1      32.184 -13.648 -21.853  0.00  0.00    +0.016 C 
ATOM      9  C   UNL     1      32.235 -10.173 -22.389  0.00  0.00    +0.229 C 
ATOM     10  C   UNL     1      32.850 -14.621 -22.608  0.00  0.00    +0.008 C 
ATOM     11  H   UNL     1      33.487 -10.043 -24.075  0.00  0.00    +0.150 HD
ATOM     12  H   UNL     1      31.191 -11.113 -20.873  0.00  0.00    +0.150 HD
BRANCH   9  14
ATOM     13  O   UNL     1      32.458  -8.474 -19.958  0.00  0.00    -0.226 OA
ATOM     14  N   UNL     1      31.981  -8.835 -22.232  0.00  0.00    -0.240 N 
ATOM     15  C   UNL     1      32.103  -8.082 -21.063  0.00  0.00    +0.404 C 
ATOM     16  H   UNL     1      31.681  -8.351 -23.035  0.00  0.00    +0.156 HD
BRANCH  15  17
ATOM     17  O   UNL     1      31.757  -6.782 -21.324  0.00  0.00    -0.431 OA
ATOM     18  C   UNL     1      31.001  -6.558 -22.519  0.00  0.00    +0.257 C 
ENDBRANCH  15  17
ENDBRANCH   9  14
ENDBRANCH   1   7
BRANCH   1  19
ATOM     19  C   UNL     1      34.590 -16.839 -23.423  0.00  0.00    +0.030 C 
ATOM     20  C   UNL     1      34.786 -18.868 -21.524  0.00  0.00    +0.050 C 
ATOM     21  C   UNL     1      34.853 -17.532 -21.128  0.00  0.00    +0.015 C 
ATOM     22  C   UNL     1      34.619 -19.188 -22.872  0.00  0.00    +0.015 C 
ATOM     23  C   UNL     1      34.755 -16.517 -22.079  0.00  0.00    +0.008 C 
ATOM     24  C   UNL     1      34.522 -18.172 -23.823  0.00  0.00    +0.008 C 
BRANCH  20  26
ATOM     25  O   UNL     1      32.676 -20.662 -20.371  0.00  0.00    -0.277 OA
ATOM     26  N   UNL     1      34.886 -19.883 -20.573  0.00  0.00    -0.286 N 
ATOM     27  C   UNL     1      33.865 -20.705 -20.066  0.00  0.00    +0.206 C 
ATOM     28  H   UNL     1      35.787 -20.045 -20.210  0.00  0.00    +0.155 HD
BRANCH  27  29
ATOM     29  C   UNL     1      34.390 -21.697 -19.033  0.00  0.00    +0.013 C 
ATOM     30  C   UNL     1      35.915 -21.743 -19.018  0.00  0.00    -0.015 C 
BRANCH  29  31
ATOM     31  N   UNL     1      33.861 -23.008 -19.402  0.00  0.00    +0.387 N 
ATOM     32  H   UNL     1      34.510 -23.468 -20.040  0.00  0.00    -0.089 HD
ATOM     33  H   UNL     1      32.957 -22.893 -19.862  0.00  0.00    -0.089 HD
ATOM     34  H   UNL     1      33.747 -23.577 -18.564  0.00  0.00    -0.089 HD
ENDBRANCH  29  31
ENDBRANCH  27  29
ENDBRANCH  20  26
ENDBRANCH   1  19
TORSDOF 7
ENDMDL
MODEL 6
REMARK VINA RESULT:      -9.7      2.641     10.069
REMARK  Name = 11661758
REMARK  7 active torsions:
REMARK  status: ('A' for Active; 'I' for Inactive)
REMARK    1  A    between atoms: S_1  and  C_9
REMARK    2  A    between atoms: S_1  and  C_19
REMARK    3  A    between atoms: N_5  and  C_11
REMARK    4  A    between atoms: C_13  and  O_17
REMARK    5  A    between atoms: C_20  and  N_26
REMARK    6  A    between atoms: C_27  and  C_29
REMARK    7  A    between atoms: C_29  and  N_31
REMARK                            x       y       z     vdW  Elec       q    Type
REMARK                         _______ _______ _______ _____ _____    ______ ____
ROOT
ATOM      1  S   UNL     1      36.666 -19.820 -21.090  0.00  0.00    -0.087 S 
ENDROOT
BRANCH   1   7
ATOM      2  N   UNL     1      34.529 -16.359 -24.456  0.00  0.00    -0.302 N 
ATOM      3  N   UNL     1      33.848 -14.921 -22.903  0.00  0.00    -0.302 N 
ATOM      4  C   UNL     1      34.913 -16.905 -23.258  0.00  0.00    +0.061 C 
ATOM      5  C   UNL     1      34.476 -15.989 -22.305  0.00  0.00    +0.060 C 
ATOM      6  C   UNL     1      35.583 -18.085 -22.936  0.00  0.00    +0.022 C 
ATOM      7  C   UNL     1      35.812 -18.329 -21.578  0.00  0.00    +0.031 C 
ATOM      8  C   UNL     1      34.714 -16.251 -20.945  0.00  0.00    +0.016 C 
ATOM      9  C   UNL     1      33.898 -15.175 -24.192  0.00  0.00    +0.229 C 
ATOM     10  C   UNL     1      35.386 -17.429 -20.598  0.00  0.00    +0.008 C 
ATOM     11  H   UNL     1      34.682 -16.749 -25.347  0.00  0.00    +0.150 HD
ATOM     12  H   UNL     1      33.448 -14.138 -22.462  0.00  0.00    +0.150 HD
BRANCH   9  14
ATOM     13  O   UNL     1      32.628 -16.018 -26.745  0.00  0.00    -0.226 OA
ATOM     14  N   UNL     1      33.405 -14.410 -25.217  0.00  0.00    -0.240 N 
ATOM     15  C   UNL     1      32.816 -14.858 -26.400  0.00  0.00    +0.404 C 
ATOM     16  H   UNL     1      33.475 -13.434 -25.105  0.00  0.00    +0.156 HD
BRANCH  15  17
ATOM     17  O   UNL     1      32.455 -13.779 -27.164  0.00  0.00    -0.431 OA
ATOM     18  C   UNL     1      33.389 -12.694 -27.202  0.00  0.00    +0.257 C 
ENDBRANCH  15  17
ENDBRANCH   9  14
ENDBRANCH   1   7
BRANCH   1  19
ATOM     19  C   UNL     1      35.391 -20.665 -20.169  0.00  0.00    +0.030 C 
ATOM     20  C   UNL     1      33.401 -21.988 -18.737  0.00  0.00    +0.050 C 
ATOM     21  C   UNL     1      34.743 -22.304 -18.523  0.00  0.00    +0.015 C 
ATOM     22  C   UNL     1      33.056 -21.008 -19.668  0.00  0.00    +0.015 C 
ATOM     23  C   UNL     1      35.739 -21.642 -19.240  0.00  0.00    +0.008 C 
ATOM     24  C   UNL     1      34.052 -20.346 -20.385  0.00  0.00    +0.008 C 
BRANCH  20  26
ATOM     25  O   UNL     1      33.450 -23.161 -15.976  0.00  0.00    -0.277 OA
ATOM     26  N   UNL     1      32.405 -22.652 -18.022  0.00  0.00    -0.286 N 
ATOM     27  C   UNL     1      32.474 -23.182 -16.722  0.00  0.00    +0.206 C 
ATOM     28  H   UNL     1      31.544 -22.765 -18.486  0.00  0.00    +0.155 HD
BRANCH  27  29
ATOM     29  C   UNL     1      31.160 -23.836 -16.302  0.00  0.00    +0.013 C 
ATOM     30  C   UNL     1      29.989 -22.865 -16.398  0.00  0.00    -0.015 C 
BRANCH  29  31
ATOM     31  N   UNL     1      31.330 -24.267 -14.916  0.00  0.00    +0.387 N 
ATOM     32  H   UNL     1      31.151 -25.269 -14.848  0.00  0.00    -0.089 HD
ATOM     33  H   UNL     1      30.672 -23.763 -14.320  0.00  0.00    -0.089 HD
ATOM     34  H   UNL     1      32.284 -24.070 -14.613  0.00  0.00    -0.089 HD
ENDBRANCH  29  31
ENDBRANCH  27  29
ENDBRANCH  20  26
ENDBRANCH   1  19
TORSDOF 7
ENDMDL
MODEL 7
REMARK VINA RESULT:      -9.6      2.959      4.286
REMARK  Name = 11661758
REMARK  7 active torsions:
REMARK  status: ('A' for Active; 'I' for Inactive)
REMARK    1  A    between atoms: S_1  and  C_9
REMARK    2  A    between atoms: S_1  and  C_19
REMARK    3  A    between atoms: N_5  and  C_11
REMARK    4  A    between atoms: C_13  and  O_17
REMARK    5  A    between atoms: C_20  and  N_26
REMARK    6  A    between atoms: C_27  and  C_29
REMARK    7  A    between atoms: C_29  and  N_31
REMARK                            x       y       z     vdW  Elec       q    Type
REMARK                         _______ _______ _______ _____ _____    ______ ____
ROOT
ATOM      1  S   UNL     1      36.570 -21.576 -20.122  0.00  0.00    -0.087 S 
ENDROOT
BRANCH   1   7
ATOM      2  N   UNL     1      32.183 -23.104 -17.612  0.00  0.00    -0.302 N 
ATOM      3  N   UNL     1      33.129 -23.320 -15.612  0.00  0.00    -0.302 N 
ATOM      4  C   UNL     1      33.501 -22.768 -17.792  0.00  0.00    +0.061 C 
ATOM      5  C   UNL     1      34.069 -22.911 -16.529  0.00  0.00    +0.060 C 
ATOM      6  C   UNL     1      34.222 -22.365 -18.915  0.00  0.00    +0.022 C 
ATOM      7  C   UNL     1      35.583 -22.099 -18.728  0.00  0.00    +0.031 C 
ATOM      8  C   UNL     1      35.438 -22.640 -16.359  0.00  0.00    +0.016 C 
ATOM      9  C   UNL     1      32.010 -23.426 -16.295  0.00  0.00    +0.229 C 
ATOM     10  C   UNL     1      36.181 -22.233 -17.474  0.00  0.00    +0.008 C 
ATOM     11  H   UNL     1      31.487 -23.112 -18.308  0.00  0.00    +0.150 HD
ATOM     12  H   UNL     1      33.264 -23.496 -14.653  0.00  0.00    +0.150 HD
BRANCH   9  14
ATOM     13  O   UNL     1      29.317 -22.388 -17.010  0.00  0.00    -0.226 OA
ATOM     14  N   UNL     1      30.777 -23.804 -15.831  0.00  0.00    -0.240 N 
ATOM     15  C   UNL     1      29.537 -23.281 -16.201  0.00  0.00    +0.404 C 
ATOM     16  H   UNL     1      30.765 -24.525 -15.161  0.00  0.00    +0.156 HD
BRANCH  15  17
ATOM     17  O   UNL     1      28.547 -23.929 -15.510  0.00  0.00    -0.431 OA
ATOM     18  C   UNL     1      28.941 -25.114 -14.808  0.00  0.00    +0.257 C 
ENDBRANCH  15  17
ENDBRANCH   9  14
ENDBRANCH   1   7
BRANCH   1  19
ATOM     19  C   UNL     1      35.711 -20.090 -20.616  0.00  0.00    +0.030 C 
ATOM     20  C   UNL     1      34.371 -17.776 -21.395  0.00  0.00    +0.050 C 
ATOM     21  C   UNL     1      33.649 -18.893 -20.976  0.00  0.00    +0.015 C 
ATOM     22  C   UNL     1      35.765 -17.817 -21.423  0.00  0.00    +0.015 C 
ATOM     23  C   UNL     1      34.320 -20.052 -20.586  0.00  0.00    +0.008 C 
ATOM     24  C   UNL     1      36.436 -18.976 -21.033  0.00  0.00    +0.008 C 
BRANCH  20  26
ATOM     25  O   UNL     1      34.616 -14.958 -20.395  0.00  0.00    -0.277 OA
ATOM     26  N   UNL     1      33.699 -16.618 -21.786  0.00  0.00    -0.286 N 
ATOM     27  C   UNL     1      33.853 -15.312 -21.290  0.00  0.00    +0.206 C 
ATOM     28  H   UNL     1      33.031 -16.729 -22.502  0.00  0.00    +0.155 HD
BRANCH  27  29
ATOM     29  C   UNL     1      32.924 -14.323 -21.988  0.00  0.00    +0.013 C 
ATOM     30  C   UNL     1      33.633 -13.580 -23.115  0.00  0.00    -0.015 C 
BRANCH  29  31
ATOM     31  N   UNL     1      32.483 -13.371 -20.971  0.00  0.00    +0.387 N 
ATOM     32  H   UNL     1      33.145 -13.372 -20.196  0.00  0.00    -0.089 HD
ATOM     33  H   UNL     1      31.560 -13.641 -20.630  0.00  0.00    -0.089 HD
ATOM     34  H   UNL     1      32.436 -12.437 -21.378  0.00  0.00    -0.089 HD
ENDBRANCH  29  31
ENDBRANCH  27  29
ENDBRANCH  20  26
ENDBRANCH   1  19
TORSDOF 7
ENDMDL
MODEL 8
REMARK VINA RESULT:      -9.4      3.249      5.285
REMARK  Name = 11661758
REMARK  7 active torsions:
REMARK  status: ('A' for Active; 'I' for Inactive)
REMARK    1  A    between atoms: S_1  and  C_9
REMARK    2  A    between atoms: S_1  and  C_19
REMARK    3  A    between atoms: N_5  and  C_11
REMARK    4  A    between atoms: C_13  and  O_17
REMARK    5  A    between atoms: C_20  and  N_26
REMARK    6  A    between atoms: C_27  and  C_29
REMARK    7  A    between atoms: C_29  and  N_31
REMARK                            x       y       z     vdW  Elec       q    Type
REMARK                         _______ _______ _______ _____ _____    ______ ____
ROOT
ATOM      1  S   UNL     1      33.407 -13.698 -24.896  0.00  0.00    -0.087 S 
ENDROOT
BRANCH   1   7
ATOM      2  N   UNL     1      35.171 -18.065 -22.508  0.00  0.00    -0.302 N 
ATOM      3  N   UNL     1      35.276 -17.183 -20.470  0.00  0.00    -0.302 N 
ATOM      4  C   UNL     1      34.751 -16.767 -22.648  0.00  0.00    +0.061 C 
ATOM      5  C   UNL     1      34.826 -16.238 -21.362  0.00  0.00    +0.060 C 
ATOM      6  C   UNL     1      34.326 -16.032 -23.755  0.00  0.00    +0.022 C 
ATOM      7  C   UNL     1      33.964 -14.700 -23.526  0.00  0.00    +0.031 C 
ATOM      8  C   UNL     1      34.459 -14.898 -21.151  0.00  0.00    +0.016 C 
ATOM      9  C   UNL     1      35.473 -18.265 -21.190  0.00  0.00    +0.229 C 
ATOM     10  C   UNL     1      34.028 -14.142 -22.247  0.00  0.00    +0.008 C 
ATOM     11  H   UNL     1      35.241 -18.733 -23.228  0.00  0.00    +0.150 HD
ATOM     12  H   UNL     1      35.421 -17.073 -19.502  0.00  0.00    +0.150 HD
BRANCH   9  14
ATOM     13  O   UNL     1      33.939 -20.587 -20.141  0.00  0.00    -0.226 OA
ATOM     14  N   UNL     1      35.923 -19.487 -20.761  0.00  0.00    -0.240 N 
ATOM     15  C   UNL     1      35.156 -20.548 -20.275  0.00  0.00    +0.404 C 
ATOM     16  H   UNL     1      36.895 -19.633 -20.801  0.00  0.00    +0.156 HD
BRANCH  15  17
ATOM     17  O   UNL     1      35.981 -21.593 -19.953  0.00  0.00    -0.431 OA
ATOM     18  C   UNL     1      36.505 -21.595 -18.620  0.00  0.00    +0.257 C 
ENDBRANCH  15  17
ENDBRANCH   9  14
ENDBRANCH   1   7
BRANCH   1  19
ATOM     19  C   UNL     1      33.231 -12.105 -24.110  0.00  0.00    +0.030 C 
ATOM     20  C   UNL     1      32.963  -9.621 -22.879  0.00  0.00    +0.050 C 
ATOM     21  C   UNL     1      33.921  -9.806 -23.875  0.00  0.00    +0.015 C 
ATOM     22  C   UNL     1      32.138 -10.680 -22.499  0.00  0.00    +0.015 C 
ATOM     23  C   UNL     1      34.056 -11.049 -24.491  0.00  0.00    +0.008 C 
ATOM     24  C   UNL     1      32.272 -11.924 -23.116  0.00  0.00    +0.008 C 
BRANCH  20  26
ATOM     25  O   UNL     1      30.888  -7.485 -23.242  0.00  0.00    -0.277 OA
ATOM     26  N   UNL     1      32.830  -8.377 -22.261  0.00  0.00    -0.286 N 
ATOM     27  C   UNL     1      31.833  -7.408 -22.461  0.00  0.00    +0.206 C 
ATOM     28  H   UNL     1      33.524  -8.149 -21.600  0.00  0.00    +0.155 HD
BRANCH  27  29
ATOM     29  C   UNL     1      32.049  -6.177 -21.586  0.00  0.00    +0.013 C 
ATOM     30  C   UNL     1      32.392  -6.557 -20.149  0.00  0.00    -0.015 C 
BRANCH  29  31
ATOM     31  N   UNL     1      30.800  -5.419 -21.610  0.00  0.00    +0.387 N 
ATOM     32  H   UNL     1      30.381  -5.424 -20.680  0.00  0.00    -0.089 HD
ATOM     33  H   UNL     1      30.155  -5.847 -22.275  0.00  0.00    -0.089 HD
ATOM     34  H   UNL     1      30.991  -4.458 -21.892  0.00  0.00    -0.089 HD
ENDBRANCH  29  31
ENDBRANCH  27  29
ENDBRANCH  20  26
ENDBRANCH   1  19
TORSDOF 7
ENDMDL
MODEL 9
REMARK VINA RESULT:      -9.4      1.695     10.265
REMARK  Name = 11661758
REMARK  7 active torsions:
REMARK  status: ('A' for Active; 'I' for Inactive)
REMARK    1  A    between atoms: S_1  and  C_9
REMARK    2  A    between atoms: S_1  and  C_19
REMARK    3  A    between atoms: N_5  and  C_11
REMARK    4  A    between atoms: C_13  and  O_17
REMARK    5  A    between atoms: C_20  and  N_26
REMARK    6  A    between atoms: C_27  and  C_29
REMARK    7  A    between atoms: C_29  and  N_31
REMARK                            x       y       z     vdW  Elec       q    Type
REMARK                         _______ _______ _______ _____ _____    ______ ____
ROOT
ATOM      1  S   UNL     1      35.551 -18.383 -23.146  0.00  0.00    -0.087 S 
ENDROOT
BRANCH   1   7
ATOM      2  N   UNL     1      33.571 -13.508 -23.582  0.00  0.00    -0.302 N 
ATOM      3  N   UNL     1      32.632 -13.463 -21.568  0.00  0.00    -0.302 N 
ATOM      4  C   UNL     1      33.857 -14.724 -23.018  0.00  0.00    +0.061 C 
ATOM      5  C   UNL     1      33.260 -14.671 -21.761  0.00  0.00    +0.060 C 
ATOM      6  C   UNL     1      34.564 -15.833 -23.483  0.00  0.00    +0.022 C 
ATOM      7  C   UNL     1      34.659 -16.929 -22.618  0.00  0.00    +0.031 C 
ATOM      8  C   UNL     1      33.364 -15.782 -20.906  0.00  0.00    +0.016 C 
ATOM      9  C   UNL     1      32.838 -12.790 -22.679  0.00  0.00    +0.229 C 
ATOM     10  C   UNL     1      34.071 -16.905 -21.352  0.00  0.00    +0.008 C 
ATOM     11  H   UNL     1      33.845 -13.206 -24.479  0.00  0.00    +0.150 HD
ATOM     12  H   UNL     1      32.135 -13.166 -20.772  0.00  0.00    +0.150 HD
BRANCH   9  14
ATOM     13  O   UNL     1      34.317 -10.549 -23.956  0.00  0.00    -0.226 OA
ATOM     14  N   UNL     1      32.411 -11.524 -22.984  0.00  0.00    -0.240 N 
ATOM     15  C   UNL     1      33.150 -10.504 -23.586  0.00  0.00    +0.404 C 
ATOM     16  H   UNL     1      31.478 -11.310 -22.753  0.00  0.00    +0.156 HD
BRANCH  15  17
ATOM     17  O   UNL     1      32.361  -9.392 -23.719  0.00  0.00    -0.431 OA
ATOM     18  C   UNL     1      31.436  -9.144 -22.655  0.00  0.00    +0.257 C 
ENDBRANCH  15  17
ENDBRANCH   9  14
ENDBRANCH   1   7
BRANCH   1  19
ATOM     19  C   UNL     1      35.302 -19.468 -21.750  0.00  0.00    +0.030 C 
ATOM     20  C   UNL     1      34.912 -21.153 -19.567  0.00  0.00    +0.050 C 
ATOM     21  C   UNL     1      33.823 -20.749 -20.340  0.00  0.00    +0.015 C 
ATOM     22  C   UNL     1      36.196 -20.714 -19.888  0.00  0.00    +0.015 C 
ATOM     23  C   UNL     1      34.019 -19.905 -21.433  0.00  0.00    +0.008 C 
ATOM     24  C   UNL     1      36.392 -19.870 -20.981  0.00  0.00    +0.008 C 
BRANCH  20  26
ATOM     25  O   UNL     1      32.401 -22.415 -18.515  0.00  0.00    -0.277 OA
ATOM     26  N   UNL     1      34.715 -21.996 -18.473  0.00  0.00    -0.286 N 
ATOM     27  C   UNL     1      33.514 -22.569 -18.020  0.00  0.00    +0.206 C 
ATOM     28  H   UNL     1      35.520 -22.217 -17.950  0.00  0.00    +0.155 HD
BRANCH  27  29
ATOM     29  C   UNL     1      33.726 -23.434 -16.781  0.00  0.00    +0.013 C 
ATOM     30  C   UNL     1      32.537 -23.361 -15.830  0.00  0.00    -0.015 C 
BRANCH  29  31
ATOM     31  N   UNL     1      34.923 -22.925 -16.113  0.00  0.00    +0.387 N 
ATOM     32  H   UNL     1      35.357 -23.676 -15.577  0.00  0.00    -0.089 HD
ATOM     33  H   UNL     1      34.664 -22.164 -15.484  0.00  0.00    -0.089 HD
ATOM     34  H   UNL     1      35.581 -22.581 -16.812  0.00  0.00    -0.089 HD
ENDBRANCH  29  31
ENDBRANCH  27  29
ENDBRANCH  20  26
ENDBRANCH   1  19
TORSDOF 7
ENDMDL
