MODEL 1
REMARK VINA RESULT:     -11.8      0.000      0.000
REMARK  Name = 11315474
REMARK  6 active torsions:
REMARK  status: ('A' for Active; 'I' for Inactive)
REMARK    1  A    between atoms: N_2  and  C_25
REMARK    2  A    between atoms: C_3  and  C_6
REMARK    3  A    between atoms: N_11  and  C_13
REMARK    4  A    between atoms: C_13  and  C_15
REMARK    5  A    between atoms: C_20  and  C_26
REMARK    6  A    between atoms: C_26  and  C_32
REMARK                            x       y       z     vdW  Elec       q    Type
REMARK                         _______ _______ _______ _____ _____    ______ ____
ROOT
ATOM      1  O   UNL     1      34.978 -15.115 -22.128  0.00  0.00    -0.270 OA
ATOM      2  N   UNL     1      33.556 -14.418 -23.865  0.00  0.00    -0.280 N 
ATOM      3  C   UNL     1      34.366 -15.324 -23.170  0.00  0.00    +0.252 C 
ATOM      4  H   UNL     1      33.138 -14.757 -24.690  0.00  0.00    +0.155 HD
ENDROOT
BRANCH   3   6
ATOM      5  N   UNL     1      35.157 -18.961 -23.650  0.00  0.00    -0.229 NA
ATOM      6  C   UNL     1      34.504 -16.666 -23.796  0.00  0.00    +0.085 C 
ATOM      7  C   UNL     1      35.019 -17.731 -23.107  0.00  0.00    +0.133 C 
ATOM      8  C   UNL     1      34.097 -16.820 -25.101  0.00  0.00    +0.009 C 
ATOM      9  C   UNL     1      34.223 -18.071 -25.695  0.00  0.00    +0.021 C 
ATOM     10  C   UNL     1      34.753 -19.100 -24.933  0.00  0.00    +0.100 C 
ATOM     11  N   UNL     1      35.433 -17.554 -21.762  0.00  0.00    -0.314 N 
ATOM     12  H   UNL     1      35.339 -16.664 -21.353  0.00  0.00    +0.149 HD
BRANCH  11  13
ATOM     13  C   UNL     1      35.980 -18.614 -20.979  0.00  0.00    +0.115 C 
BRANCH  13  15
ATOM     14  N   UNL     1      32.912 -21.396 -19.873  0.00  0.00    -0.242 NA
ATOM     15  C   UNL     1      34.904 -19.590 -20.591  0.00  0.00    +0.000 C 
ATOM     16  C   UNL     1      35.251 -20.798 -20.012  0.00  0.00    +0.018 C 
ATOM     17  C   UNL     1      33.575 -19.271 -20.817  0.00  0.00    +0.018 C 
ATOM     18  C   UNL     1      34.222 -21.663 -19.673  0.00  0.00    +0.099 C 
ATOM     19  C   UNL     1      32.623 -20.204 -20.442  0.00  0.00    +0.099 C 
ENDBRANCH  13  15
ENDBRANCH  11  13
ENDBRANCH   3   6
BRANCH   2  25
ATOM     20  C   UNL     1      32.689 -10.445 -22.870  0.00  0.00    -0.010 C 
ATOM     21  C   UNL     1      32.036 -11.488 -22.211  0.00  0.00    -0.002 C 
ATOM     22  C   UNL     1      33.631 -10.727 -23.860  0.00  0.00    -0.002 C 
ATOM     23  C   UNL     1      32.325 -12.812 -22.544  0.00  0.00    +0.014 C 
ATOM     24  C   UNL     1      33.920 -12.051 -24.191  0.00  0.00    +0.014 C 
ATOM     25  C   UNL     1      33.267 -13.094 -23.533  0.00  0.00    +0.051 C 
BRANCH  20  26
ATOM     26  C   UNL     1      32.373  -8.998 -22.506  0.00  0.00    +0.098 C 
ATOM     27  C   UNL     1      31.086  -8.455 -23.167  0.00  0.00    +0.018 C 
ATOM     28  C   UNL     1      33.405  -7.982 -23.042  0.00  0.00    +0.018 C 
ATOM     29  C   UNL     1      31.204  -6.933 -23.127  0.00  0.00    +0.001 C 
ATOM     30  C   UNL     1      32.697  -6.628 -23.053  0.00  0.00    +0.001 C 
BRANCH  26  32
ATOM     31  N   UNL     1      32.191  -8.801 -19.877  0.00  0.00    -0.196 NA
ATOM     32  C   UNL     1      32.271  -8.888 -21.030  0.00  0.00    +0.075 C 
ENDBRANCH  26  32
ENDBRANCH  20  26
ENDBRANCH   2  25
TORSDOF 6
ENDMDL
MODEL 2
REMARK VINA RESULT:     -11.8      0.011      1.231
REMARK  Name = 11315474
REMARK  6 active torsions:
REMARK  status: ('A' for Active; 'I' for Inactive)
REMARK    1  A    between atoms: N_2  and  C_25
REMARK    2  A    between atoms: C_3  and  C_6
REMARK    3  A    between atoms: N_11  and  C_13
REMARK    4  A    between atoms: C_13  and  C_15
REMARK    5  A    between atoms: C_20  and  C_26
REMARK    6  A    between atoms: C_26  and  C_32
REMARK                            x       y       z     vdW  Elec       q    Type
REMARK                         _______ _______ _______ _____ _____    ______ ____
ROOT
ATOM      1  O   UNL     1      34.973 -15.117 -22.120  0.00  0.00    -0.270 OA
ATOM      2  N   UNL     1      33.557 -14.417 -23.861  0.00  0.00    -0.280 N 
ATOM      3  C   UNL     1      34.365 -15.325 -23.165  0.00  0.00    +0.252 C 
ATOM      4  H   UNL     1      33.142 -14.754 -24.687  0.00  0.00    +0.155 HD
ENDROOT
BRANCH   3   6
ATOM      5  N   UNL     1      35.159 -18.960 -23.648  0.00  0.00    -0.229 NA
ATOM      6  C   UNL     1      34.504 -16.666 -23.792  0.00  0.00    +0.085 C 
ATOM      7  C   UNL     1      35.021 -17.731 -23.104  0.00  0.00    +0.133 C 
ATOM      8  C   UNL     1      34.096 -16.819 -25.096  0.00  0.00    +0.009 C 
ATOM      9  C   UNL     1      34.223 -18.070 -25.692  0.00  0.00    +0.021 C 
ATOM     10  C   UNL     1      34.755 -19.099 -24.931  0.00  0.00    +0.100 C 
ATOM     11  N   UNL     1      35.435 -17.554 -21.760  0.00  0.00    -0.314 N 
ATOM     12  H   UNL     1      35.340 -16.665 -21.349  0.00  0.00    +0.149 HD
BRANCH  11  13
ATOM     13  C   UNL     1      35.984 -18.615 -20.978  0.00  0.00    +0.115 C 
BRANCH  13  15
ATOM     14  N   UNL     1      32.923 -21.405 -19.874  0.00  0.00    -0.242 NA
ATOM     15  C   UNL     1      34.909 -19.593 -20.591  0.00  0.00    +0.000 C 
ATOM     16  C   UNL     1      33.581 -19.278 -20.818  0.00  0.00    +0.018 C 
ATOM     17  C   UNL     1      35.260 -20.800 -20.010  0.00  0.00    +0.018 C 
ATOM     18  C   UNL     1      32.630 -20.214 -20.443  0.00  0.00    +0.099 C 
ATOM     19  C   UNL     1      34.234 -21.667 -19.671  0.00  0.00    +0.099 C 
ENDBRANCH  13  15
ENDBRANCH  11  13
ENDBRANCH   3   6
BRANCH   2  25
ATOM     20  C   UNL     1      32.690 -10.446 -22.860  0.00  0.00    -0.010 C 
ATOM     21  C   UNL     1      33.629 -10.726 -23.853  0.00  0.00    -0.002 C 
ATOM     22  C   UNL     1      32.040 -11.490 -22.200  0.00  0.00    -0.002 C 
ATOM     23  C   UNL     1      33.918 -12.050 -24.186  0.00  0.00    +0.014 C 
ATOM     24  C   UNL     1      32.329 -12.813 -22.534  0.00  0.00    +0.014 C 
ATOM     25  C   UNL     1      33.268 -13.093 -23.528  0.00  0.00    +0.051 C 
BRANCH  20  26
ATOM     26  C   UNL     1      32.374  -8.998 -22.495  0.00  0.00    +0.098 C 
ATOM     27  C   UNL     1      31.093  -8.452 -23.164  0.00  0.00    +0.018 C 
ATOM     28  C   UNL     1      33.412  -7.983 -23.021  0.00  0.00    +0.018 C 
ATOM     29  C   UNL     1      31.213  -6.930 -23.118  0.00  0.00    +0.001 C 
ATOM     30  C   UNL     1      32.706  -6.628 -23.033  0.00  0.00    +0.001 C 
BRANCH  26  32
ATOM     31  N   UNL     1      32.174  -8.809 -19.866  0.00  0.00    -0.196 NA
ATOM     32  C   UNL     1      32.262  -8.892 -21.020  0.00  0.00    +0.075 C 
ENDBRANCH  26  32
ENDBRANCH  20  26
ENDBRANCH   2  25
TORSDOF 6
ENDMDL
MODEL 3
REMARK VINA RESULT:     -11.5      5.830     10.078
REMARK  Name = 11315474
REMARK  6 active torsions:
REMARK  status: ('A' for Active; 'I' for Inactive)
REMARK    1  A    between atoms: N_2  and  C_25
REMARK    2  A    between atoms: C_3  and  C_6
REMARK    3  A    between atoms: N_11  and  C_13
REMARK    4  A    between atoms: C_13  and  C_15
REMARK    5  A    between atoms: C_20  and  C_26
REMARK    6  A    between atoms: C_26  and  C_32
REMARK                            x       y       z     vdW  Elec       q    Type
REMARK                         _______ _______ _______ _____ _____    ______ ____
ROOT
ATOM      1  O   UNL     1      34.716 -22.965 -17.286  0.00  0.00    -0.270 OA
ATOM      2  N   UNL     1      32.836 -21.933 -18.248  0.00  0.00    -0.280 N 
ATOM      3  C   UNL     1      33.507 -22.761 -17.340  0.00  0.00    +0.252 C 
ATOM      4  H   UNL     1      31.858 -21.885 -18.147  0.00  0.00    +0.155 HD
ENDROOT
BRANCH   3   6
ATOM      5  N   UNL     1      32.362 -24.587 -14.269  0.00  0.00    -0.229 NA
ATOM      6  C   UNL     1      32.640 -23.476 -16.367  0.00  0.00    +0.085 C 
ATOM      7  C   UNL     1      33.126 -23.934 -15.172  0.00  0.00    +0.133 C 
ATOM      8  C   UNL     1      31.319 -23.671 -16.695  0.00  0.00    +0.009 C 
ATOM      9  C   UNL     1      30.499 -24.339 -15.791  0.00  0.00    +0.021 C 
ATOM     10  C   UNL     1      31.064 -24.773 -14.602  0.00  0.00    +0.100 C 
ATOM     11  N   UNL     1      34.491 -23.723 -14.851  0.00  0.00    -0.314 N 
ATOM     12  H   UNL     1      35.061 -23.250 -15.498  0.00  0.00    +0.149 HD
BRANCH  11  13
ATOM     13  C   UNL     1      35.072 -24.172 -13.627  0.00  0.00    +0.115 C 
BRANCH  13  15
ATOM     14  N   UNL     1      38.439 -26.708 -14.403  0.00  0.00    -0.242 NA
ATOM     15  C   UNL     1      36.253 -25.062 -13.900  0.00  0.00    +0.000 C 
ATOM     16  C   UNL     1      36.218 -25.938 -14.970  0.00  0.00    +0.018 C 
ATOM     17  C   UNL     1      37.364 -24.996 -13.076  0.00  0.00    +0.018 C 
ATOM     18  C   UNL     1      37.332 -26.736 -15.178  0.00  0.00    +0.099 C 
ATOM     19  C   UNL     1      38.425 -25.836 -13.369  0.00  0.00    +0.099 C 
ENDBRANCH  13  15
ENDBRANCH  11  13
ENDBRANCH   3   6
BRANCH   2  25
ATOM     20  C   UNL     1      34.475 -19.636 -21.340  0.00  0.00    -0.010 C 
ATOM     21  C   UNL     1      33.116 -19.534 -21.041  0.00  0.00    -0.002 C 
ATOM     22  C   UNL     1      35.288 -20.503 -20.609  0.00  0.00    -0.002 C 
ATOM     23  C   UNL     1      32.570 -20.300 -20.010  0.00  0.00    +0.014 C 
ATOM     24  C   UNL     1      34.741 -21.268 -19.578  0.00  0.00    +0.014 C 
ATOM     25  C   UNL     1      33.382 -21.166 -19.279  0.00  0.00    +0.051 C 
BRANCH  20  26
ATOM     26  C   UNL     1      35.072 -18.798 -22.467  0.00  0.00    +0.098 C 
ATOM     27  C   UNL     1      34.476 -17.376 -22.571  0.00  0.00    +0.018 C 
ATOM     28  C   UNL     1      34.750 -19.334 -23.879  0.00  0.00    +0.018 C 
ATOM     29  C   UNL     1      34.781 -16.897 -23.988  0.00  0.00    +0.001 C 
ATOM     30  C   UNL     1      34.952 -18.157 -24.832  0.00  0.00    +0.001 C 
BRANCH  26  32
ATOM     31  N   UNL     1      37.690 -18.659 -22.126  0.00  0.00    -0.196 NA
ATOM     32  C   UNL     1      36.541 -18.720 -22.276  0.00  0.00    +0.075 C 
ENDBRANCH  26  32
ENDBRANCH  20  26
ENDBRANCH   2  25
TORSDOF 6
ENDMDL
MODEL 4
REMARK VINA RESULT:     -11.5      5.830     10.086
REMARK  Name = 11315474
REMARK  6 active torsions:
REMARK  status: ('A' for Active; 'I' for Inactive)
REMARK    1  A    between atoms: N_2  and  C_25
REMARK    2  A    between atoms: C_3  and  C_6
REMARK    3  A    between atoms: N_11  and  C_13
REMARK    4  A    between atoms: C_13  and  C_15
REMARK    5  A    between atoms: C_20  and  C_26
REMARK    6  A    between atoms: C_26  and  C_32
REMARK                            x       y       z     vdW  Elec       q    Type
REMARK                         _______ _______ _______ _____ _____    ______ ____
ROOT
ATOM      1  O   UNL     1      34.724 -22.967 -17.270  0.00  0.00    -0.270 OA
ATOM      2  N   UNL     1      32.842 -21.946 -18.240  0.00  0.00    -0.280 N 
ATOM      3  C   UNL     1      33.514 -22.770 -17.329  0.00  0.00    +0.252 C 
ATOM      4  H   UNL     1      31.863 -21.903 -18.142  0.00  0.00    +0.155 HD
ENDROOT
BRANCH   3   6
ATOM      5  N   UNL     1      32.372 -24.616 -14.268  0.00  0.00    -0.229 NA
ATOM      6  C   UNL     1      32.648 -23.488 -16.358  0.00  0.00    +0.085 C 
ATOM      7  C   UNL     1      33.136 -23.959 -15.169  0.00  0.00    +0.133 C 
ATOM      8  C   UNL     1      31.324 -23.674 -16.682  0.00  0.00    +0.009 C 
ATOM      9  C   UNL     1      30.504 -24.345 -15.780  0.00  0.00    +0.021 C 
ATOM     10  C   UNL     1      31.072 -24.792 -14.597  0.00  0.00    +0.100 C 
ATOM     11  N   UNL     1      34.503 -23.758 -14.852  0.00  0.00    -0.314 N 
ATOM     12  H   UNL     1      35.073 -23.282 -15.497  0.00  0.00    +0.149 HD
BRANCH  11  13
ATOM     13  C   UNL     1      35.087 -24.220 -13.634  0.00  0.00    +0.115 C 
BRANCH  13  15
ATOM     14  N   UNL     1      38.502 -26.679 -14.445  0.00  0.00    -0.242 NA
ATOM     15  C   UNL     1      36.285 -25.082 -13.918  0.00  0.00    +0.000 C 
ATOM     16  C   UNL     1      37.425 -24.947 -13.145  0.00  0.00    +0.018 C 
ATOM     17  C   UNL     1      36.237 -26.003 -14.951  0.00  0.00    +0.018 C 
ATOM     18  C   UNL     1      38.502 -25.766 -13.448  0.00  0.00    +0.099 C 
ATOM     19  C   UNL     1      37.367 -26.773 -15.173  0.00  0.00    +0.099 C 
ENDBRANCH  13  15
ENDBRANCH  11  13
ENDBRANCH   3   6
BRANCH   2  25
ATOM     20  C   UNL     1      34.478 -19.641 -21.327  0.00  0.00    -0.010 C 
ATOM     21  C   UNL     1      35.292 -20.508 -20.598  0.00  0.00    -0.002 C 
ATOM     22  C   UNL     1      33.119 -19.541 -21.027  0.00  0.00    -0.002 C 
ATOM     23  C   UNL     1      34.746 -21.276 -19.569  0.00  0.00    +0.014 C 
ATOM     24  C   UNL     1      32.574 -20.310 -19.998  0.00  0.00    +0.014 C 
ATOM     25  C   UNL     1      33.387 -21.178 -19.269  0.00  0.00    +0.051 C 
BRANCH  20  26
ATOM     26  C   UNL     1      35.075 -18.801 -22.453  0.00  0.00    +0.098 C 
ATOM     27  C   UNL     1      34.481 -17.378 -22.551  0.00  0.00    +0.018 C 
ATOM     28  C   UNL     1      34.749 -19.331 -23.866  0.00  0.00    +0.018 C 
ATOM     29  C   UNL     1      34.785 -16.894 -23.967  0.00  0.00    +0.001 C 
ATOM     30  C   UNL     1      34.951 -18.151 -24.815  0.00  0.00    +0.001 C 
BRANCH  26  32
ATOM     31  N   UNL     1      37.693 -18.668 -22.117  0.00  0.00    -0.196 NA
ATOM     32  C   UNL     1      36.544 -18.726 -22.264  0.00  0.00    +0.075 C 
ENDBRANCH  26  32
ENDBRANCH  20  26
ENDBRANCH   2  25
TORSDOF 6
ENDMDL
MODEL 5
REMARK VINA RESULT:     -11.0      6.090     10.005
REMARK  Name = 11315474
REMARK  6 active torsions:
REMARK  status: ('A' for Active; 'I' for Inactive)
REMARK    1  A    between atoms: N_2  and  C_25
REMARK    2  A    between atoms: C_3  and  C_6
REMARK    3  A    between atoms: N_11  and  C_13
REMARK    4  A    between atoms: C_13  and  C_15
REMARK    5  A    between atoms: C_20  and  C_26
REMARK    6  A    between atoms: C_26  and  C_32
REMARK                            x       y       z     vdW  Elec       q    Type
REMARK                         _______ _______ _______ _____ _____    ______ ____
ROOT
ATOM      1  O   UNL     1      37.291 -21.309 -16.115  0.00  0.00    -0.270 OA
ATOM      2  N   UNL     1      36.020 -22.600 -17.614  0.00  0.00    -0.280 N 
ATOM      3  C   UNL     1      36.757 -22.363 -16.446  0.00  0.00    +0.252 C 
ATOM      4  H   UNL     1      35.661 -23.511 -17.719  0.00  0.00    +0.155 HD
ENDROOT
BRANCH   3   6
ATOM      5  N   UNL     1      35.984 -25.076 -13.972  0.00  0.00    -0.229 NA
ATOM      6  C   UNL     1      36.915 -23.533 -15.543  0.00  0.00    +0.085 C 
ATOM      7  C   UNL     1      35.870 -24.016 -14.802  0.00  0.00    +0.133 C 
ATOM      8  C   UNL     1      38.151 -24.131 -15.464  0.00  0.00    +0.009 C 
ATOM      9  C   UNL     1      38.309 -25.226 -14.620  0.00  0.00    +0.021 C 
ATOM     10  C   UNL     1      37.204 -25.656 -13.903  0.00  0.00    +0.100 C 
ATOM     11  N   UNL     1      34.603 -23.386 -14.896  0.00  0.00    -0.314 N 
ATOM     12  H   UNL     1      34.503 -22.613 -15.496  0.00  0.00    +0.149 HD
BRANCH  11  13
ATOM     13  C   UNL     1      33.466 -23.830 -14.156  0.00  0.00    +0.115 C 
BRANCH  13  15
ATOM     14  N   UNL     1      29.845 -22.706 -16.154  0.00  0.00    -0.242 NA
ATOM     15  C   UNL     1      32.196 -23.436 -14.856  0.00  0.00    +0.000 C 
ATOM     16  C   UNL     1      31.031 -23.277 -14.126  0.00  0.00    +0.018 C 
ATOM     17  C   UNL     1      32.203 -23.235 -16.227  0.00  0.00    +0.018 C 
ATOM     18  C   UNL     1      29.887 -22.913 -14.819  0.00  0.00    +0.099 C 
ATOM     19  C   UNL     1      31.007 -22.873 -16.825  0.00  0.00    +0.099 C 
ENDBRANCH  13  15
ENDBRANCH  11  13
ENDBRANCH   3   6
BRANCH   2  25
ATOM     20  C   UNL     1      35.160 -19.917 -20.709  0.00  0.00    -0.010 C 
ATOM     21  C   UNL     1      36.475 -20.078 -20.270  0.00  0.00    -0.002 C 
ATOM     22  C   UNL     1      34.132 -20.651 -20.116  0.00  0.00    -0.002 C 
ATOM     23  C   UNL     1      36.761 -20.972 -19.238  0.00  0.00    +0.014 C 
ATOM     24  C   UNL     1      34.419 -21.546 -19.085  0.00  0.00    +0.014 C 
ATOM     25  C   UNL     1      35.734 -21.706 -18.646  0.00  0.00    +0.051 C 
BRANCH  20  26
ATOM     26  C   UNL     1      34.847 -18.939 -21.838  0.00  0.00    +0.098 C 
ATOM     27  C   UNL     1      34.186 -19.599 -23.069  0.00  0.00    +0.018 C 
ATOM     28  C   UNL     1      36.101 -18.325 -22.496  0.00  0.00    +0.018 C 
ATOM     29  C   UNL     1      34.418 -18.637 -24.233  0.00  0.00    +0.001 C 
ATOM     30  C   UNL     1      35.654 -17.822 -23.867  0.00  0.00    +0.001 C 
BRANCH  26  32
ATOM     31  N   UNL     1      33.290 -17.023 -20.894  0.00  0.00    -0.196 NA
ATOM     32  C   UNL     1      33.973 -17.864 -21.308  0.00  0.00    +0.075 C 
ENDBRANCH  26  32
ENDBRANCH  20  26
ENDBRANCH   2  25
TORSDOF 6
ENDMDL
MODEL 6
REMARK VINA RESULT:     -10.5      2.017      9.187
REMARK  Name = 11315474
REMARK  6 active torsions:
REMARK  status: ('A' for Active; 'I' for Inactive)
REMARK    1  A    between atoms: N_2  and  C_25
REMARK    2  A    between atoms: C_3  and  C_6
REMARK    3  A    between atoms: N_11  and  C_13
REMARK    4  A    between atoms: C_13  and  C_15
REMARK    5  A    between atoms: C_20  and  C_26
REMARK    6  A    between atoms: C_26  and  C_32
REMARK                            x       y       z     vdW  Elec       q    Type
REMARK                         _______ _______ _______ _____ _____    ______ ____
ROOT
ATOM      1  O   UNL     1      33.436 -13.151 -25.358  0.00  0.00    -0.270 OA
ATOM      2  N   UNL     1      34.474 -13.173 -23.248  0.00  0.00    -0.280 N 
ATOM      3  C   UNL     1      33.948 -12.577 -24.401  0.00  0.00    +0.252 C 
ATOM      4  H   UNL     1      34.848 -12.558 -22.577  0.00  0.00    +0.155 HD
ENDROOT
BRANCH   3   6
ATOM      5  N   UNL     1      33.216  -8.934 -23.880  0.00  0.00    -0.229 NA
ATOM      6  C   UNL     1      34.056 -11.096 -24.460  0.00  0.00    +0.085 C 
ATOM      7  C   UNL     1      33.143 -10.283 -23.843  0.00  0.00    +0.133 C 
ATOM      8  C   UNL     1      35.108 -10.548 -25.157  0.00  0.00    +0.009 C 
ATOM      9  C   UNL     1      35.217  -9.162 -25.218  0.00  0.00    +0.021 C 
ATOM     10  C   UNL     1      34.254  -8.407 -24.567  0.00  0.00    +0.100 C 
ATOM     11  N   UNL     1      32.066 -10.866 -23.129  0.00  0.00    -0.314 N 
ATOM     12  H   UNL     1      31.999 -11.847 -23.093  0.00  0.00    +0.149 HD
BRANCH  11  13
ATOM     13  C   UNL     1      31.074 -10.087 -22.461  0.00  0.00    +0.115 C 
BRANCH  13  15
ATOM     14  N   UNL     1      31.911  -9.873 -18.263  0.00  0.00    -0.242 NA
ATOM     15  C   UNL     1      31.368 -10.012 -20.989  0.00  0.00    +0.000 C 
ATOM     16  C   UNL     1      31.997  -8.893 -20.471  0.00  0.00    +0.018 C 
ATOM     17  C   UNL     1      31.006 -11.063 -20.163  0.00  0.00    +0.018 C 
ATOM     18  C   UNL     1      32.245  -8.872 -19.108  0.00  0.00    +0.099 C 
ATOM     19  C   UNL     1      31.299 -10.945 -18.815  0.00  0.00    +0.099 C 
ENDBRANCH  13  15
ENDBRANCH  11  13
ENDBRANCH   3   6
BRANCH   2  25
ATOM     20  C   UNL     1      34.654 -17.247 -22.305  0.00  0.00    -0.010 C 
ATOM     21  C   UNL     1      34.473 -16.304 -21.293  0.00  0.00    -0.002 C 
ATOM     22  C   UNL     1      34.776 -16.832 -23.632  0.00  0.00    -0.002 C 
ATOM     23  C   UNL     1      34.413 -14.946 -21.608  0.00  0.00    +0.014 C 
ATOM     24  C   UNL     1      34.715 -15.474 -23.945  0.00  0.00    +0.014 C 
ATOM     25  C   UNL     1      34.534 -14.531 -22.933  0.00  0.00    +0.051 C 
BRANCH  20  26
ATOM     26  C   UNL     1      34.720 -18.732 -21.961  0.00  0.00    +0.098 C 
ATOM     27  C   UNL     1      33.519 -19.233 -21.127  0.00  0.00    +0.018 C 
ATOM     28  C   UNL     1      35.883 -19.102 -21.014  0.00  0.00    +0.018 C 
ATOM     29  C   UNL     1      33.982 -20.527 -20.461  0.00  0.00    +0.001 C 
ATOM     30  C   UNL     1      35.502 -20.440 -20.383  0.00  0.00    +0.001 C 
BRANCH  26  32
ATOM     31  N   UNL     1      34.904 -20.117 -24.205  0.00  0.00    -0.196 NA
ATOM     32  C   UNL     1      34.823 -19.510 -23.220  0.00  0.00    +0.075 C 
ENDBRANCH  26  32
ENDBRANCH  20  26
ENDBRANCH   2  25
TORSDOF 6
ENDMDL
MODEL 7
REMARK VINA RESULT:     -10.3      3.933      7.362
REMARK  Name = 11315474
REMARK  6 active torsions:
REMARK  status: ('A' for Active; 'I' for Inactive)
REMARK    1  A    between atoms: N_2  and  C_25
REMARK    2  A    between atoms: C_3  and  C_6
REMARK    3  A    between atoms: N_11  and  C_13
REMARK    4  A    between atoms: C_13  and  C_15
REMARK    5  A    between atoms: C_20  and  C_26
REMARK    6  A    between atoms: C_26  and  C_32
REMARK                            x       y       z     vdW  Elec       q    Type
REMARK                         _______ _______ _______ _____ _____    ______ ____
ROOT
ATOM      1  O   UNL     1      32.658 -10.119 -23.939  0.00  0.00    -0.270 OA
ATOM      2  N   UNL     1      32.559  -8.030 -22.862  0.00  0.00    -0.280 N 
ATOM      3  C   UNL     1      32.486  -9.427 -22.940  0.00  0.00    +0.252 C 
ATOM      4  H   UNL     1      32.393  -7.638 -21.975  0.00  0.00    +0.155 HD
ENDROOT
BRANCH   3   6
ATOM      5  N   UNL     1      31.841 -12.139 -20.428  0.00  0.00    -0.229 NA
ATOM      6  C   UNL     1      32.137 -10.119 -21.671  0.00  0.00    +0.085 C 
ATOM      7  C   UNL     1      32.153 -11.484 -21.568  0.00  0.00    +0.133 C 
ATOM      8  C   UNL     1      31.792  -9.349 -20.585  0.00  0.00    +0.009 C 
ATOM      9  C   UNL     1      31.463  -9.987 -19.393  0.00  0.00    +0.021 C 
ATOM     10  C   UNL     1      31.504 -11.372 -19.367  0.00  0.00    +0.100 C 
ATOM     11  N   UNL     1      32.512 -12.261 -22.698  0.00  0.00    -0.314 N 
ATOM     12  H   UNL     1      32.743 -11.799 -23.536  0.00  0.00    +0.149 HD
BRANCH  11  13
ATOM     13  C   UNL     1      32.552 -13.687 -22.670  0.00  0.00    +0.115 C 
BRANCH  13  15
ATOM     14  N   UNL     1      33.694 -15.231 -26.502  0.00  0.00    -0.242 NA
ATOM     15  C   UNL     1      32.953 -14.229 -24.014  0.00  0.00    +0.000 C 
ATOM     16  C   UNL     1      33.620 -15.439 -24.095  0.00  0.00    +0.018 C 
ATOM     17  C   UNL     1      32.651 -13.512 -25.160  0.00  0.00    +0.018 C 
ATOM     18  C   UNL     1      33.967 -15.894 -25.357  0.00  0.00    +0.099 C 
ATOM     19  C   UNL     1      33.042 -14.053 -26.373  0.00  0.00    +0.099 C 
ENDBRANCH  13  15
ENDBRANCH  11  13
ENDBRANCH   3   6
BRANCH   2  25
ATOM     20  C   UNL     1      33.400  -5.320 -25.939  0.00  0.00    -0.010 C 
ATOM     21  C   UNL     1      32.115  -5.387 -25.400  0.00  0.00    -0.002 C 
ATOM     22  C   UNL     1      34.405  -6.157 -25.453  0.00  0.00    -0.002 C 
ATOM     23  C   UNL     1      31.835  -6.291 -24.375  0.00  0.00    +0.014 C 
ATOM     24  C   UNL     1      34.125  -7.060 -24.427  0.00  0.00    +0.014 C 
ATOM     25  C   UNL     1      32.839  -7.127 -23.888  0.00  0.00    +0.051 C 
BRANCH  20  26
ATOM     26  C   UNL     1      33.706  -4.332 -27.061  0.00  0.00    +0.098 C 
ATOM     27  C   UNL     1      33.009  -4.670 -28.398  0.00  0.00    +0.018 C 
ATOM     28  C   UNL     1      35.183  -4.340 -27.512  0.00  0.00    +0.018 C 
ATOM     29  C   UNL     1      33.798  -3.934 -29.479  0.00  0.00    +0.001 C 
ATOM     30  C   UNL     1      35.199  -3.727 -28.911  0.00  0.00    +0.001 C 
BRANCH  26  32
ATOM     31  N   UNL     1      33.016  -1.906 -26.268  0.00  0.00    -0.196 NA
ATOM     32  C   UNL     1      33.319  -2.971 -26.616  0.00  0.00    +0.075 C 
ENDBRANCH  26  32
ENDBRANCH  20  26
ENDBRANCH   2  25
TORSDOF 6
ENDMDL
MODEL 8
REMARK VINA RESULT:      -9.9      3.895      7.422
REMARK  Name = 11315474
REMARK  6 active torsions:
REMARK  status: ('A' for Active; 'I' for Inactive)
REMARK    1  A    between atoms: N_2  and  C_25
REMARK    2  A    between atoms: C_3  and  C_6
REMARK    3  A    between atoms: N_11  and  C_13
REMARK    4  A    between atoms: C_13  and  C_15
REMARK    5  A    between atoms: C_20  and  C_26
REMARK    6  A    between atoms: C_26  and  C_32
REMARK                            x       y       z     vdW  Elec       q    Type
REMARK                         _______ _______ _______ _____ _____    ______ ____
ROOT
ATOM      1  O   UNL     1      33.302  -9.760 -23.514  0.00  0.00    -0.270 OA
ATOM      2  N   UNL     1      32.547  -7.641 -22.831  0.00  0.00    -0.280 N 
ATOM      3  C   UNL     1      32.774  -9.016 -22.694  0.00  0.00    +0.252 C 
ATOM      4  H   UNL     1      32.109  -7.198 -22.069  0.00  0.00    +0.155 HD
ENDROOT
BRANCH   3   6
ATOM      5  N   UNL     1      31.478 -11.507 -20.203  0.00  0.00    -0.229 NA
ATOM      6  C   UNL     1      32.294  -9.618 -21.422  0.00  0.00    +0.085 C 
ATOM      7  C   UNL     1      31.919 -10.933 -21.345  0.00  0.00    +0.133 C 
ATOM      8  C   UNL     1      32.233  -8.817 -20.306  0.00  0.00    +0.009 C 
ATOM      9  C   UNL     1      31.784  -9.371 -19.111  0.00  0.00    +0.021 C 
ATOM     10  C   UNL     1      31.423 -10.709 -19.113  0.00  0.00    +0.100 C 
ATOM     11  N   UNL     1      31.989 -11.744 -22.506  0.00  0.00    -0.314 N 
ATOM     12  H   UNL     1      32.308 -11.341 -23.345  0.00  0.00    +0.149 HD
BRANCH  11  13
ATOM     13  C   UNL     1      31.615 -13.121 -22.506  0.00  0.00    +0.115 C 
BRANCH  13  15
ATOM     14  N   UNL     1      35.097 -15.620 -22.567  0.00  0.00    -0.242 NA
ATOM     15  C   UNL     1      32.837 -13.998 -22.528  0.00  0.00    +0.000 C 
ATOM     16  C   UNL     1      33.391 -14.372 -23.740  0.00  0.00    +0.018 C 
ATOM     17  C   UNL     1      33.396 -14.423 -21.335  0.00  0.00    +0.018 C 
ATOM     18  C   UNL     1      34.516 -15.180 -23.705  0.00  0.00    +0.099 C 
ATOM     19  C   UNL     1      34.520 -15.229 -21.409  0.00  0.00    +0.099 C 
ENDBRANCH  13  15
ENDBRANCH  11  13
ENDBRANCH   3   6
BRANCH   2  25
ATOM     20  C   UNL     1      33.500  -5.184 -26.083  0.00  0.00    -0.010 C 
ATOM     21  C   UNL     1      32.228  -5.124 -25.512  0.00  0.00    -0.002 C 
ATOM     22  C   UNL     1      34.454  -6.064 -25.570  0.00  0.00    -0.002 C 
ATOM     23  C   UNL     1      31.911  -5.943 -24.428  0.00  0.00    +0.014 C 
ATOM     24  C   UNL     1      34.136  -6.882 -24.486  0.00  0.00    +0.014 C 
ATOM     25  C   UNL     1      32.864  -6.822 -23.915  0.00  0.00    +0.051 C 
BRANCH  20  26
ATOM     26  C   UNL     1      33.847  -4.289 -27.269  0.00  0.00    +0.098 C 
ATOM     27  C   UNL     1      33.126  -4.680 -28.578  0.00  0.00    +0.018 C 
ATOM     28  C   UNL     1      35.319  -4.399 -27.723  0.00  0.00    +0.018 C 
ATOM     29  C   UNL     1      33.943  -4.057 -29.708  0.00  0.00    +0.001 C 
ATOM     30  C   UNL     1      35.355  -3.881 -29.159  0.00  0.00    +0.001 C 
BRANCH  26  32
ATOM     31  N   UNL     1      33.279  -1.786 -26.637  0.00  0.00    -0.196 NA
ATOM     32  C   UNL     1      33.528  -2.884 -26.914  0.00  0.00    +0.075 C 
ENDBRANCH  26  32
ENDBRANCH  20  26
ENDBRANCH   2  25
TORSDOF 6
ENDMDL
MODEL 9
REMARK VINA RESULT:      -9.8      5.802      9.934
REMARK  Name = 11315474
REMARK  6 active torsions:
REMARK  status: ('A' for Active; 'I' for Inactive)
REMARK    1  A    between atoms: N_2  and  C_25
REMARK    2  A    between atoms: C_3  and  C_6
REMARK    3  A    between atoms: N_11  and  C_13
REMARK    4  A    between atoms: C_13  and  C_15
REMARK    5  A    between atoms: C_20  and  C_26
REMARK    6  A    between atoms: C_26  and  C_32
REMARK                            x       y       z     vdW  Elec       q    Type
REMARK                         _______ _______ _______ _____ _____    ______ ____
ROOT
ATOM      1  O   UNL     1      33.971 -22.800 -17.207  0.00  0.00    -0.270 OA
ATOM      2  N   UNL     1      36.068 -21.943 -17.837  0.00  0.00    -0.280 N 
ATOM      3  C   UNL     1      35.185 -22.700 -17.057  0.00  0.00    +0.252 C 
ATOM      4  H   UNL     1      37.015 -21.978 -17.573  0.00  0.00    +0.155 HD
ENDROOT
BRANCH   3   6
ATOM      5  N   UNL     1      35.581 -24.695 -13.903  0.00  0.00    -0.229 NA
ATOM      6  C   UNL     1      35.804 -23.429 -15.919  0.00  0.00    +0.085 C 
ATOM      7  C   UNL     1      35.045 -24.027 -14.949  0.00  0.00    +0.133 C 
ATOM      8  C   UNL     1      37.177 -23.493 -15.858  0.00  0.00    +0.009 C 
ATOM      9  C   UNL     1      37.766 -24.173 -14.796  0.00  0.00    +0.021 C 
ATOM     10  C   UNL     1      36.930 -24.752 -13.854  0.00  0.00    +0.100 C 
ATOM     11  N   UNL     1      33.631 -23.951 -15.029  0.00  0.00    -0.314 N 
ATOM     12  H   UNL     1      33.226 -23.468 -15.784  0.00  0.00    +0.149 HD
BRANCH  11  13
ATOM     13  C   UNL     1      32.773 -24.547 -14.057  0.00  0.00    +0.115 C 
BRANCH  13  15
ATOM     14  N   UNL     1      28.663 -23.957 -15.123  0.00  0.00    -0.242 NA
ATOM     15  C   UNL     1      31.331 -24.339 -14.431  0.00  0.00    +0.000 C 
ATOM     16  C   UNL     1      30.900 -23.087 -14.833  0.00  0.00    +0.018 C 
ATOM     17  C   UNL     1      30.448 -25.404 -14.370  0.00  0.00    +0.018 C 
ATOM     18  C   UNL     1      29.563 -22.949 -15.167  0.00  0.00    +0.099 C 
ATOM     19  C   UNL     1      29.131 -25.161 -14.724  0.00  0.00    +0.099 C 
ENDBRANCH  13  15
ENDBRANCH  11  13
ENDBRANCH   3   6
BRANCH   2  25
ATOM     20  C   UNL     1      35.174 -19.549 -21.153  0.00  0.00    -0.010 C 
ATOM     21  C   UNL     1      34.174 -20.320 -20.559  0.00  0.00    -0.002 C 
ATOM     22  C   UNL     1      36.473 -19.577 -20.642  0.00  0.00    -0.002 C 
ATOM     23  C   UNL     1      34.473 -21.118 -19.454  0.00  0.00    +0.014 C 
ATOM     24  C   UNL     1      36.770 -20.374 -19.536  0.00  0.00    +0.014 C 
ATOM     25  C   UNL     1      35.770 -21.145 -18.943  0.00  0.00    +0.051 C 
BRANCH  20  26
ATOM     26  C   UNL     1      34.848 -18.677 -22.362  0.00  0.00    +0.098 C 
ATOM     27  C   UNL     1      33.922 -19.360 -23.392  0.00  0.00    +0.018 C 
ATOM     28  C   UNL     1      36.070 -18.368 -23.255  0.00  0.00    +0.018 C 
ATOM     29  C   UNL     1      34.120 -18.600 -24.702  0.00  0.00    +0.001 C 
ATOM     30  C   UNL     1      35.505 -17.967 -24.616  0.00  0.00    +0.001 C 
BRANCH  26  32
ATOM     31  N   UNL     1      33.754 -16.425 -21.514  0.00  0.00    -0.196 NA
ATOM     32  C   UNL     1      34.234 -17.413 -21.886  0.00  0.00    +0.075 C 
ENDBRANCH  26  32
ENDBRANCH  20  26
ENDBRANCH   2  25
TORSDOF 6
ENDMDL
