MODEL 1
REMARK VINA RESULT:      -9.0      0.000      0.000
REMARK  Name = 31402
REMARK  2 active torsions:
REMARK  status: ('A' for Active; 'I' for Inactive)
REMARK    1  A    between atoms: C_10  and  C_21
REMARK    2  A    between atoms: C_19  and  O_23
REMARK                            x       y       z     vdW  Elec       q    Type
REMARK                         _______ _______ _______ _____ _____    ______ ____
ROOT
ATOM      1  C   UNL     1      34.982 -24.405 -13.981  0.00  0.00    +0.000 C 
ATOM      2  C   UNL     1      34.636 -23.256 -14.983  0.00  0.00    +0.000 C 
ATOM      3  C   UNL     1      33.336 -23.616 -15.712  0.00  0.00    +0.000 C 
ATOM      4  C   UNL     1      32.140 -23.798 -14.753  0.00  0.00    +0.007 C 
ATOM      5  C   UNL     1      36.335 -24.133 -13.218  0.00  0.00    +0.000 C 
ATOM      6  C   UNL     1      37.476 -23.875 -14.258  0.00  0.00    +0.002 C 
ATOM      7  C   UNL     1      33.783 -24.744 -13.056  0.00  0.00    +0.000 C 
ATOM      8  C   UNL     1      32.464 -24.971 -13.817  0.00  0.00    +0.000 C 
ATOM      9  C   UNL     1      35.783 -23.015 -15.973  0.00  0.00    +0.000 C 
ATOM     10  C   UNL     1      31.030 -24.085 -15.789  0.00  0.00    +0.058 C 
ATOM     11  C   UNL     1      32.794 -22.668 -16.776  0.00  0.00    +0.000 C 
ATOM     12  C   UNL     1      37.111 -22.770 -15.263  0.00  0.00    +0.000 C 
ATOM     13  C   UNL     1      36.754 -25.326 -12.310  0.00  0.00    +0.002 C 
ATOM     14  C   UNL     1      31.328 -23.106 -16.944  0.00  0.00    +0.007 C 
ATOM     15  C   UNL     1      37.902 -25.155 -15.007  0.00  0.00    +0.029 C 
ATOM     16  C   UNL     1      31.807 -22.537 -13.914  0.00  0.00    +0.000 C 
ATOM     17  C   UNL     1      36.207 -22.904 -12.281  0.00  0.00    +0.000 C 
ATOM     18  C   UNL     1      37.146 -26.582 -13.077  0.00  0.00    +0.029 C 
ATOM     19  C   UNL     1      38.273 -26.290 -14.059  0.00  0.00    +0.111 C 
ENDROOT
BRANCH  10  21
ATOM     20  O   UNL     1      29.138 -24.776 -14.511  0.00  0.00    -0.296 OA
ATOM     21  C   UNL     1      29.637 -23.937 -15.259  0.00  0.00    +0.151 C 
ATOM     22  C   UNL     1      28.880 -22.708 -15.684  0.00  0.00    +0.072 C 
ENDBRANCH  10  21
BRANCH  19  23
ATOM     23  O   UNL     1      38.550 -27.455 -14.829  0.00  0.00    -0.384 OA
ATOM     24  H   UNL     1      38.598 -28.226 -14.242  0.00  0.00    +0.210 HD
ENDBRANCH  19  23
TORSDOF 2
ENDMDL
MODEL 2
REMARK VINA RESULT:      -7.6     11.548     14.234
REMARK  Name = 31402
REMARK  2 active torsions:
REMARK  status: ('A' for Active; 'I' for Inactive)
REMARK    1  A    between atoms: C_10  and  C_21
REMARK    2  A    between atoms: C_19  and  O_23
REMARK                            x       y       z     vdW  Elec       q    Type
REMARK                         _______ _______ _______ _____ _____    ______ ____
ROOT
ATOM      1  C   UNL     1      34.041 -14.001 -23.824  0.00  0.00    +0.000 C 
ATOM      2  C   UNL     1      33.591 -15.322 -24.530  0.00  0.00    +0.000 C 
ATOM      3  C   UNL     1      34.586 -16.433 -24.171  0.00  0.00    +0.000 C 
ATOM      4  C   UNL     1      34.668 -16.699 -22.652  0.00  0.00    +0.007 C 
ATOM      5  C   UNL     1      33.093 -12.793 -24.177  0.00  0.00    +0.000 C 
ATOM      6  C   UNL     1      32.997 -12.644 -25.733  0.00  0.00    +0.002 C 
ATOM      7  C   UNL     1      34.273 -14.210 -22.304  0.00  0.00    +0.000 C 
ATOM      8  C   UNL     1      35.173 -15.416 -21.979  0.00  0.00    +0.000 C 
ATOM      9  C   UNL     1      33.486 -15.135 -26.048  0.00  0.00    +0.000 C 
ATOM     10  C   UNL     1      35.677 -17.869 -22.657  0.00  0.00    +0.058 C 
ATOM     11  C   UNL     1      34.389 -17.825 -24.763  0.00  0.00    +0.000 C 
ATOM     12  C   UNL     1      32.590 -13.958 -26.421  0.00  0.00    +0.000 C 
ATOM     13  C   UNL     1      33.600 -11.447 -23.582  0.00  0.00    +0.002 C 
ATOM     14  C   UNL     1      35.255 -18.729 -23.867  0.00  0.00    +0.007 C 
ATOM     15  C   UNL     1      34.294 -12.094 -26.361  0.00  0.00    +0.029 C 
ATOM     16  C   UNL     1      33.320 -17.129 -22.014  0.00  0.00    +0.000 C 
ATOM     17  C   UNL     1      31.672 -13.012 -23.594  0.00  0.00    +0.000 C 
ATOM     18  C   UNL     1      34.895 -10.942 -24.206  0.00  0.00    +0.029 C 
ATOM     19  C   UNL     1      34.748 -10.790 -25.715  0.00  0.00    +0.111 C 
ENDROOT
BRANCH  10  21
ATOM     20  O   UNL     1      36.243 -18.206 -20.365  0.00  0.00    -0.296 OA
ATOM     21  C   UNL     1      35.719 -18.655 -21.384  0.00  0.00    +0.151 C 
ATOM     22  C   UNL     1      35.084 -20.019 -21.411  0.00  0.00    +0.072 C 
ENDBRANCH  10  21
BRANCH  19  23
ATOM     23  O   UNL     1      35.998 -10.413 -26.281  0.00  0.00    -0.384 OA
ATOM     24  H   UNL     1      36.244 -11.047 -26.973  0.00  0.00    +0.210 HD
ENDBRANCH  19  23
TORSDOF 2
ENDMDL
MODEL 3
REMARK VINA RESULT:      -6.6     19.747     22.069
REMARK  Name = 31402
REMARK  2 active torsions:
REMARK  status: ('A' for Active; 'I' for Inactive)
REMARK    1  A    between atoms: C_10  and  C_21
REMARK    2  A    between atoms: C_19  and  O_23
REMARK                            x       y       z     vdW  Elec       q    Type
REMARK                         _______ _______ _______ _____ _____    ______ ____
ROOT
ATOM      1  C   UNL     1      32.594  -6.048 -24.135  0.00  0.00    +0.000 C 
ATOM      2  C   UNL     1      31.810  -4.753 -24.525  0.00  0.00    +0.000 C 
ATOM      3  C   UNL     1      32.784  -3.770 -25.186  0.00  0.00    +0.000 C 
ATOM      4  C   UNL     1      33.442  -4.341 -26.461  0.00  0.00    +0.007 C 
ATOM      5  C   UNL     1      31.672  -7.098 -23.408  0.00  0.00    +0.000 C 
ATOM      6  C   UNL     1      30.978  -6.419 -22.179  0.00  0.00    +0.002 C 
ATOM      7  C   UNL     1      33.393  -6.622 -25.335  0.00  0.00    +0.000 C 
ATOM      8  C   UNL     1      34.261  -5.573 -26.054  0.00  0.00    +0.000 C 
ATOM      9  C   UNL     1      31.126  -4.126 -23.305  0.00  0.00    +0.000 C 
ATOM     10  C   UNL     1      34.282  -3.113 -26.880  0.00  0.00    +0.058 C 
ATOM     11  C   UNL     1      32.272  -2.405 -25.633  0.00  0.00    +0.000 C 
ATOM     12  C   UNL     1      30.241  -5.126 -22.566  0.00  0.00    +0.000 C 
ATOM     13  C   UNL     1      32.466  -8.338 -22.903  0.00  0.00    +0.002 C 
ATOM     14  C   UNL     1      33.355  -1.909 -26.608  0.00  0.00    +0.007 C 
ATOM     15  C   UNL     1      31.956  -6.146 -21.017  0.00  0.00    +0.029 C 
ATOM     16  C   UNL     1      32.431  -4.729 -27.572  0.00  0.00    +0.000 C 
ATOM     17  C   UNL     1      30.586  -7.647 -24.371  0.00  0.00    +0.000 C 
ATOM     18  C   UNL     1      33.440  -8.033 -21.772  0.00  0.00    +0.029 C 
ATOM     19  C   UNL     1      32.719  -7.395 -20.591  0.00  0.00    +0.111 C 
ENDROOT
BRANCH  10  21
ATOM     20  O   UNL     1      34.214  -2.509 -29.186  0.00  0.00    -0.296 OA
ATOM     21  C   UNL     1      34.769  -3.151 -28.295  0.00  0.00    +0.151 C 
ATOM     22  C   UNL     1      35.973  -4.010 -28.573  0.00  0.00    +0.072 C 
ENDBRANCH  10  21
BRANCH  19  23
ATOM     23  O   UNL     1      33.666  -7.032 -19.593  0.00  0.00    -0.384 OA
ATOM     24  H   UNL     1      34.020  -6.149 -19.789  0.00  0.00    +0.210 HD
ENDBRANCH  19  23
TORSDOF 2
ENDMDL
MODEL 4
REMARK VINA RESULT:      -6.2      6.218      8.879
REMARK  Name = 31402
REMARK  2 active torsions:
REMARK  status: ('A' for Active; 'I' for Inactive)
REMARK    1  A    between atoms: C_10  and  C_21
REMARK    2  A    between atoms: C_19  and  O_23
REMARK                            x       y       z     vdW  Elec       q    Type
REMARK                         _______ _______ _______ _____ _____    ______ ____
ROOT
ATOM      1  C   UNL     1      34.425 -19.410 -21.010  0.00  0.00    +0.000 C 
ATOM      2  C   UNL     1      35.666 -20.264 -20.593  0.00  0.00    +0.000 C 
ATOM      3  C   UNL     1      35.410 -20.856 -19.202  0.00  0.00    +0.000 C 
ATOM      4  C   UNL     1      34.161 -21.763 -19.156  0.00  0.00    +0.007 C 
ATOM      5  C   UNL     1      34.625 -18.726 -22.416  0.00  0.00    +0.000 C 
ATOM      6  C   UNL     1      35.953 -17.896 -22.406  0.00  0.00    +0.002 C 
ATOM      7  C   UNL     1      33.102 -20.210 -20.871  0.00  0.00    +0.000 C 
ATOM      8  C   UNL     1      32.942 -20.899 -19.503  0.00  0.00    +0.000 C 
ATOM      9  C   UNL     1      36.951 -19.427 -20.616  0.00  0.00    +0.000 C 
ATOM     10  C   UNL     1      34.236 -22.217 -17.681  0.00  0.00    +0.058 C 
ATOM     11  C   UNL     1      36.491 -21.710 -18.549  0.00  0.00    +0.000 C 
ATOM     12  C   UNL     1      37.162 -18.735 -21.959  0.00  0.00    +0.000 C 
ATOM     13  C   UNL     1      33.450 -17.775 -22.786  0.00  0.00    +0.002 C 
ATOM     14  C   UNL     1      35.740 -22.463 -17.436  0.00  0.00    +0.007 C 
ATOM     15  C   UNL     1      35.850 -16.615 -21.554  0.00  0.00    +0.029 C 
ATOM     16  C   UNL     1      34.230 -22.980 -20.117  0.00  0.00    +0.000 C 
ATOM     17  C   UNL     1      34.691 -19.787 -23.546  0.00  0.00    +0.000 C 
ATOM     18  C   UNL     1      33.360 -16.531 -21.912  0.00  0.00    +0.029 C 
ATOM     19  C   UNL     1      34.664 -15.743 -21.951  0.00  0.00    +0.111 C 
ENDROOT
BRANCH  10  21
ATOM     20  O   UNL     1      33.826 -24.560 -17.520  0.00  0.00    -0.296 OA
ATOM     21  C   UNL     1      33.401 -23.417 -17.360  0.00  0.00    +0.151 C 
ATOM     22  C   UNL     1      32.018 -23.155 -16.827  0.00  0.00    +0.072 C 
ENDBRANCH  10  21
BRANCH  19  23
ATOM     23  O   UNL     1      34.585 -14.643 -21.051  0.00  0.00    -0.384 OA
ATOM     24  H   UNL     1      35.051 -13.881 -21.430  0.00  0.00    +0.210 HD
ENDBRANCH  19  23
TORSDOF 2
ENDMDL
MODEL 5
REMARK VINA RESULT:      -6.2     12.047     14.729
REMARK  Name = 31402
REMARK  2 active torsions:
REMARK  status: ('A' for Active; 'I' for Inactive)
REMARK    1  A    between atoms: C_10  and  C_21
REMARK    2  A    between atoms: C_19  and  O_23
REMARK                            x       y       z     vdW  Elec       q    Type
REMARK                         _______ _______ _______ _____ _____    ______ ____
ROOT
ATOM      1  C   UNL     1      32.396 -11.911 -21.060  0.00  0.00    +0.000 C 
ATOM      2  C   UNL     1      32.531 -12.416 -22.534  0.00  0.00    +0.000 C 
ATOM      3  C   UNL     1      33.721 -13.380 -22.615  0.00  0.00    +0.000 C 
ATOM      4  C   UNL     1      33.563 -14.609 -21.694  0.00  0.00    +0.007 C 
ATOM      5  C   UNL     1      31.218 -10.877 -20.898  0.00  0.00    +0.000 C 
ATOM      6  C   UNL     1      31.406  -9.708 -21.923  0.00  0.00    +0.002 C 
ATOM      7  C   UNL     1      32.359 -13.087 -20.048  0.00  0.00    +0.000 C 
ATOM      8  C   UNL     1      33.498 -14.104 -20.246  0.00  0.00    +0.000 C 
ATOM      9  C   UNL     1      32.692 -11.247 -23.512  0.00  0.00    +0.000 C 
ATOM     10  C   UNL     1      34.861 -15.364 -22.058  0.00  0.00    +0.058 C 
ATOM     11  C   UNL     1      34.090 -13.993 -23.961  0.00  0.00    +0.000 C 
ATOM     12  C   UNL     1      31.576 -10.217 -23.364  0.00  0.00    +0.000 C 
ATOM     13  C   UNL     1      31.152 -10.272 -19.465  0.00  0.00    +0.002 C 
ATOM     14  C   UNL     1      34.985 -15.188 -23.587  0.00  0.00    +0.007 C 
ATOM     15  C   UNL     1      32.573  -8.770 -21.550  0.00  0.00    +0.029 C 
ATOM     16  C   UNL     1      32.311 -15.472 -22.003  0.00  0.00    +0.000 C 
ATOM     17  C   UNL     1      29.845 -11.556 -21.142  0.00  0.00    +0.000 C 
ATOM     18  C   UNL     1      32.328  -9.369 -19.118  0.00  0.00    +0.029 C 
ATOM     19  C   UNL     1      32.459  -8.235 -20.127  0.00  0.00    +0.111 C 
ENDROOT
BRANCH  10  21
ATOM     20  O   UNL     1      35.018 -17.136 -20.470  0.00  0.00    -0.296 OA
ATOM     21  C   UNL     1      34.877 -16.803 -21.646  0.00  0.00    +0.151 C 
ATOM     22  C   UNL     1      34.706 -17.821 -22.740  0.00  0.00    +0.072 C 
ENDBRANCH  10  21
BRANCH  19  23
ATOM     23  O   UNL     1      33.622  -7.468 -19.834  0.00  0.00    -0.384 OA
ATOM     24  H   UNL     1      34.117  -7.893 -19.116  0.00  0.00    +0.210 HD
ENDBRANCH  19  23
TORSDOF 2
ENDMDL
MODEL 6
REMARK VINA RESULT:      -6.2      3.613      6.646
REMARK  Name = 31402
REMARK  2 active torsions:
REMARK  status: ('A' for Active; 'I' for Inactive)
REMARK    1  A    between atoms: C_10  and  C_21
REMARK    2  A    between atoms: C_19  and  O_23
REMARK                            x       y       z     vdW  Elec       q    Type
REMARK                         _______ _______ _______ _____ _____    ______ ____
ROOT
ATOM      1  C   UNL     1      34.438 -22.198 -18.207  0.00  0.00    +0.000 C 
ATOM      2  C   UNL     1      35.874 -22.554 -17.702  0.00  0.00    +0.000 C 
ATOM      3  C   UNL     1      35.906 -22.413 -16.175  0.00  0.00    +0.000 C 
ATOM      4  C   UNL     1      34.898 -23.342 -15.464  0.00  0.00    +0.007 C 
ATOM      5  C   UNL     1      34.330 -22.275 -19.777  0.00  0.00    +0.000 C 
ATOM      6  C   UNL     1      35.437 -21.374 -20.421  0.00  0.00    +0.002 C 
ATOM      7  C   UNL     1      33.345 -22.999 -17.451  0.00  0.00    +0.000 C 
ATOM      8  C   UNL     1      33.489 -22.939 -15.919  0.00  0.00    +0.000 C 
ATOM      9  C   UNL     1      36.934 -21.668 -18.367  0.00  0.00    +0.000 C 
ATOM     10  C   UNL     1      35.230 -22.994 -13.996  0.00  0.00    +0.058 C 
ATOM     11  C   UNL     1      37.212 -22.675 -15.433  0.00  0.00    +0.000 C 
ATOM     12  C   UNL     1      36.842 -21.706 -19.890  0.00  0.00    +0.000 C 
ATOM     13  C   UNL     1      32.942 -21.803 -20.301  0.00  0.00    +0.002 C 
ATOM     14  C   UNL     1      36.768 -22.876 -13.973  0.00  0.00    +0.007 C 
ATOM     15  C   UNL     1      35.149 -19.867 -20.257  0.00  0.00    +0.029 C 
ATOM     16  C   UNL     1      35.127 -24.851 -15.745  0.00  0.00    +0.000 C 
ATOM     17  C   UNL     1      34.503 -23.734 -20.275  0.00  0.00    +0.000 C 
ATOM     18  C   UNL     1      32.678 -20.316 -20.104  0.00  0.00    +0.029 C 
ATOM     19  C   UNL     1      33.766 -19.478 -20.765  0.00  0.00    +0.111 C 
ENDROOT
BRANCH  10  21
ATOM     20  O   UNL     1      33.513 -24.191 -12.852  0.00  0.00    -0.296 OA
ATOM     21  C   UNL     1      34.717 -23.983 -12.995  0.00  0.00    +0.151 C 
ATOM     22  C   UNL     1      35.748 -24.713 -12.178  0.00  0.00    +0.072 C 
ENDBRANCH  10  21
BRANCH  19  23
ATOM     23  O   UNL     1      33.546 -18.101 -20.481  0.00  0.00    -0.384 OA
ATOM     24  H   UNL     1      33.400 -17.987 -19.528  0.00  0.00    +0.210 HD
ENDBRANCH  19  23
TORSDOF 2
ENDMDL
MODEL 7
REMARK VINA RESULT:      -6.1     15.264     17.922
REMARK  Name = 31402
REMARK  2 active torsions:
REMARK  status: ('A' for Active; 'I' for Inactive)
REMARK    1  A    between atoms: C_10  and  C_21
REMARK    2  A    between atoms: C_19  and  O_23
REMARK                            x       y       z     vdW  Elec       q    Type
REMARK                         _______ _______ _______ _____ _____    ______ ____
ROOT
ATOM      1  C   UNL     1      33.087  -8.830 -23.668  0.00  0.00    +0.000 C 
ATOM      2  C   UNL     1      32.888  -9.656 -22.356  0.00  0.00    +0.000 C 
ATOM      3  C   UNL     1      32.270 -11.013 -22.719  0.00  0.00    +0.000 C 
ATOM      4  C   UNL     1      33.153 -11.837 -23.680  0.00  0.00    +0.007 C 
ATOM      5  C   UNL     1      33.679  -7.399 -23.378  0.00  0.00    +0.000 C 
ATOM      6  C   UNL     1      32.775  -6.663 -22.333  0.00  0.00    +0.002 C 
ATOM      7  C   UNL     1      33.860  -9.636 -24.745  0.00  0.00    +0.000 C 
ATOM      8  C   UNL     1      33.287 -11.045 -24.988  0.00  0.00    +0.000 C 
ATOM      9  C   UNL     1      32.017  -8.898 -21.346  0.00  0.00    +0.000 C 
ATOM     10  C   UNL     1      32.289 -13.113 -23.782  0.00  0.00    +0.058 C 
ATOM     11  C   UNL     1      31.943 -12.001 -21.605  0.00  0.00    +0.000 C 
ATOM     12  C   UNL     1      32.554  -7.499 -21.061  0.00  0.00    +0.000 C 
ATOM     13  C   UNL     1      33.766  -6.521 -24.661  0.00  0.00    +0.002 C 
ATOM     14  C   UNL     1      31.782 -13.342 -22.342  0.00  0.00    +0.007 C 
ATOM     15  C   UNL     1      31.419  -6.222 -22.922  0.00  0.00    +0.029 C 
ATOM     16  C   UNL     1      34.563 -12.161 -23.119  0.00  0.00    +0.000 C 
ATOM     17  C   UNL     1      35.126  -7.497 -22.827  0.00  0.00    +0.000 C 
ATOM     18  C   UNL     1      32.411  -6.122 -25.232  0.00  0.00    +0.029 C 
ATOM     19  C   UNL     1      31.576  -5.390 -24.189  0.00  0.00    +0.111 C 
ENDROOT
BRANCH  10  21
ATOM     20  O   UNL     1      33.545 -15.131 -23.593  0.00  0.00    -0.296 OA
ATOM     21  C   UNL     1      33.009 -14.306 -24.331  0.00  0.00    +0.151 C 
ATOM     22  C   UNL     1      33.039 -14.446 -25.828  0.00  0.00    +0.072 C 
ENDBRANCH  10  21
BRANCH  19  23
ATOM     23  O   UNL     1      30.283  -5.118 -24.719  0.00  0.00    -0.384 OA
ATOM     24  H   UNL     1      30.073  -5.768 -25.408  0.00  0.00    +0.210 HD
ENDBRANCH  19  23
TORSDOF 2
ENDMDL
