MODEL 1
REMARK VINA RESULT:      -6.0      0.000      0.000
REMARK  Name = 460
REMARK  2 active torsions:
REMARK  status: ('A' for Active; 'I' for Inactive)
REMARK    1  A    between atoms: C_1  and  O_7
REMARK    2  A    between atoms: C_2  and  O_9
REMARK                            x       y       z     vdW  Elec       q    Type
REMARK                         _______ _______ _______ _____ _____    ______ ____
ROOT
ATOM      1  C   UNL     1      34.918 -21.423 -19.506  0.00  0.00    +0.172 C 
ATOM      2  C   UNL     1      33.527 -21.329 -19.542  0.00  0.00    +0.168 C 
ATOM      3  C   UNL     1      35.696 -20.566 -20.284  0.00  0.00    +0.040 C 
ATOM      4  C   UNL     1      32.913 -20.378 -20.357  0.00  0.00    +0.040 C 
ATOM      5  C   UNL     1      35.081 -19.615 -21.099  0.00  0.00    +0.003 C 
ATOM      6  C   UNL     1      33.690 -19.520 -21.136  0.00  0.00    +0.003 C 
ENDROOT
BRANCH   1   7
ATOM      7  O   UNL     1      35.529 -22.348 -18.713  0.00  0.00    -0.468 OA
ATOM      8  C   UNL     1      36.522 -21.870 -17.808  0.00  0.00    +0.253 C 
ENDBRANCH   1   7
BRANCH   2   9
ATOM      9  O   UNL     1      32.757 -22.160 -18.785  0.00  0.00    -0.503 OA
ATOM     10  H   UNL     1      32.586 -21.952 -17.888  0.00  0.00    +0.292 HD
ENDBRANCH   2   9
TORSDOF 2
ENDMDL
MODEL 2
REMARK VINA RESULT:      -5.7      1.381      2.338
REMARK  Name = 460
REMARK  2 active torsions:
REMARK  status: ('A' for Active; 'I' for Inactive)
REMARK    1  A    between atoms: C_1  and  O_7
REMARK    2  A    between atoms: C_2  and  O_9
REMARK                            x       y       z     vdW  Elec       q    Type
REMARK                         _______ _______ _______ _____ _____    ______ ____
ROOT
ATOM      1  C   UNL     1      33.920 -21.646 -19.418  0.00  0.00    +0.172 C 
ATOM      2  C   UNL     1      33.663 -20.586 -20.287  0.00  0.00    +0.168 C 
ATOM      3  C   UNL     1      35.234 -21.961 -19.070  0.00  0.00    +0.040 C 
ATOM      4  C   UNL     1      34.721 -19.841 -20.809  0.00  0.00    +0.040 C 
ATOM      5  C   UNL     1      36.291 -21.216 -19.593  0.00  0.00    +0.003 C 
ATOM      6  C   UNL     1      36.034 -20.156 -20.463  0.00  0.00    +0.003 C 
ENDROOT
BRANCH   1   7
ATOM      7  O   UNL     1      32.896 -22.381 -18.900  0.00  0.00    -0.468 OA
ATOM      8  C   UNL     1      33.141 -23.058 -17.669  0.00  0.00    +0.253 C 
ENDBRANCH   1   7
BRANCH   2   9
ATOM      9  O   UNL     1      32.384 -20.268 -20.633  0.00  0.00    -0.503 OA
ATOM     10  H   UNL     1      32.171 -19.390 -20.881  0.00  0.00    +0.292 HD
ENDBRANCH   2   9
TORSDOF 2
ENDMDL
MODEL 3
REMARK VINA RESULT:      -5.6      1.184      2.410
REMARK  Name = 460
REMARK  2 active torsions:
REMARK  status: ('A' for Active; 'I' for Inactive)
REMARK    1  A    between atoms: C_1  and  O_7
REMARK    2  A    between atoms: C_2  and  O_9
REMARK                            x       y       z     vdW  Elec       q    Type
REMARK                         _______ _______ _______ _____ _____    ______ ____
ROOT
ATOM      1  C   UNL     1      34.440 -21.635 -19.431  0.00  0.00    +0.172 C 
ATOM      2  C   UNL     1      35.522 -20.971 -20.009  0.00  0.00    +0.168 C 
ATOM      3  C   UNL     1      33.140 -21.190 -19.670  0.00  0.00    +0.040 C 
ATOM      4  C   UNL     1      35.304 -19.862 -20.826  0.00  0.00    +0.040 C 
ATOM      5  C   UNL     1      32.923 -20.081 -20.488  0.00  0.00    +0.003 C 
ATOM      6  C   UNL     1      34.005 -19.416 -21.066  0.00  0.00    +0.003 C 
ENDROOT
BRANCH   1   7
ATOM      7  O   UNL     1      34.640 -22.720 -18.631  0.00  0.00    -0.468 OA
ATOM      8  C   UNL     1      33.599 -23.050 -17.714  0.00  0.00    +0.253 C 
ENDBRANCH   1   7
BRANCH   2   9
ATOM      9  O   UNL     1      36.797 -21.397 -19.783  0.00  0.00    -0.503 OA
ATOM     10  H   UNL     1      37.298 -21.767 -20.483  0.00  0.00    +0.292 HD
ENDBRANCH   2   9
TORSDOF 2
ENDMDL
MODEL 4
REMARK VINA RESULT:      -5.6      5.438      6.604
REMARK  Name = 460
REMARK  2 active torsions:
REMARK  status: ('A' for Active; 'I' for Inactive)
REMARK    1  A    between atoms: C_1  and  O_7
REMARK    2  A    between atoms: C_2  and  O_9
REMARK                            x       y       z     vdW  Elec       q    Type
REMARK                         _______ _______ _______ _____ _____    ______ ____
ROOT
ATOM      1  C   UNL     1      34.959 -16.464 -23.680  0.00  0.00    +0.172 C 
ATOM      2  C   UNL     1      34.538 -17.001 -24.896  0.00  0.00    +0.168 C 
ATOM      3  C   UNL     1      35.315 -17.309 -22.629  0.00  0.00    +0.040 C 
ATOM      4  C   UNL     1      34.472 -18.385 -25.061  0.00  0.00    +0.040 C 
ATOM      5  C   UNL     1      35.249 -18.692 -22.794  0.00  0.00    +0.003 C 
ATOM      6  C   UNL     1      34.828 -19.231 -24.011  0.00  0.00    +0.003 C 
ENDROOT
BRANCH   1   7
ATOM      7  O   UNL     1      35.027 -15.114 -23.506  0.00  0.00    -0.468 OA
ATOM      8  C   UNL     1      34.293 -14.563 -22.414  0.00  0.00    +0.253 C 
ENDBRANCH   1   7
BRANCH   2   9
ATOM      9  O   UNL     1      34.188 -16.186 -25.930  0.00  0.00    -0.503 OA
ATOM     10  H   UNL     1      33.643 -15.440 -25.775  0.00  0.00    +0.292 HD
ENDBRANCH   2   9
TORSDOF 2
ENDMDL
MODEL 5
REMARK VINA RESULT:      -5.5      1.912      3.518
REMARK  Name = 460
REMARK  2 active torsions:
REMARK  status: ('A' for Active; 'I' for Inactive)
REMARK    1  A    between atoms: C_1  and  O_7
REMARK    2  A    between atoms: C_2  and  O_9
REMARK                            x       y       z     vdW  Elec       q    Type
REMARK                         _______ _______ _______ _____ _____    ______ ____
ROOT
ATOM      1  C   UNL     1      35.164 -19.560 -20.966  0.00  0.00    +0.172 C 
ATOM      2  C   UNL     1      35.541 -20.659 -20.194  0.00  0.00    +0.168 C 
ATOM      3  C   UNL     1      33.814 -19.246 -21.120  0.00  0.00    +0.040 C 
ATOM      4  C   UNL     1      34.568 -21.444 -19.576  0.00  0.00    +0.040 C 
ATOM      5  C   UNL     1      32.841 -20.031 -20.502  0.00  0.00    +0.003 C 
ATOM      6  C   UNL     1      33.217 -21.130 -19.729  0.00  0.00    +0.003 C 
ENDROOT
BRANCH   1   7
ATOM      7  O   UNL     1      36.106 -18.786 -21.575  0.00  0.00    -0.468 OA
ATOM      8  C   UNL     1      35.798 -18.296 -22.878  0.00  0.00    +0.253 C 
ENDBRANCH   1   7
BRANCH   2   9
ATOM      9  O   UNL     1      36.857 -20.975 -20.035  0.00  0.00    -0.503 OA
ATOM     10  H   UNL     1      37.468 -20.793 -20.721  0.00  0.00    +0.292 HD
ENDBRANCH   2   9
TORSDOF 2
ENDMDL
MODEL 6
REMARK VINA RESULT:      -5.5      4.415      5.741
REMARK  Name = 460
REMARK  2 active torsions:
REMARK  status: ('A' for Active; 'I' for Inactive)
REMARK    1  A    between atoms: C_1  and  O_7
REMARK    2  A    between atoms: C_2  and  O_9
REMARK                            x       y       z     vdW  Elec       q    Type
REMARK                         _______ _______ _______ _____ _____    ______ ____
ROOT
ATOM      1  C   UNL     1      35.057 -16.796 -22.882  0.00  0.00    +0.172 C 
ATOM      2  C   UNL     1      34.977 -17.139 -21.532  0.00  0.00    +0.168 C 
ATOM      3  C   UNL     1      35.000 -17.791 -23.859  0.00  0.00    +0.040 C 
ATOM      4  C   UNL     1      34.840 -18.476 -21.159  0.00  0.00    +0.040 C 
ATOM      5  C   UNL     1      34.863 -19.127 -23.485  0.00  0.00    +0.003 C 
ATOM      6  C   UNL     1      34.783 -19.471 -22.135  0.00  0.00    +0.003 C 
ENDROOT
BRANCH   1   7
ATOM      7  O   UNL     1      35.191 -15.494 -23.259  0.00  0.00    -0.468 OA
ATOM      8  C   UNL     1      34.032 -14.848 -23.781  0.00  0.00    +0.253 C 
ENDBRANCH   1   7
BRANCH   2   9
ATOM      9  O   UNL     1      35.031 -16.176 -20.569  0.00  0.00    -0.503 OA
ATOM     10  H   UNL     1      35.541 -15.403 -20.708  0.00  0.00    +0.292 HD
ENDBRANCH   2   9
TORSDOF 2
ENDMDL
MODEL 7
REMARK VINA RESULT:      -5.5      4.275      5.447
REMARK  Name = 460
REMARK  2 active torsions:
REMARK  status: ('A' for Active; 'I' for Inactive)
REMARK    1  A    between atoms: C_1  and  O_7
REMARK    2  A    between atoms: C_2  and  O_9
REMARK                            x       y       z     vdW  Elec       q    Type
REMARK                         _______ _______ _______ _____ _____    ______ ____
ROOT
ATOM      1  C   UNL     1      34.967 -17.101 -21.632  0.00  0.00    +0.172 C 
ATOM      2  C   UNL     1      35.212 -16.968 -22.998  0.00  0.00    +0.168 C 
ATOM      3  C   UNL     1      34.632 -18.347 -21.101  0.00  0.00    +0.040 C 
ATOM      4  C   UNL     1      35.122 -18.081 -23.835  0.00  0.00    +0.040 C 
ATOM      5  C   UNL     1      34.542 -19.459 -21.938  0.00  0.00    +0.003 C 
ATOM      6  C   UNL     1      34.787 -19.327 -23.305  0.00  0.00    +0.003 C 
ENDROOT
BRANCH   1   7
ATOM      7  O   UNL     1      35.052 -16.022 -20.805  0.00  0.00    -0.468 OA
ATOM      8  C   UNL     1      33.852 -15.284 -20.577  0.00  0.00    +0.253 C 
ENDBRANCH   1   7
BRANCH   2   9
ATOM      9  O   UNL     1      35.541 -15.757 -23.528  0.00  0.00    -0.503 OA
ATOM     10  H   UNL     1      35.695 -15.674 -24.449  0.00  0.00    +0.292 HD
ENDBRANCH   2   9
TORSDOF 2
ENDMDL
MODEL 8
REMARK VINA RESULT:      -5.4      2.037      3.171
REMARK  Name = 460
REMARK  2 active torsions:
REMARK  status: ('A' for Active; 'I' for Inactive)
REMARK    1  A    between atoms: C_1  and  O_7
REMARK    2  A    between atoms: C_2  and  O_9
REMARK                            x       y       z     vdW  Elec       q    Type
REMARK                         _______ _______ _______ _____ _____    ______ ____
ROOT
ATOM      1  C   UNL     1      34.726 -19.773 -20.753  0.00  0.00    +0.172 C 
ATOM      2  C   UNL     1      33.683 -20.566 -20.276  0.00  0.00    +0.168 C 
ATOM      3  C   UNL     1      36.045 -20.077 -20.417  0.00  0.00    +0.040 C 
ATOM      4  C   UNL     1      33.959 -21.665 -19.462  0.00  0.00    +0.040 C 
ATOM      5  C   UNL     1      36.320 -21.176 -19.603  0.00  0.00    +0.003 C 
ATOM      6  C   UNL     1      35.278 -21.970 -19.126  0.00  0.00    +0.003 C 
ENDROOT
BRANCH   1   7
ATOM      7  O   UNL     1      34.469 -18.696 -21.549  0.00  0.00    -0.468 OA
ATOM      8  C   UNL     1      35.207 -17.504 -21.285  0.00  0.00    +0.253 C 
ENDBRANCH   1   7
BRANCH   2   9
ATOM      9  O   UNL     1      32.391 -20.279 -20.598  0.00  0.00    -0.503 OA
ATOM     10  H   UNL     1      31.799 -20.970 -20.822  0.00  0.00    +0.292 HD
ENDBRANCH   2   9
TORSDOF 2
ENDMDL
MODEL 9
REMARK VINA RESULT:      -5.3      3.835      5.034
REMARK  Name = 460
REMARK  2 active torsions:
REMARK  status: ('A' for Active; 'I' for Inactive)
REMARK    1  A    between atoms: C_1  and  O_7
REMARK    2  A    between atoms: C_2  and  O_9
REMARK                            x       y       z     vdW  Elec       q    Type
REMARK                         _______ _______ _______ _____ _____    ______ ____
ROOT
ATOM      1  C   UNL     1      35.000 -16.983 -21.808  0.00  0.00    +0.172 C 
ATOM      2  C   UNL     1      35.053 -18.376 -21.784  0.00  0.00    +0.168 C 
ATOM      3  C   UNL     1      34.875 -16.310 -23.023  0.00  0.00    +0.040 C 
ATOM      4  C   UNL     1      34.981 -19.097 -22.976  0.00  0.00    +0.040 C 
ATOM      5  C   UNL     1      34.803 -17.031 -24.215  0.00  0.00    +0.003 C 
ATOM      6  C   UNL     1      34.856 -18.425 -24.192  0.00  0.00    +0.003 C 
ENDROOT
BRANCH   1   7
ATOM      7  O   UNL     1      35.069 -16.268 -20.650  0.00  0.00    -0.468 OA
ATOM      8  C   UNL     1      34.459 -14.979 -20.646  0.00  0.00    +0.253 C 
ENDBRANCH   1   7
BRANCH   2   9
ATOM      9  O   UNL     1      35.174 -19.045 -20.603  0.00  0.00    -0.503 OA
ATOM     10  H   UNL     1      34.444 -19.520 -20.257  0.00  0.00    +0.292 HD
ENDBRANCH   2   9
TORSDOF 2
ENDMDL
