MODEL 1
REMARK VINA RESULT:      -7.4      0.000      0.000
REMARK  Name = 10235
REMARK  0 active torsions:
REMARK  status: ('A' for Active; 'I' for Inactive)
REMARK                            x       y       z     vdW  Elec       q    Type
REMARK                         _______ _______ _______ _____ _____    ______ ____
ROOT
ATOM      1  O   UNL     1      35.181 -19.396 -22.054  0.00  0.00    -0.270 OA
ATOM      2  N   UNL     1      34.698 -17.131 -22.398  0.00  0.00    -0.259 N 
ATOM      3  N   UNL     1      32.195 -15.398 -21.414  0.00  0.00    +0.384 N 
ATOM      4  C   UNL     1      34.528 -15.424 -20.495  0.00  0.00    -0.001 C 
ATOM      5  C   UNL     1      34.152 -14.707 -22.807  0.00  0.00    +0.015 C 
ATOM      6  C   UNL     1      34.975 -14.423 -21.553  0.00  0.00    +0.003 C 
ATOM      7  C   UNL     1      34.887 -16.839 -20.970  0.00  0.00    +0.096 C 
ATOM      8  C   UNL     1      33.022 -15.258 -20.215  0.00  0.00    -0.080 C 
ATOM      9  C   UNL     1      32.652 -14.518 -22.493  0.00  0.00    -0.076 C 
ATOM     10  C   UNL     1      34.414 -16.113 -23.315  0.00  0.00    +0.029 C 
ATOM     11  C   UNL     1      34.354 -16.386 -24.630  0.00  0.00    +0.011 C 
ATOM     12  C   UNL     1      34.914 -18.460 -22.808  0.00  0.00    +0.253 C 
ATOM     13  C   UNL     1      34.559 -17.722 -25.112  0.00  0.00    +0.006 C 
ATOM     14  C   UNL     1      34.815 -18.726 -24.270  0.00  0.00    +0.058 C 
ATOM     15  H   UNL     1      31.231 -15.160 -21.179  0.00  0.00    -0.085 HD
ATOM     16  H   UNL     1      32.265 -16.362 -21.738  0.00  0.00    -0.085 HD
ENDROOT
TORSDOF 0
ENDMDL
MODEL 2
REMARK VINA RESULT:      -7.3      7.079      8.499
REMARK  Name = 10235
REMARK  0 active torsions:
REMARK  status: ('A' for Active; 'I' for Inactive)
REMARK                            x       y       z     vdW  Elec       q    Type
REMARK                         _______ _______ _______ _____ _____    ______ ____
ROOT
ATOM      1  O   UNL     1      32.250  -9.415 -18.781  0.00  0.00    -0.270 OA
ATOM      2  N   UNL     1      32.160  -9.083 -21.097  0.00  0.00    -0.259 N 
ATOM      3  N   UNL     1      30.784  -6.734 -22.778  0.00  0.00    +0.384 N 
ATOM      4  C   UNL     1      33.217  -7.066 -22.272  0.00  0.00    -0.001 C 
ATOM      5  C   UNL     1      32.020  -8.749 -23.589  0.00  0.00    +0.015 C 
ATOM      6  C   UNL     1      33.352  -8.015 -23.455  0.00  0.00    +0.003 C 
ATOM      7  C   UNL     1      33.018  -7.895 -20.994  0.00  0.00    +0.096 C 
ATOM      8  C   UNL     1      32.064  -6.075 -22.520  0.00  0.00    -0.080 C 
ATOM      9  C   UNL     1      30.893  -7.727 -23.850  0.00  0.00    -0.076 C 
ATOM     10  C   UNL     1      31.724  -9.558 -22.339  0.00  0.00    +0.029 C 
ATOM     11  C   UNL     1      31.032 -10.707 -22.418  0.00  0.00    +0.011 C 
ATOM     12  C   UNL     1      31.883  -9.771 -19.901  0.00  0.00    +0.253 C 
ATOM     13  C   UNL     1      30.713 -11.454 -21.234  0.00  0.00    +0.006 C 
ATOM     14  C   UNL     1      31.095 -11.028 -20.028  0.00  0.00    +0.058 C 
ATOM     15  H   UNL     1      30.099  -6.029 -23.050  0.00  0.00    -0.085 HD
ATOM     16  H   UNL     1      30.496  -7.215 -21.926  0.00  0.00    -0.085 HD
ENDROOT
TORSDOF 0
ENDMDL
MODEL 3
REMARK VINA RESULT:      -7.3      1.914      4.253
REMARK  Name = 10235
REMARK  0 active torsions:
REMARK  status: ('A' for Active; 'I' for Inactive)
REMARK                            x       y       z     vdW  Elec       q    Type
REMARK                         _______ _______ _______ _____ _____    ______ ____
ROOT
ATOM      1  O   UNL     1      33.271 -14.867 -24.436  0.00  0.00    -0.270 OA
ATOM      2  N   UNL     1      34.345 -16.267 -22.897  0.00  0.00    -0.259 N 
ATOM      3  N   UNL     1      33.752 -19.320 -22.143  0.00  0.00    +0.384 N 
ATOM      4  C   UNL     1      35.598 -18.398 -23.569  0.00  0.00    -0.001 C 
ATOM      5  C   UNL     1      35.467 -17.760 -21.207  0.00  0.00    +0.015 C 
ATOM      6  C   UNL     1      36.438 -18.116 -22.329  0.00  0.00    +0.003 C 
ATOM      7  C   UNL     1      34.874 -17.108 -23.979  0.00  0.00    +0.096 C 
ATOM      8  C   UNL     1      34.625 -19.560 -23.292  0.00  0.00    -0.080 C 
ATOM      9  C   UNL     1      34.518 -18.950 -20.949  0.00  0.00    -0.076 C 
ATOM     10  C   UNL     1      34.672 -16.516 -21.559  0.00  0.00    +0.029 C 
ATOM     11  C   UNL     1      34.267 -15.669 -20.596  0.00  0.00    +0.011 C 
ATOM     12  C   UNL     1      33.579 -15.149 -23.278  0.00  0.00    +0.253 C 
ATOM     13  C   UNL     1      33.479 -14.514 -20.918  0.00  0.00    +0.006 C 
ATOM     14  C   UNL     1      33.130 -14.249 -22.180  0.00  0.00    +0.058 C 
ATOM     15  H   UNL     1      33.223 -20.170 -21.946  0.00  0.00    -0.085 HD
ATOM     16  H   UNL     1      33.129 -18.546 -22.373  0.00  0.00    -0.085 HD
ENDROOT
TORSDOF 0
ENDMDL
MODEL 4
REMARK VINA RESULT:      -7.0      2.200      3.844
REMARK  Name = 10235
REMARK  0 active torsions:
REMARK  status: ('A' for Active; 'I' for Inactive)
REMARK                            x       y       z     vdW  Elec       q    Type
REMARK                         _______ _______ _______ _____ _____    ______ ____
ROOT
ATOM      1  O   UNL     1      33.445 -16.144 -26.226  0.00  0.00    -0.270 OA
ATOM      2  N   UNL     1      34.422 -16.563 -24.140  0.00  0.00    -0.259 N 
ATOM      3  N   UNL     1      33.560 -18.627 -21.851  0.00  0.00    +0.384 N 
ATOM      4  C   UNL     1      35.447 -18.820 -23.493  0.00  0.00    -0.001 C 
ATOM      5  C   UNL     1      35.441 -16.981 -21.874  0.00  0.00    +0.015 C 
ATOM      6  C   UNL     1      36.343 -17.985 -22.587  0.00  0.00    +0.003 C 
ATOM      7  C   UNL     1      34.838 -17.906 -24.566  0.00  0.00    +0.096 C 
ATOM      8  C   UNL     1      34.375 -19.541 -22.653  0.00  0.00    -0.080 C 
ATOM      9  C   UNL     1      34.390 -17.738 -21.034  0.00  0.00    -0.076 C 
ATOM     10  C   UNL     1      34.759 -16.066 -22.875  0.00  0.00    +0.029 C 
ATOM     11  C   UNL     1      34.463 -14.796 -22.548  0.00  0.00    +0.011 C 
ATOM     12  C   UNL     1      33.756 -15.772 -25.095  0.00  0.00    +0.253 C 
ATOM     13  C   UNL     1      33.781 -13.939 -23.476  0.00  0.00    +0.006 C 
ATOM     14  C   UNL     1      33.425 -14.379 -24.685  0.00  0.00    +0.058 C 
ATOM     15  H   UNL     1      32.958 -19.175 -21.236  0.00  0.00    -0.085 HD
ATOM     16  H   UNL     1      33.008 -18.053 -22.487  0.00  0.00    -0.085 HD
ENDROOT
TORSDOF 0
ENDMDL
MODEL 5
REMARK VINA RESULT:      -6.9      8.411      9.957
REMARK  Name = 10235
REMARK  0 active torsions:
REMARK  status: ('A' for Active; 'I' for Inactive)
REMARK                            x       y       z     vdW  Elec       q    Type
REMARK                         _______ _______ _______ _____ _____    ______ ____
ROOT
ATOM      1  O   UNL     1      36.825 -21.365 -18.439  0.00  0.00    -0.270 OA
ATOM      2  N   UNL     1      35.956 -22.598 -16.648  0.00  0.00    -0.259 N 
ATOM      3  N   UNL     1      36.891 -25.416 -15.455  0.00  0.00    +0.384 N 
ATOM      4  C   UNL     1      37.287 -23.122 -14.522  0.00  0.00    -0.001 C 
ATOM      5  C   UNL     1      34.993 -23.949 -14.753  0.00  0.00    +0.015 C 
ATOM      6  C   UNL     1      35.920 -23.140 -13.850  0.00  0.00    +0.003 C 
ATOM      7  C   UNL     1      37.172 -22.369 -15.856  0.00  0.00    +0.096 C 
ATOM      8  C   UNL     1      37.807 -24.561 -14.699  0.00  0.00    -0.080 C 
ATOM      9  C   UNL     1      35.537 -25.387 -14.895  0.00  0.00    -0.076 C 
ATOM     10  C   UNL     1      34.864 -23.294 -16.116  0.00  0.00    +0.029 C 
ATOM     11  C   UNL     1      33.722 -23.396 -16.817  0.00  0.00    +0.011 C 
ATOM     12  C   UNL     1      35.906 -22.001 -17.921  0.00  0.00    +0.253 C 
ATOM     13  C   UNL     1      33.609 -22.814 -18.125  0.00  0.00    +0.006 C 
ATOM     14  C   UNL     1      34.632 -22.157 -18.676  0.00  0.00    +0.058 C 
ATOM     15  H   UNL     1      37.239 -26.374 -15.430  0.00  0.00    -0.085 HD
ATOM     16  H   UNL     1      36.848 -25.066 -16.412  0.00  0.00    -0.085 HD
ENDROOT
TORSDOF 0
ENDMDL
MODEL 6
REMARK VINA RESULT:      -6.9      3.118      4.759
REMARK  Name = 10235
REMARK  0 active torsions:
REMARK  status: ('A' for Active; 'I' for Inactive)
REMARK                            x       y       z     vdW  Elec       q    Type
REMARK                         _______ _______ _______ _____ _____    ______ ____
ROOT
ATOM      1  O   UNL     1      32.673 -21.416 -19.854  0.00  0.00    -0.270 OA
ATOM      2  N   UNL     1      34.375 -19.949 -20.513  0.00  0.00    -0.259 N 
ATOM      3  N   UNL     1      35.277 -19.045 -23.447  0.00  0.00    +0.384 N 
ATOM      4  C   UNL     1      33.936 -17.756 -21.764  0.00  0.00    -0.001 C 
ATOM      5  C   UNL     1      36.236 -18.410 -21.228  0.00  0.00    +0.015 C 
ATOM      6  C   UNL     1      35.214 -17.285 -21.081  0.00  0.00    +0.003 C 
ATOM      7  C   UNL     1      33.391 -18.975 -21.006  0.00  0.00    +0.096 C 
ATOM      8  C   UNL     1      34.214 -18.060 -23.249  0.00  0.00    -0.080 C 
ATOM      9  C   UNL     1      36.498 -18.675 -22.726  0.00  0.00    -0.076 C 
ATOM     10  C   UNL     1      35.747 -19.673 -20.543  0.00  0.00    +0.029 C 
ATOM     11  C   UNL     1      36.620 -20.530 -19.987  0.00  0.00    +0.011 C 
ATOM     12  C   UNL     1      33.867 -21.122 -19.925  0.00  0.00    +0.253 C 
ATOM     13  C   UNL     1      36.167 -21.747 -19.376  0.00  0.00    +0.006 C 
ATOM     14  C   UNL     1      34.869 -22.057 -19.341  0.00  0.00    +0.058 C 
ATOM     15  H   UNL     1      35.488 -19.107 -24.443  0.00  0.00    -0.085 HD
ATOM     16  H   UNL     1      34.952 -19.941 -23.085  0.00  0.00    -0.085 HD
ENDROOT
TORSDOF 0
ENDMDL
MODEL 7
REMARK VINA RESULT:      -6.9      2.037      4.100
REMARK  Name = 10235
REMARK  0 active torsions:
REMARK  status: ('A' for Active; 'I' for Inactive)
REMARK                            x       y       z     vdW  Elec       q    Type
REMARK                         _______ _______ _______ _____ _____    ______ ____
ROOT
ATOM      1  O   UNL     1      32.310 -15.845 -20.230  0.00  0.00    -0.270 OA
ATOM      2  N   UNL     1      33.801 -17.022 -21.599  0.00  0.00    -0.259 N 
ATOM      3  N   UNL     1      36.394 -18.726 -20.815  0.00  0.00    +0.384 N 
ATOM      4  C   UNL     1      34.123 -19.561 -21.474  0.00  0.00    -0.001 C 
ATOM      5  C   UNL     1      35.435 -18.247 -23.073  0.00  0.00    +0.015 C 
ATOM      6  C   UNL     1      34.486 -19.437 -22.948  0.00  0.00    +0.003 C 
ATOM      7  C   UNL     1      33.345 -18.306 -21.050  0.00  0.00    +0.096 C 
ATOM      8  C   UNL     1      35.395 -19.780 -20.635  0.00  0.00    -0.080 C 
ATOM      9  C   UNL     1      36.702 -18.509 -22.231  0.00  0.00    -0.076 C 
ATOM     10  C   UNL     1      34.754 -16.968 -22.623  0.00  0.00    +0.029 C 
ATOM     11  C   UNL     1      35.075 -15.790 -23.185  0.00  0.00    +0.011 C 
ATOM     12  C   UNL     1      33.164 -15.863 -21.116  0.00  0.00    +0.253 C 
ATOM     13  C   UNL     1      34.465 -14.571 -22.735  0.00  0.00    +0.006 C 
ATOM     14  C   UNL     1      33.564 -14.576 -21.749  0.00  0.00    +0.058 C 
ATOM     15  H   UNL     1      37.249 -18.995 -20.328  0.00  0.00    -0.085 HD
ATOM     16  H   UNL     1      36.013 -17.860 -20.435  0.00  0.00    -0.085 HD
ENDROOT
TORSDOF 0
ENDMDL
MODEL 8
REMARK VINA RESULT:      -6.8      1.835      2.525
REMARK  Name = 10235
REMARK  0 active torsions:
REMARK  status: ('A' for Active; 'I' for Inactive)
REMARK                            x       y       z     vdW  Elec       q    Type
REMARK                         _______ _______ _______ _____ _____    ______ ____
ROOT
ATOM      1  O   UNL     1      34.475 -17.360 -25.622  0.00  0.00    -0.270 OA
ATOM      2  N   UNL     1      34.085 -15.799 -23.921  0.00  0.00    -0.259 N 
ATOM      3  N   UNL     1      32.328 -16.064 -21.260  0.00  0.00    +0.384 N 
ATOM      4  C   UNL     1      34.824 -16.149 -21.493  0.00  0.00    -0.001 C 
ATOM      5  C   UNL     1      33.624 -14.105 -22.115  0.00  0.00    +0.015 C 
ATOM      6  C   UNL     1      34.896 -14.628 -21.453  0.00  0.00    +0.003 C 
ATOM      7  C   UNL     1      34.847 -16.606 -22.958  0.00  0.00    +0.096 C 
ATOM      8  C   UNL     1      33.571 -16.636 -20.741  0.00  0.00    -0.080 C 
ATOM      9  C   UNL     1      32.393 -14.601 -21.328  0.00  0.00    -0.076 C 
ATOM     10  C   UNL     1      33.546 -14.558 -23.562  0.00  0.00    +0.029 C 
ATOM     11  C   UNL     1      32.949 -13.787 -24.487  0.00  0.00    +0.011 C 
ATOM     12  C   UNL     1      34.010 -16.286 -25.239  0.00  0.00    +0.253 C 
ATOM     13  C   UNL     1      32.835 -14.230 -25.848  0.00  0.00    +0.006 C 
ATOM     14  C   UNL     1      33.320 -15.414 -26.229  0.00  0.00    +0.058 C 
ATOM     15  H   UNL     1      31.559 -16.333 -20.646  0.00  0.00    -0.085 HD
ATOM     16  H   UNL     1      32.184 -16.420 -22.204  0.00  0.00    -0.085 HD
ENDROOT
TORSDOF 0
ENDMDL
MODEL 9
REMARK VINA RESULT:      -6.8      6.452      7.675
REMARK  Name = 10235
REMARK  0 active torsions:
REMARK  status: ('A' for Active; 'I' for Inactive)
REMARK                            x       y       z     vdW  Elec       q    Type
REMARK                         _______ _______ _______ _____ _____    ______ ____
ROOT
ATOM      1  O   UNL     1      32.320 -12.042 -23.203  0.00  0.00    -0.270 OA
ATOM      2  N   UNL     1      33.120  -9.841 -23.191  0.00  0.00    -0.259 N 
ATOM      3  N   UNL     1      31.641  -7.119 -23.994  0.00  0.00    +0.384 N 
ATOM      4  C   UNL     1      32.147  -7.998 -21.700  0.00  0.00    -0.001 C 
ATOM      5  C   UNL     1      33.992  -7.479 -23.225  0.00  0.00    +0.015 C 
ATOM      6  C   UNL     1      33.550  -7.411 -21.766  0.00  0.00    +0.003 C 
ATOM      7  C   UNL     1      32.213  -9.481 -22.092  0.00  0.00    +0.096 C 
ATOM      8  C   UNL     1      31.195  -7.190 -22.602  0.00  0.00    -0.080 C 
ATOM      9  C   UNL     1      33.025  -6.647 -24.095  0.00  0.00    -0.076 C 
ATOM     10  C   UNL     1      34.036  -8.917 -23.707  0.00  0.00    +0.029 C 
ATOM     11  C   UNL     1      34.930  -9.299 -24.635  0.00  0.00    +0.011 C 
ATOM     12  C   UNL     1      33.089 -11.179 -23.627  0.00  0.00    +0.253 C 
ATOM     13  C   UNL     1      34.948 -10.648 -25.126  0.00  0.00    +0.006 C 
ATOM     14  C   UNL     1      34.080 -11.556 -24.673  0.00  0.00    +0.058 C 
ATOM     15  H   UNL     1      31.034  -6.476 -24.503  0.00  0.00    -0.085 HD
ATOM     16  H   UNL     1      31.594  -8.057 -24.390  0.00  0.00    -0.085 HD
ENDROOT
TORSDOF 0
ENDMDL
