MODEL 1
REMARK VINA RESULT:      -9.9      0.000      0.000
REMARK  Name = 8226
REMARK  5 active torsions:
REMARK  status: ('A' for Active; 'I' for Inactive)
REMARK    1  A    between atoms: C_6  and  C_22
REMARK    2  A    between atoms: N_21  and  CA_24
REMARK    3  A    between atoms: CA_24  and  C_25
REMARK    4  A    between atoms: CA_24  and  C_27
REMARK    5  A    between atoms: C_27  and  O_28
REMARK                            x       y       z     vdW  Elec       q    Type
REMARK                         _______ _______ _______ _____ _____    ______ ____
ROOT
ATOM      1  N   UNL     1      36.048 -22.381 -17.606  0.00  0.00    +0.390 N 
ATOM      2  N   UNL     1      32.725 -24.937 -13.313  0.00  0.00    -0.312 N 
ATOM      3  C   UNL     1      34.962 -22.571 -16.603  0.00  0.00    -0.031 C 
ATOM      4  C   UNL     1      33.553 -22.723 -17.252  0.00  0.00    -0.045 C 
ATOM      5  C   UNL     1      35.335 -23.768 -15.652  0.00  0.00    +0.011 C 
ATOM      6  C   UNL     1      34.453 -21.968 -19.440  0.00  0.00    +0.077 C 
ATOM      7  C   UNL     1      35.643 -21.424 -18.645  0.00  0.00    -0.063 C 
ATOM      8  C   UNL     1      34.174 -24.164 -14.812  0.00  0.00    -0.008 C 
ATOM      9  C   UNL     1      32.443 -23.175 -16.382  0.00  0.00    -0.005 C 
ATOM     10  C   UNL     1      32.865 -23.852 -15.232  0.00  0.00    +0.010 C 
ATOM     11  C   UNL     1      33.354 -22.476 -18.558  0.00  0.00    -0.026 C 
ATOM     12  C   UNL     1      31.967 -24.339 -14.297  0.00  0.00    +0.048 C 
ATOM     13  C   UNL     1      37.299 -21.927 -16.990  0.00  0.00    -0.100 C 
ATOM     14  C   UNL     1      34.066 -24.839 -13.618  0.00  0.00    +0.058 C 
ATOM     15  C   UNL     1      31.064 -23.007 -16.556  0.00  0.00    -0.000 C 
ATOM     16  C   UNL     1      30.590 -24.181 -14.455  0.00  0.00    +0.015 C 
ATOM     17  C   UNL     1      30.159 -23.503 -15.607  0.00  0.00    +0.001 C 
ATOM     18  H   UNL     1      36.214 -23.294 -18.029  0.00  0.00    -0.079 HD
ATOM     19  H   UNL     1      32.362 -25.371 -12.508  0.00  0.00    +0.152 HD
ENDROOT
BRANCH   6  22
ATOM     20  O   UNL     1      32.669 -20.831 -20.545  0.00  0.00    -0.275 OA
ATOM     21  N   UNL     1      34.826 -19.976 -20.715  0.00  0.00    -0.303 N 
ATOM     22  C   UNL     1      33.867 -20.874 -20.281  0.00  0.00    +0.224 C 
ATOM     23  H   UNL     1      35.760 -20.116 -20.435  0.00  0.00    +0.149 HD
BRANCH  21  24
ATOM     24  CA  UNL     1      34.524 -18.842 -21.558  0.00  0.00    +0.101 C 
BRANCH  24  25
ATOM     25  C   UNL     1      35.288 -17.594 -21.099  0.00  0.00    +0.022 C 
ATOM     26  C   UNL     1      34.417 -16.344 -21.082  0.00  0.00    +0.002 C 
ENDBRANCH  24  25
BRANCH  24  27
ATOM     27  C   UNL     1      34.862 -19.179 -23.011  0.00  0.00    +0.157 C 
BRANCH  27  28
ATOM     28  O   UNL     1      35.976 -18.399 -23.431  0.00  0.00    -0.380 OA
ATOM     29  H   UNL     1      36.234 -17.794 -22.717  0.00  0.00    +0.211 HD
ENDBRANCH  27  28
ENDBRANCH  24  27
ENDBRANCH  21  24
ENDBRANCH   6  22
TORSDOF 5
ENDMDL
MODEL 2
REMARK VINA RESULT:      -9.7      7.742     11.525
REMARK  Name = 8226
REMARK  5 active torsions:
REMARK  status: ('A' for Active; 'I' for Inactive)
REMARK    1  A    between atoms: C_6  and  C_22
REMARK    2  A    between atoms: N_21  and  CA_24
REMARK    3  A    between atoms: CA_24  and  C_25
REMARK    4  A    between atoms: CA_24  and  C_27
REMARK    5  A    between atoms: C_27  and  O_28
REMARK                            x       y       z     vdW  Elec       q    Type
REMARK                         _______ _______ _______ _____ _____    ______ ____
ROOT
ATOM      1  N   UNL     1      33.454 -13.066 -26.110  0.00  0.00    +0.390 N 
ATOM      2  N   UNL     1      34.615 -18.349 -23.511  0.00  0.00    -0.312 N 
ATOM      3  C   UNL     1      34.103 -14.084 -25.235  0.00  0.00    -0.031 C 
ATOM      4  C   UNL     1      33.868 -13.821 -23.717  0.00  0.00    -0.045 C 
ATOM      5  C   UNL     1      33.655 -15.523 -25.689  0.00  0.00    +0.011 C 
ATOM      6  C   UNL     1      32.997 -11.550 -24.220  0.00  0.00    +0.077 C 
ATOM      7  C   UNL     1      33.668 -11.710 -25.587  0.00  0.00    -0.063 C 
ATOM      8  C   UNL     1      34.061 -16.547 -24.691  0.00  0.00    -0.008 C 
ATOM      9  C   UNL     1      34.238 -14.898 -22.770  0.00  0.00    -0.005 C 
ATOM     10  C   UNL     1      34.306 -16.167 -23.355  0.00  0.00    +0.010 C 
ATOM     11  C   UNL     1      33.328 -12.670 -23.281  0.00  0.00    -0.026 C 
ATOM     12  C   UNL     1      34.647 -17.294 -22.625  0.00  0.00    +0.048 C 
ATOM     13  C   UNL     1      33.936 -13.135 -27.493  0.00  0.00    -0.100 C 
ATOM     14  C   UNL     1      34.258 -17.907 -24.767  0.00  0.00    +0.058 C 
ATOM     15  C   UNL     1      34.529 -14.807 -21.403  0.00  0.00    -0.000 C 
ATOM     16  C   UNL     1      34.939 -17.221 -21.262  0.00  0.00    +0.015 C 
ATOM     17  C   UNL     1      34.872 -15.950 -20.669  0.00  0.00    +0.001 C 
ATOM     18  H   UNL     1      32.457 -13.280 -26.109  0.00  0.00    -0.079 HD
ATOM     19  H   UNL     1      34.818 -19.284 -23.281  0.00  0.00    +0.152 HD
ENDROOT
BRANCH   6  22
ATOM     20  O   UNL     1      34.613  -9.864 -23.727  0.00  0.00    -0.275 OA
ATOM     21  N   UNL     1      32.487  -9.696 -22.794  0.00  0.00    -0.303 N 
ATOM     22  C   UNL     1      33.470 -10.284 -23.572  0.00  0.00    +0.224 C 
ATOM     23  H   UNL     1      31.604 -10.128 -22.749  0.00  0.00    +0.149 HD
BRANCH  21  24
ATOM     24  CA  UNL     1      32.695  -8.477 -22.046  0.00  0.00    +0.101 C 
BRANCH  24  25
ATOM     25  C   UNL     1      31.868  -7.324 -22.628  0.00  0.00    +0.022 C 
ATOM     26  C   UNL     1      30.884  -7.787 -23.694  0.00  0.00    +0.002 C 
ENDBRANCH  24  25
BRANCH  24  27
ATOM     27  C   UNL     1      32.340  -8.711 -20.577  0.00  0.00    +0.157 C 
BRANCH  27  28
ATOM     28  O   UNL     1      33.080  -7.810 -19.762  0.00  0.00    -0.380 OA
ATOM     29  H   UNL     1      34.029  -7.928 -19.928  0.00  0.00    +0.211 HD
ENDBRANCH  27  28
ENDBRANCH  24  27
ENDBRANCH  21  24
ENDBRANCH   6  22
TORSDOF 5
ENDMDL
MODEL 3
REMARK VINA RESULT:      -9.5      3.464      6.281
REMARK  Name = 8226
REMARK  5 active torsions:
REMARK  status: ('A' for Active; 'I' for Inactive)
REMARK    1  A    between atoms: C_6  and  C_22
REMARK    2  A    between atoms: N_21  and  CA_24
REMARK    3  A    between atoms: CA_24  and  C_25
REMARK    4  A    between atoms: CA_24  and  C_27
REMARK    5  A    between atoms: C_27  and  O_28
REMARK                            x       y       z     vdW  Elec       q    Type
REMARK                         _______ _______ _______ _____ _____    ______ ____
ROOT
ATOM      1  N   UNL     1      34.427 -22.204 -17.915  0.00  0.00    +0.390 N 
ATOM      2  N   UNL     1      29.065 -23.686 -15.667  0.00  0.00    -0.312 N 
ATOM      3  C   UNL     1      33.354 -23.014 -17.274  0.00  0.00    -0.031 C 
ATOM      4  C   UNL     1      33.643 -23.335 -15.777  0.00  0.00    -0.045 C 
ATOM      5  C   UNL     1      31.965 -22.308 -17.496  0.00  0.00    +0.011 C 
ATOM      6  C   UNL     1      35.988 -22.558 -16.039  0.00  0.00    +0.077 C 
ATOM      7  C   UNL     1      35.758 -22.707 -17.546  0.00  0.00    -0.063 C 
ATOM      8  C   UNL     1      30.908 -22.933 -16.656  0.00  0.00    -0.008 C 
ATOM      9  C   UNL     1      32.539 -23.903 -14.970  0.00  0.00    -0.005 C 
ATOM     10  C   UNL     1      31.267 -23.651 -15.497  0.00  0.00    +0.010 C 
ATOM     11  C   UNL     1      34.844 -23.083 -15.227  0.00  0.00    -0.026 C 
ATOM     12  C   UNL     1      30.114 -24.114 -14.884  0.00  0.00    +0.048 C 
ATOM     13  C   UNL     1      34.306 -22.179 -19.376  0.00  0.00    -0.100 C 
ATOM     14  C   UNL     1      29.536 -22.965 -16.745  0.00  0.00    +0.058 C 
ATOM     15  C   UNL     1      32.605 -24.648 -13.787  0.00  0.00    -0.000 C 
ATOM     16  C   UNL     1      30.163 -24.857 -13.704  0.00  0.00    +0.015 C 
ATOM     17  C   UNL     1      31.436 -25.113 -13.169  0.00  0.00    +0.001 C 
ATOM     18  H   UNL     1      34.314 -21.251 -17.569  0.00  0.00    -0.079 HD
ATOM     19  H   UNL     1      28.115 -23.868 -15.485  0.00  0.00    +0.152 HD
ENDROOT
BRANCH   6  22
ATOM     20  O   UNL     1      38.338 -22.907 -15.817  0.00  0.00    -0.275 OA
ATOM     21  N   UNL     1      36.878 -24.562 -15.078  0.00  0.00    -0.303 N 
ATOM     22  C   UNL     1      37.203 -23.337 -15.636  0.00  0.00    +0.224 C 
ATOM     23  H   UNL     1      35.927 -24.796 -14.984  0.00  0.00    +0.149 HD
BRANCH  21  24
ATOM     24  CA  UNL     1      37.869 -25.512 -14.627  0.00  0.00    +0.101 C 
BRANCH  24  25
ATOM     25  C   UNL     1      38.249 -25.259 -13.162  0.00  0.00    +0.022 C 
ATOM     26  C   UNL     1      37.033 -25.061 -12.266  0.00  0.00    +0.002 C 
ENDBRANCH  24  25
BRANCH  24  27
ATOM     27  C   UNL     1      37.336 -26.933 -14.811  0.00  0.00    +0.157 C 
BRANCH  27  28
ATOM     28  O   UNL     1      36.790 -27.068 -16.118  0.00  0.00    -0.380 OA
ATOM     29  H   UNL     1      37.018 -27.942 -16.475  0.00  0.00    +0.211 HD
ENDBRANCH  27  28
ENDBRANCH  24  27
ENDBRANCH  21  24
ENDBRANCH   6  22
TORSDOF 5
ENDMDL
MODEL 4
REMARK VINA RESULT:      -9.5      3.256      9.363
REMARK  Name = 8226
REMARK  5 active torsions:
REMARK  status: ('A' for Active; 'I' for Inactive)
REMARK    1  A    between atoms: C_6  and  C_22
REMARK    2  A    between atoms: N_21  and  CA_24
REMARK    3  A    between atoms: CA_24  and  C_25
REMARK    4  A    between atoms: CA_24  and  C_27
REMARK    5  A    between atoms: C_27  and  O_28
REMARK                            x       y       z     vdW  Elec       q    Type
REMARK                         _______ _______ _______ _____ _____    ______ ____
ROOT
ATOM      1  N   UNL     1      34.920 -18.140 -23.896  0.00  0.00    +0.390 N 
ATOM      2  N   UNL     1      32.926 -12.483 -23.707  0.00  0.00    -0.312 N 
ATOM      3  C   UNL     1      34.049 -16.972 -23.580  0.00  0.00    -0.031 C 
ATOM      4  C   UNL     1      34.013 -16.631 -22.060  0.00  0.00    -0.045 C 
ATOM      5  C   UNL     1      34.472 -15.750 -24.477  0.00  0.00    +0.011 C 
ATOM      6  C   UNL     1      35.120 -18.790 -21.526  0.00  0.00    +0.077 C 
ATOM      7  C   UNL     1      34.707 -19.230 -22.933  0.00  0.00    -0.063 C 
ATOM      8  C   UNL     1      33.816 -14.498 -24.016  0.00  0.00    -0.008 C 
ATOM      9  C   UNL     1      33.399 -15.345 -21.660  0.00  0.00    -0.005 C 
ATOM     10  C   UNL     1      33.353 -14.396 -22.688  0.00  0.00    +0.010 C 
ATOM     11  C   UNL     1      34.542 -17.461 -21.144  0.00  0.00    -0.026 C 
ATOM     12  C   UNL     1      32.803 -13.138 -22.501  0.00  0.00    +0.048 C 
ATOM     13  C   UNL     1      34.702 -18.644 -25.255  0.00  0.00    -0.100 C 
ATOM     14  C   UNL     1      33.543 -13.299 -24.633  0.00  0.00    +0.058 C 
ATOM     15  C   UNL     1      32.864 -14.972 -20.421  0.00  0.00    -0.000 C 
ATOM     16  C   UNL     1      32.267 -12.751 -21.272  0.00  0.00    +0.015 C 
ATOM     17  C   UNL     1      32.311 -13.697 -20.236  0.00  0.00    +0.001 C 
ATOM     18  H   UNL     1      35.882 -17.808 -23.829  0.00  0.00    -0.079 HD
ATOM     19  H   UNL     1      32.619 -11.565 -23.884  0.00  0.00    +0.152 HD
ENDROOT
BRANCH   6  22
ATOM     20  O   UNL     1      33.426 -19.983 -20.341  0.00  0.00    -0.275 OA
ATOM     21  N   UNL     1      35.660 -20.405 -19.843  0.00  0.00    -0.303 N 
ATOM     22  C   UNL     1      34.624 -19.786 -20.521  0.00  0.00    +0.224 C 
ATOM     23  H   UNL     1      36.585 -20.163 -20.078  0.00  0.00    +0.149 HD
BRANCH  21  24
ATOM     24  CA  UNL     1      35.449 -21.391 -18.808  0.00  0.00    +0.101 C 
BRANCH  24  25
ATOM     25  C   UNL     1      34.744 -22.634 -19.365  0.00  0.00    +0.022 C 
ATOM     26  C   UNL     1      33.606 -23.114 -18.473  0.00  0.00    +0.002 C 
ENDBRANCH  24  25
BRANCH  24  27
ATOM     27  C   UNL     1      36.790 -21.767 -18.177  0.00  0.00    +0.157 C 
BRANCH  27  28
ATOM     28  O   UNL     1      37.169 -20.766 -17.239  0.00  0.00    -0.380 OA
ATOM     29  H   UNL     1      38.068 -20.460 -17.437  0.00  0.00    +0.211 HD
ENDBRANCH  27  28
ENDBRANCH  24  27
ENDBRANCH  21  24
ENDBRANCH   6  22
TORSDOF 5
ENDMDL
MODEL 5
REMARK VINA RESULT:      -9.3      1.715      2.390
REMARK  Name = 8226
REMARK  5 active torsions:
REMARK  status: ('A' for Active; 'I' for Inactive)
REMARK    1  A    between atoms: C_6  and  C_22
REMARK    2  A    between atoms: N_21  and  CA_24
REMARK    3  A    between atoms: CA_24  and  C_25
REMARK    4  A    between atoms: CA_24  and  C_27
REMARK    5  A    between atoms: C_27  and  O_28
REMARK                            x       y       z     vdW  Elec       q    Type
REMARK                         _______ _______ _______ _____ _____    ______ ____
ROOT
ATOM      1  N   UNL     1      35.936 -23.429 -15.686  0.00  0.00    +0.390 N 
ATOM      2  N   UNL     1      30.516 -24.922 -13.587  0.00  0.00    -0.312 N 
ATOM      3  C   UNL     1      34.508 -23.300 -15.279  0.00  0.00    -0.031 C 
ATOM      4  C   UNL     1      33.551 -23.051 -16.484  0.00  0.00    -0.045 C 
ATOM      5  C   UNL     1      34.098 -24.550 -14.414  0.00  0.00    +0.011 C 
ATOM      6  C   UNL     1      35.493 -22.591 -17.963  0.00  0.00    +0.077 C 
ATOM      7  C   UNL     1      36.296 -22.401 -16.673  0.00  0.00    -0.063 C 
ATOM      8  C   UNL     1      32.626 -24.597 -14.210  0.00  0.00    -0.008 C 
ATOM      9  C   UNL     1      32.095 -23.167 -16.239  0.00  0.00    -0.005 C 
ATOM     10  C   UNL     1      31.771 -23.930 -15.111  0.00  0.00    +0.010 C 
ATOM     11  C   UNL     1      34.027 -22.764 -17.708  0.00  0.00    -0.026 C 
ATOM     12  C   UNL     1      30.459 -24.139 -14.720  0.00  0.00    +0.048 C 
ATOM     13  C   UNL     1      36.849 -23.344 -14.542  0.00  0.00    -0.100 C 
ATOM     14  C   UNL     1      31.828 -25.208 -13.271  0.00  0.00    +0.058 C 
ATOM     15  C   UNL     1      31.033 -22.617 -16.966  0.00  0.00    -0.000 C 
ATOM     16  C   UNL     1      29.388 -23.599 -15.434  0.00  0.00    +0.015 C 
ATOM     17  C   UNL     1      29.707 -22.833 -16.567  0.00  0.00    +0.001 C 
ATOM     18  H   UNL     1      36.034 -24.354 -16.105  0.00  0.00    -0.079 HD
ATOM     19  H   UNL     1      29.735 -25.233 -13.076  0.00  0.00    +0.152 HD
ENDROOT
BRANCH   6  22
ATOM     20  O   UNL     1      36.673 -20.711 -18.838  0.00  0.00    -0.275 OA
ATOM     21  N   UNL     1      34.506 -21.126 -19.578  0.00  0.00    -0.303 N 
ATOM     22  C   UNL     1      35.645 -21.380 -18.833  0.00  0.00    +0.224 C 
ATOM     23  H   UNL     1      33.740 -21.738 -19.488  0.00  0.00    +0.149 HD
BRANCH  21  24
ATOM     24  CA  UNL     1      34.387 -20.003 -20.480  0.00  0.00    +0.101 C 
BRANCH  24  25
ATOM     25  C   UNL     1      35.088 -20.291 -21.814  0.00  0.00    +0.022 C 
ATOM     26  C   UNL     1      34.787 -19.240 -22.875  0.00  0.00    +0.002 C 
ENDBRANCH  24  25
BRANCH  24  27
ATOM     27  C   UNL     1      32.909 -19.681 -20.705  0.00  0.00    +0.157 C 
BRANCH  27  28
ATOM     28  O   UNL     1      32.126 -20.338 -19.714  0.00  0.00    -0.380 OA
ATOM     29  H   UNL     1      31.515 -20.957 -20.143  0.00  0.00    +0.211 HD
ENDBRANCH  27  28
ENDBRANCH  24  27
ENDBRANCH  21  24
ENDBRANCH   6  22
TORSDOF 5
ENDMDL
MODEL 6
REMARK VINA RESULT:      -9.0      5.384     11.170
REMARK  Name = 8226
REMARK  5 active torsions:
REMARK  status: ('A' for Active; 'I' for Inactive)
REMARK    1  A    between atoms: C_6  and  C_22
REMARK    2  A    between atoms: N_21  and  CA_24
REMARK    3  A    between atoms: CA_24  and  C_25
REMARK    4  A    between atoms: CA_24  and  C_27
REMARK    5  A    between atoms: C_27  and  O_28
REMARK                            x       y       z     vdW  Elec       q    Type
REMARK                         _______ _______ _______ _____ _____    ______ ____
ROOT
ATOM      1  N   UNL     1      33.715 -14.012 -24.204  0.00  0.00    +0.390 N 
ATOM      2  N   UNL     1      31.524  -8.823 -22.138  0.00  0.00    -0.312 N 
ATOM      3  C   UNL     1      32.845 -13.057 -23.463  0.00  0.00    -0.031 C 
ATOM      4  C   UNL     1      32.998 -13.168 -21.916  0.00  0.00    -0.045 C 
ATOM      5  C   UNL     1      33.092 -11.599 -24.004  0.00  0.00    +0.011 C 
ATOM      6  C   UNL     1      34.258 -15.293 -22.169  0.00  0.00    +0.077 C 
ATOM      7  C   UNL     1      33.680 -15.345 -23.586  0.00  0.00    -0.063 C 
ATOM      8  C   UNL     1      32.450 -10.588 -23.124  0.00  0.00    -0.008 C 
ATOM      9  C   UNL     1      32.388 -12.102 -21.088  0.00  0.00    -0.005 C 
ATOM     10  C   UNL     1      32.164 -10.906 -21.780  0.00  0.00    +0.010 C 
ATOM     11  C   UNL     1      33.679 -14.180 -21.351  0.00  0.00    -0.026 C 
ATOM     12  C   UNL     1      31.592  -9.802 -21.171  0.00  0.00    +0.048 C 
ATOM     13  C   UNL     1      33.339 -14.124 -25.618  0.00  0.00    -0.100 C 
ATOM     14  C   UNL     1      32.046  -9.288 -23.327  0.00  0.00    +0.058 C 
ATOM     15  C   UNL     1      32.009 -12.142 -19.741  0.00  0.00    -0.000 C 
ATOM     16  C   UNL     1      31.208  -9.825 -19.829  0.00  0.00    +0.015 C 
ATOM     17  C   UNL     1      31.431 -11.021 -19.129  0.00  0.00    +0.001 C 
ATOM     18  H   UNL     1      34.663 -13.638 -24.156  0.00  0.00    -0.079 HD
ATOM     19  H   UNL     1      31.157  -7.920 -22.001  0.00  0.00    +0.152 HD
ENDROOT
BRANCH   6  22
ATOM     20  O   UNL     1      32.870 -16.748 -20.883  0.00  0.00    -0.275 OA
ATOM     21  N   UNL     1      34.996 -17.469 -21.497  0.00  0.00    -0.303 N 
ATOM     22  C   UNL     1      33.944 -16.571 -21.450  0.00  0.00    +0.224 C 
ATOM     23  H   UNL     1      35.811 -17.212 -21.986  0.00  0.00    +0.149 HD
BRANCH  21  24
ATOM     24  CA  UNL     1      34.955 -18.767 -20.862  0.00  0.00    +0.101 C 
BRANCH  24  25
ATOM     25  C   UNL     1      33.951 -19.692 -21.561  0.00  0.00    +0.022 C 
ATOM     26  C   UNL     1      32.921 -20.274 -20.602  0.00  0.00    +0.002 C 
ENDBRANCH  24  25
BRANCH  24  27
ATOM     27  C   UNL     1      36.354 -19.384 -20.868  0.00  0.00    +0.157 C 
BRANCH  27  28
ATOM     28  O   UNL     1      36.543 -20.140 -19.677  0.00  0.00    -0.380 OA
ATOM     29  H   UNL     1      35.695 -20.234 -19.216  0.00  0.00    +0.211 HD
ENDBRANCH  27  28
ENDBRANCH  24  27
ENDBRANCH  21  24
ENDBRANCH   6  22
TORSDOF 5
ENDMDL
MODEL 7
REMARK VINA RESULT:      -9.0      3.860      7.853
REMARK  Name = 8226
REMARK  5 active torsions:
REMARK  status: ('A' for Active; 'I' for Inactive)
REMARK    1  A    between atoms: C_6  and  C_22
REMARK    2  A    between atoms: N_21  and  CA_24
REMARK    3  A    between atoms: CA_24  and  C_25
REMARK    4  A    between atoms: CA_24  and  C_27
REMARK    5  A    between atoms: C_27  and  O_28
REMARK                            x       y       z     vdW  Elec       q    Type
REMARK                         _______ _______ _______ _____ _____    ______ ____
ROOT
ATOM      1  N   UNL     1      32.256 -23.828 -15.230  0.00  0.00    +0.390 N 
ATOM      2  N   UNL     1      34.056 -21.067 -20.244  0.00  0.00    -0.312 N 
ATOM      3  C   UNL     1      32.988 -22.887 -16.124  0.00  0.00    -0.031 C 
ATOM      4  C   UNL     1      34.518 -23.173 -16.188  0.00  0.00    -0.045 C 
ATOM      5  C   UNL     1      32.303 -22.876 -17.541  0.00  0.00    +0.011 C 
ATOM      6  C   UNL     1      34.337 -24.707 -14.242  0.00  0.00    +0.077 C 
ATOM      7  C   UNL     1      32.988 -24.036 -13.973  0.00  0.00    -0.063 C 
ATOM      8  C   UNL     1      33.147 -22.163 -18.536  0.00  0.00    -0.008 C 
ATOM      9  C   UNL     1      35.303 -22.479 -17.235  0.00  0.00    -0.005 C 
ATOM     10  C   UNL     1      34.533 -22.031 -18.314  0.00  0.00    +0.010 C 
ATOM     11  C   UNL     1      35.105 -24.036 -15.340  0.00  0.00    -0.026 C 
ATOM     12  C   UNL     1      35.094 -21.351 -19.383  0.00  0.00    +0.048 C 
ATOM     13  C   UNL     1      30.897 -23.365 -14.930  0.00  0.00    -0.100 C 
ATOM     14  C   UNL     1      32.870 -21.559 -19.741  0.00  0.00    +0.058 C 
ATOM     15  C   UNL     1      36.677 -22.214 -17.275  0.00  0.00    -0.000 C 
ATOM     16  C   UNL     1      36.462 -21.079 -19.439  0.00  0.00    +0.015 C 
ATOM     17  C   UNL     1      37.240 -21.527 -18.360  0.00  0.00    +0.001 C 
ATOM     18  H   UNL     1      32.187 -24.712 -15.735  0.00  0.00    -0.079 HD
ATOM     19  H   UNL     1      34.147 -20.584 -21.096  0.00  0.00    +0.152 HD
ENDROOT
BRANCH   6  22
ATOM     20  O   UNL     1      34.704 -24.456 -11.898  0.00  0.00    -0.275 OA
ATOM     21  N   UNL     1      36.535 -24.783 -13.297  0.00  0.00    -0.303 N 
ATOM     22  C   UNL     1      35.189 -24.639 -13.011  0.00  0.00    +0.224 C 
ATOM     23  H   UNL     1      36.803 -24.926 -14.233  0.00  0.00    +0.149 HD
BRANCH  21  24
ATOM     24  CA  UNL     1      37.567 -24.734 -12.286  0.00  0.00    +0.101 C 
BRANCH  24  25
ATOM     25  C   UNL     1      38.835 -25.458 -12.757  0.00  0.00    +0.022 C 
ATOM     26  C   UNL     1      38.887 -25.630 -14.270  0.00  0.00    +0.002 C 
ENDBRANCH  24  25
BRANCH  24  27
ATOM     27  C   UNL     1      37.874 -23.277 -11.938  0.00  0.00    +0.157 C 
BRANCH  27  28
ATOM     28  O   UNL     1      37.195 -22.925 -10.738  0.00  0.00    -0.380 OA
ATOM     29  H   UNL     1      37.660 -23.311  -9.979  0.00  0.00    +0.211 HD
ENDBRANCH  27  28
ENDBRANCH  24  27
ENDBRANCH  21  24
ENDBRANCH   6  22
TORSDOF 5
ENDMDL
MODEL 8
REMARK VINA RESULT:      -8.9      3.591      6.793
REMARK  Name = 8226
REMARK  5 active torsions:
REMARK  status: ('A' for Active; 'I' for Inactive)
REMARK    1  A    between atoms: C_6  and  C_22
REMARK    2  A    between atoms: N_21  and  CA_24
REMARK    3  A    between atoms: CA_24  and  C_25
REMARK    4  A    between atoms: CA_24  and  C_27
REMARK    5  A    between atoms: C_27  and  O_28
REMARK                            x       y       z     vdW  Elec       q    Type
REMARK                         _______ _______ _______ _____ _____    ______ ____
ROOT
ATOM      1  N   UNL     1      33.759 -23.735 -13.545  0.00  0.00    +0.390 N 
ATOM      2  N   UNL     1      37.315 -21.916 -18.024  0.00  0.00    -0.312 N 
ATOM      3  C   UNL     1      34.336 -23.615 -14.914  0.00  0.00    -0.031 C 
ATOM      4  C   UNL     1      33.359 -22.955 -15.933  0.00  0.00    -0.045 C 
ATOM      5  C   UNL     1      35.727 -22.883 -14.831  0.00  0.00    +0.011 C 
ATOM      6  C   UNL     1      31.483 -23.193 -14.322  0.00  0.00    +0.077 C 
ATOM      7  C   UNL     1      32.370 -24.211 -13.600  0.00  0.00    -0.063 C 
ATOM      8  C   UNL     1      36.214 -22.507 -16.184  0.00  0.00    -0.008 C 
ATOM      9  C   UNL     1      33.909 -22.547 -17.245  0.00  0.00    -0.005 C 
ATOM     10  C   UNL     1      35.297 -22.367 -17.246  0.00  0.00    +0.010 C 
ATOM     11  C   UNL     1      32.068 -22.740 -15.625  0.00  0.00    -0.026 C 
ATOM     12  C   UNL     1      35.988 -21.996 -18.388  0.00  0.00    +0.048 C 
ATOM     13  C   UNL     1      34.544 -24.628 -12.688  0.00  0.00    -0.100 C 
ATOM     14  C   UNL     1      37.462 -22.221 -16.687  0.00  0.00    +0.058 C 
ATOM     15  C   UNL     1      33.236 -22.334 -18.454  0.00  0.00    -0.000 C 
ATOM     16  C   UNL     1      35.332 -21.779 -19.600  0.00  0.00    +0.015 C 
ATOM     17  C   UNL     1      33.939 -21.956 -19.607  0.00  0.00    +0.001 C 
ATOM     18  H   UNL     1      33.784 -22.799 -13.139  0.00  0.00    -0.079 HD
ATOM     19  H   UNL     1      38.052 -21.676 -18.630  0.00  0.00    +0.152 HD
ENDROOT
BRANCH   6  22
ATOM     20  O   UNL     1      29.857 -24.938 -14.240  0.00  0.00    -0.275 OA
ATOM     21  N   UNL     1      29.360 -22.988 -15.410  0.00  0.00    -0.303 N 
ATOM     22  C   UNL     1      30.154 -23.814 -14.634  0.00  0.00    +0.224 C 
ATOM     23  H   UNL     1      29.710 -22.104 -15.663  0.00  0.00    +0.149 HD
BRANCH  21  24
ATOM     24  CA  UNL     1      28.040 -23.362 -15.865  0.00  0.00    +0.101 C 
BRANCH  24  25
ATOM     25  C   UNL     1      27.031 -22.233 -15.617  0.00  0.00    +0.022 C 
ATOM     26  C   UNL     1      26.433 -21.685 -16.906  0.00  0.00    +0.002 C 
ENDBRANCH  24  25
BRANCH  24  27
ATOM     27  C   UNL     1      28.094 -23.723 -17.350  0.00  0.00    +0.157 C 
BRANCH  27  28
ATOM     28  O   UNL     1      27.466 -24.984 -17.553  0.00  0.00    -0.380 OA
ATOM     29  H   UNL     1      27.499 -25.498 -16.731  0.00  0.00    +0.211 HD
ENDBRANCH  27  28
ENDBRANCH  24  27
ENDBRANCH  21  24
ENDBRANCH   6  22
TORSDOF 5
ENDMDL
MODEL 9
REMARK VINA RESULT:      -8.7      3.613      6.585
REMARK  Name = 8226
REMARK  5 active torsions:
REMARK  status: ('A' for Active; 'I' for Inactive)
REMARK    1  A    between atoms: C_6  and  C_22
REMARK    2  A    between atoms: N_21  and  CA_24
REMARK    3  A    between atoms: CA_24  and  C_25
REMARK    4  A    between atoms: CA_24  and  C_27
REMARK    5  A    between atoms: C_27  and  O_28
REMARK                            x       y       z     vdW  Elec       q    Type
REMARK                         _______ _______ _______ _____ _____    ______ ____
ROOT
ATOM      1  N   UNL     1      34.651 -22.241 -17.747  0.00  0.00    +0.390 N 
ATOM      2  N   UNL     1      29.127 -23.669 -15.890  0.00  0.00    -0.312 N 
ATOM      3  C   UNL     1      33.528 -23.038 -17.178  0.00  0.00    -0.031 C 
ATOM      4  C   UNL     1      33.703 -23.340 -15.660  0.00  0.00    -0.045 C 
ATOM      5  C   UNL     1      32.163 -22.328 -17.513  0.00  0.00    +0.011 C 
ATOM      6  C   UNL     1      36.065 -22.577 -15.756  0.00  0.00    +0.077 C 
ATOM      7  C   UNL     1      35.947 -22.745 -17.273  0.00  0.00    -0.063 C 
ATOM      8  C   UNL     1      31.044 -22.937 -16.748  0.00  0.00    -0.008 C 
ATOM      9  C   UNL     1      32.538 -23.892 -14.931  0.00  0.00    -0.005 C 
ATOM     10  C   UNL     1      31.310 -23.641 -15.555  0.00  0.00    +0.010 C 
ATOM     11  C   UNL     1      34.860 -23.086 -15.024  0.00  0.00    -0.026 C 
ATOM     12  C   UNL     1      30.112 -24.091 -15.024  0.00  0.00    +0.048 C 
ATOM     13  C   UNL     1      34.640 -22.234 -19.214  0.00  0.00    -0.100 C 
ATOM     14  C   UNL     1      29.681 -22.964 -16.938  0.00  0.00    +0.058 C 
ATOM     15  C   UNL     1      32.511 -24.622 -13.737  0.00  0.00    -0.000 C 
ATOM     16  C   UNL     1      30.068 -24.819 -13.834  0.00  0.00    +0.015 C 
ATOM     17  C   UNL     1      31.296 -25.073 -13.203  0.00  0.00    +0.001 C 
ATOM     18  H   UNL     1      34.518 -21.283 -17.424  0.00  0.00    -0.079 HD
ATOM     19  H   UNL     1      28.165 -23.844 -15.777  0.00  0.00    +0.152 HD
ENDROOT
BRANCH   6  22
ATOM     20  O   UNL     1      38.380 -23.148 -15.663  0.00  0.00    -0.275 OA
ATOM     21  N   UNL     1      36.877 -24.313 -14.321  0.00  0.00    -0.303 N 
ATOM     22  C   UNL     1      37.242 -23.356 -15.253  0.00  0.00    +0.224 C 
ATOM     23  H   UNL     1      35.928 -24.384 -14.070  0.00  0.00    +0.149 HD
BRANCH  21  24
ATOM     24  CA  UNL     1      37.823 -25.212 -13.699  0.00  0.00    +0.101 C 
BRANCH  24  25
ATOM     25  C   UNL     1      38.810 -25.773 -14.730  0.00  0.00    +0.022 C 
ATOM     26  C   UNL     1      40.249 -25.768 -14.229  0.00  0.00    +0.002 C 
ENDBRANCH  24  25
BRANCH  24  27
ATOM     27  C   UNL     1      38.565 -24.480 -12.581  0.00  0.00    +0.157 C 
BRANCH  27  28
ATOM     28  O   UNL     1      37.879 -24.677 -11.349  0.00  0.00    -0.380 OA
ATOM     29  H   UNL     1      36.922 -24.652 -11.505  0.00  0.00    +0.211 HD
ENDBRANCH  27  28
ENDBRANCH  24  27
ENDBRANCH  21  24
ENDBRANCH   6  22
TORSDOF 5
ENDMDL
