MODEL 1
REMARK VINA RESULT:      -7.2      0.000      0.000
REMARK  Name = 447537
REMARK  7 active torsions:
REMARK  status: ('A' for Active; 'I' for Inactive)
REMARK    1  A    between atoms: C_1  and  C_2
REMARK    2  A    between atoms: C_1  and  P_8
REMARK    3  A    between atoms: C_1  and  P_14
REMARK    4  A    between atoms: P_8  and  O_10
REMARK    5  A    between atoms: P_8  and  O_12
REMARK    6  A    between atoms: P_14  and  O_16
REMARK    7  A    between atoms: P_14  and  O_18
REMARK                            x       y       z     vdW  Elec       q    Type
REMARK                         _______ _______ _______ _____ _____    ______ ____
ROOT
ATOM      1  C   UNL     1      37.351 -24.737 -14.028  0.00  0.00    +0.229 C 
ENDROOT
BRANCH   1   2
ATOM      2  C   UNL     1      36.786 -23.823 -15.107  0.00  0.00    +0.001 C 
ATOM      3  C   UNL     1      37.649 -23.000 -15.802  0.00  0.00    -0.003 C 
ATOM      4  C   UNL     1      35.430 -23.845 -15.357  0.00  0.00    -0.003 C 
ATOM      5  C   UNL     1      37.131 -22.162 -16.790  0.00  0.00    -0.000 C 
ATOM      6  C   UNL     1      34.912 -23.008 -16.346  0.00  0.00    -0.000 C 
ATOM      7  C   UNL     1      35.763 -22.167 -17.063  0.00  0.00    -0.000 C 
ENDBRANCH   1   2
BRANCH   1   8
ATOM      8  P   UNL     1      37.329 -26.500 -14.559  0.00  0.00    +0.352 P 
ATOM      9  O   UNL     1      36.473 -26.785 -15.757  0.00  0.00    -0.257 OA
BRANCH   8  10
ATOM     10  O   UNL     1      36.902 -27.279 -13.209  0.00  0.00    -0.323 OA
ATOM     11  H   UNL     1      35.935 -27.336 -13.161  0.00  0.00    +0.220 HD
ENDBRANCH   8  10
BRANCH   8  12
ATOM     12  O   UNL     1      38.896 -26.866 -14.718  0.00  0.00    -0.323 OA
ATOM     13  H   UNL     1      39.032 -27.802 -14.500  0.00  0.00    +0.220 HD
ENDBRANCH   8  12
ENDBRANCH   1   8
BRANCH   1  14
ATOM     14  P   UNL     1      36.731 -24.248 -12.363  0.00  0.00    +0.352 P 
ATOM     15  O   UNL     1      36.572 -22.769 -12.168  0.00  0.00    -0.257 OA
BRANCH  14  16
ATOM     16  O   UNL     1      35.384 -25.125 -12.188  0.00  0.00    -0.323 OA
ATOM     17  H   UNL     1      35.096 -25.449 -13.055  0.00  0.00    +0.220 HD
ENDBRANCH  14  16
BRANCH  14  18
ATOM     18  O   UNL     1      37.775 -24.967 -11.362  0.00  0.00    -0.323 OA
ATOM     19  H   UNL     1      37.369 -25.063 -10.485  0.00  0.00    +0.220 HD
ENDBRANCH  14  18
ENDBRANCH   1  14
TORSDOF 7
ENDMDL
MODEL 2
REMARK VINA RESULT:      -7.1      9.365     10.465
REMARK  Name = 447537
REMARK  7 active torsions:
REMARK  status: ('A' for Active; 'I' for Inactive)
REMARK    1  A    between atoms: C_1  and  C_2
REMARK    2  A    between atoms: C_1  and  P_8
REMARK    3  A    between atoms: C_1  and  P_14
REMARK    4  A    between atoms: P_8  and  O_10
REMARK    5  A    between atoms: P_8  and  O_12
REMARK    6  A    between atoms: P_14  and  O_16
REMARK    7  A    between atoms: P_14  and  O_18
REMARK                            x       y       z     vdW  Elec       q    Type
REMARK                         _______ _______ _______ _____ _____    ______ ____
ROOT
ATOM      1  C   UNL     1      34.180 -18.010 -22.197  0.00  0.00    +0.229 C 
ENDROOT
BRANCH   1   2
ATOM      2  C   UNL     1      34.133 -19.193 -21.239  0.00  0.00    +0.001 C 
ATOM      3  C   UNL     1      35.317 -19.798 -20.869  0.00  0.00    -0.003 C 
ATOM      4  C   UNL     1      32.909 -19.623 -20.771  0.00  0.00    -0.003 C 
ATOM      5  C   UNL     1      35.274 -20.882 -19.993  0.00  0.00    -0.000 C 
ATOM      6  C   UNL     1      32.866 -20.707 -19.893  0.00  0.00    -0.000 C 
ATOM      7  C   UNL     1      34.048 -21.336 -19.503  0.00  0.00    -0.000 C 
ENDBRANCH   1   2
BRANCH   1   8
ATOM      8  P   UNL     1      35.274 -18.353 -23.639  0.00  0.00    +0.352 P 
ATOM      9  O   UNL     1      35.003 -19.652 -24.337  0.00  0.00    -0.257 OA
BRANCH   8  10
ATOM     10  O   UNL     1      36.756 -18.207 -23.011  0.00  0.00    -0.323 OA
ATOM     11  H   UNL     1      37.178 -17.407 -23.359  0.00  0.00    +0.220 HD
ENDBRANCH   8  10
BRANCH   8  12
ATOM     12  O   UNL     1      35.126 -17.026 -24.549  0.00  0.00    -0.323 OA
ATOM     13  H   UNL     1      34.868 -17.280 -25.450  0.00  0.00    +0.220 HD
ENDBRANCH   8  12
ENDBRANCH   1   8
BRANCH   1  14
ATOM     14  P   UNL     1      34.314 -16.421 -21.272  0.00  0.00    +0.352 P 
ATOM     15  O   UNL     1      35.249 -16.461 -20.100  0.00  0.00    -0.257 OA
BRANCH  14  16
ATOM     16  O   UNL     1      34.679 -15.344 -22.420  0.00  0.00    -0.323 OA
ATOM     17  H   UNL     1      34.306 -15.636 -23.267  0.00  0.00    +0.220 HD
ENDBRANCH  14  16
BRANCH  14  18
ATOM     18  O   UNL     1      32.777 -16.079 -20.915  0.00  0.00    -0.323 OA
ATOM     19  H   UNL     1      32.448 -16.713 -20.257  0.00  0.00    +0.220 HD
ENDBRANCH  14  18
ENDBRANCH   1  14
TORSDOF 7
ENDMDL
MODEL 3
REMARK VINA RESULT:      -7.1      9.368     10.535
REMARK  Name = 447537
REMARK  7 active torsions:
REMARK  status: ('A' for Active; 'I' for Inactive)
REMARK    1  A    between atoms: C_1  and  C_2
REMARK    2  A    between atoms: C_1  and  P_8
REMARK    3  A    between atoms: C_1  and  P_14
REMARK    4  A    between atoms: P_8  and  O_10
REMARK    5  A    between atoms: P_8  and  O_12
REMARK    6  A    between atoms: P_14  and  O_16
REMARK    7  A    between atoms: P_14  and  O_18
REMARK                            x       y       z     vdW  Elec       q    Type
REMARK                         _______ _______ _______ _____ _____    ______ ____
ROOT
ATOM      1  C   UNL     1      34.178 -18.005 -22.198  0.00  0.00    +0.229 C 
ENDROOT
BRANCH   1   2
ATOM      2  C   UNL     1      34.127 -19.187 -21.240  0.00  0.00    +0.001 C 
ATOM      3  C   UNL     1      32.901 -19.614 -20.773  0.00  0.00    -0.003 C 
ATOM      4  C   UNL     1      35.308 -19.796 -20.869  0.00  0.00    -0.003 C 
ATOM      5  C   UNL     1      32.854 -20.696 -19.895  0.00  0.00    -0.000 C 
ATOM      6  C   UNL     1      35.261 -20.880 -19.991  0.00  0.00    -0.000 C 
ATOM      7  C   UNL     1      34.034 -21.330 -19.504  0.00  0.00    -0.000 C 
ENDBRANCH   1   2
BRANCH   1   8
ATOM      8  P   UNL     1      35.274 -18.351 -23.637  0.00  0.00    +0.352 P 
ATOM      9  O   UNL     1      35.003 -19.649 -24.336  0.00  0.00    -0.257 OA
BRANCH   8  10
ATOM     10  O   UNL     1      36.756 -18.208 -23.006  0.00  0.00    -0.323 OA
ATOM     11  H   UNL     1      37.415 -18.238 -23.717  0.00  0.00    +0.220 HD
ENDBRANCH   8  10
BRANCH   8  12
ATOM     12  O   UNL     1      35.131 -17.023 -24.549  0.00  0.00    -0.323 OA
ATOM     13  H   UNL     1      35.796 -16.371 -24.277  0.00  0.00    +0.220 HD
ENDBRANCH   8  12
ENDBRANCH   1   8
BRANCH   1  14
ATOM     14  P   UNL     1      34.313 -16.416 -21.274  0.00  0.00    +0.352 P 
ATOM     15  O   UNL     1      35.246 -16.456 -20.100  0.00  0.00    -0.257 OA
BRANCH  14  16
ATOM     16  O   UNL     1      34.681 -15.340 -22.422  0.00  0.00    -0.323 OA
ATOM     17  H   UNL     1      34.793 -14.465 -22.020  0.00  0.00    +0.220 HD
ENDBRANCH  14  16
BRANCH  14  18
ATOM     18  O   UNL     1      32.775 -16.071 -20.919  0.00  0.00    -0.323 OA
ATOM     19  H   UNL     1      32.224 -16.207 -21.707  0.00  0.00    +0.220 HD
ENDBRANCH  14  18
ENDBRANCH   1  14
TORSDOF 7
ENDMDL
MODEL 4
REMARK VINA RESULT:      -7.0      0.934      3.113
REMARK  Name = 447537
REMARK  7 active torsions:
REMARK  status: ('A' for Active; 'I' for Inactive)
REMARK    1  A    between atoms: C_1  and  C_2
REMARK    2  A    between atoms: C_1  and  P_8
REMARK    3  A    between atoms: C_1  and  P_14
REMARK    4  A    between atoms: P_8  and  O_10
REMARK    5  A    between atoms: P_8  and  O_12
REMARK    6  A    between atoms: P_14  and  O_16
REMARK    7  A    between atoms: P_14  and  O_18
REMARK                            x       y       z     vdW  Elec       q    Type
REMARK                         _______ _______ _______ _____ _____    ______ ____
ROOT
ATOM      1  C   UNL     1      36.138 -24.803 -13.970  0.00  0.00    +0.229 C 
ENDROOT
BRANCH   1   2
ATOM      2  C   UNL     1      36.201 -23.804 -15.117  0.00  0.00    +0.001 C 
ATOM      3  C   UNL     1      37.386 -23.140 -15.358  0.00  0.00    -0.003 C 
ATOM      4  C   UNL     1      35.072 -23.594 -15.881  0.00  0.00    -0.003 C 
ATOM      5  C   UNL     1      37.444 -22.224 -16.408  0.00  0.00    -0.000 C 
ATOM      6  C   UNL     1      35.130 -22.679 -16.932  0.00  0.00    -0.000 C 
ATOM      7  C   UNL     1      36.316 -21.994 -17.197  0.00  0.00    -0.000 C 
ENDBRANCH   1   2
BRANCH   1   8
ATOM      8  P   UNL     1      35.834 -23.962 -12.360  0.00  0.00    +0.352 P 
ATOM      9  O   UNL     1      36.759 -22.820 -12.064  0.00  0.00    -0.257 OA
BRANCH   8  10
ATOM     10  O   UNL     1      35.888 -25.181 -11.299  0.00  0.00    -0.323 OA
ATOM     11  H   UNL     1      34.985 -25.443 -11.061  0.00  0.00    +0.220 HD
ENDBRANCH   8  10
BRANCH   8  12
ATOM     12  O   UNL     1      34.262 -23.591 -12.418  0.00  0.00    -0.323 OA
ATOM     13  H   UNL     1      33.878 -23.671 -11.530  0.00  0.00    +0.220 HD
ENDBRANCH   8  12
ENDBRANCH   1   8
BRANCH   1  14
ATOM     14  P   UNL     1      37.463 -26.074 -14.132  0.00  0.00    +0.352 P 
ATOM     15  O   UNL     1      38.829 -25.603 -13.729  0.00  0.00    -0.257 OA
BRANCH  14  16
ATOM     16  O   UNL     1      36.884 -27.333 -13.300  0.00  0.00    -0.323 OA
ATOM     17  H   UNL     1      37.231 -28.156 -13.677  0.00  0.00    +0.220 HD
ENDBRANCH  14  16
BRANCH  14  18
ATOM     18  O   UNL     1      37.324 -26.549 -15.670  0.00  0.00    -0.323 OA
ATOM     19  H   UNL     1      37.220 -27.513 -15.702  0.00  0.00    +0.220 HD
ENDBRANCH  14  18
ENDBRANCH   1  14
TORSDOF 7
ENDMDL
MODEL 5
REMARK VINA RESULT:      -7.0      0.932      3.332
REMARK  Name = 447537
REMARK  7 active torsions:
REMARK  status: ('A' for Active; 'I' for Inactive)
REMARK    1  A    between atoms: C_1  and  C_2
REMARK    2  A    between atoms: C_1  and  P_8
REMARK    3  A    between atoms: C_1  and  P_14
REMARK    4  A    between atoms: P_8  and  O_10
REMARK    5  A    between atoms: P_8  and  O_12
REMARK    6  A    between atoms: P_14  and  O_16
REMARK    7  A    between atoms: P_14  and  O_18
REMARK                            x       y       z     vdW  Elec       q    Type
REMARK                         _______ _______ _______ _____ _____    ______ ____
ROOT
ATOM      1  C   UNL     1      36.159 -24.795 -13.963  0.00  0.00    +0.229 C 
ENDROOT
BRANCH   1   2
ATOM      2  C   UNL     1      36.222 -23.796 -15.110  0.00  0.00    +0.001 C 
ATOM      3  C   UNL     1      35.087 -23.573 -15.862  0.00  0.00    -0.003 C 
ATOM      4  C   UNL     1      37.411 -23.145 -15.363  0.00  0.00    -0.003 C 
ATOM      5  C   UNL     1      35.144 -22.659 -16.914  0.00  0.00    -0.000 C 
ATOM      6  C   UNL     1      37.469 -22.230 -16.414  0.00  0.00    -0.000 C 
ATOM      7  C   UNL     1      36.335 -21.986 -17.190  0.00  0.00    -0.000 C 
ENDBRANCH   1   2
BRANCH   1   8
ATOM      8  P   UNL     1      35.862 -23.952 -12.352  0.00  0.00    +0.352 P 
ATOM      9  O   UNL     1      36.783 -22.804 -12.065  0.00  0.00    -0.257 OA
BRANCH   8  10
ATOM     10  O   UNL     1      35.930 -25.169 -11.290  0.00  0.00    -0.323 OA
ATOM     11  H   UNL     1      35.079 -25.247 -10.832  0.00  0.00    +0.220 HD
ENDBRANCH   8  10
BRANCH   8  12
ATOM     12  O   UNL     1      34.287 -23.591 -12.399  0.00  0.00    -0.323 OA
ATOM     13  H   UNL     1      33.777 -24.393 -12.593  0.00  0.00    +0.220 HD
ENDBRANCH   8  12
ENDBRANCH   1   8
BRANCH   1  14
ATOM     14  P   UNL     1      37.479 -26.070 -14.128  0.00  0.00    +0.352 P 
ATOM     15  O   UNL     1      38.845 -25.608 -13.715  0.00  0.00    -0.257 OA
BRANCH  14  16
ATOM     16  O   UNL     1      36.891 -27.333 -13.308  0.00  0.00    -0.323 OA
ATOM     17  H   UNL     1      37.073 -28.149 -13.799  0.00  0.00    +0.220 HD
ENDBRANCH  14  16
BRANCH  14  18
ATOM     18  O   UNL     1      37.346 -26.532 -15.670  0.00  0.00    -0.323 OA
ATOM     19  H   UNL     1      36.416 -26.725 -15.871  0.00  0.00    +0.220 HD
ENDBRANCH  14  18
ENDBRANCH   1  14
TORSDOF 7
ENDMDL
MODEL 6
REMARK VINA RESULT:      -6.9      0.827      1.747
REMARK  Name = 447537
REMARK  7 active torsions:
REMARK  status: ('A' for Active; 'I' for Inactive)
REMARK    1  A    between atoms: C_1  and  C_2
REMARK    2  A    between atoms: C_1  and  P_8
REMARK    3  A    between atoms: C_1  and  P_14
REMARK    4  A    between atoms: P_8  and  O_10
REMARK    5  A    between atoms: P_8  and  O_12
REMARK    6  A    between atoms: P_14  and  O_16
REMARK    7  A    between atoms: P_14  and  O_18
REMARK                            x       y       z     vdW  Elec       q    Type
REMARK                         _______ _______ _______ _____ _____    ______ ____
ROOT
ATOM      1  C   UNL     1      37.667 -24.160 -13.796  0.00  0.00    +0.229 C 
ENDROOT
BRANCH   1   2
ATOM      2  C   UNL     1      36.877 -23.538 -14.940  0.00  0.00    +0.001 C 
ATOM      3  C   UNL     1      37.529 -22.698 -15.819  0.00  0.00    -0.003 C 
ATOM      4  C   UNL     1      35.536 -23.834 -15.063  0.00  0.00    -0.003 C 
ATOM      5  C   UNL     1      36.806 -22.127 -16.867  0.00  0.00    -0.000 C 
ATOM      6  C   UNL     1      34.813 -23.264 -16.111  0.00  0.00    -0.000 C 
ATOM      7  C   UNL     1      35.448 -22.410 -17.014  0.00  0.00    -0.000 C 
ENDBRANCH   1   2
BRANCH   1   8
ATOM      8  P   UNL     1      37.968 -25.954 -14.084  0.00  0.00    +0.352 P 
ATOM      9  O   UNL     1      39.377 -26.402 -13.833  0.00  0.00    -0.257 OA
BRANCH   8  10
ATOM     10  O   UNL     1      37.437 -26.173 -15.595  0.00  0.00    -0.323 OA
ATOM     11  H   UNL     1      36.716 -25.551 -15.778  0.00  0.00    +0.220 HD
ENDBRANCH   8  10
BRANCH   8  12
ATOM     12  O   UNL     1      36.835 -26.677 -13.185  0.00  0.00    -0.323 OA
ATOM     13  H   UNL     1      37.005 -26.498 -12.246  0.00  0.00    +0.220 HD
ENDBRANCH   8  12
ENDBRANCH   1   8
BRANCH   1  14
ATOM     14  P   UNL     1      37.047 -23.560 -12.168  0.00  0.00    +0.352 P 
ATOM     15  O   UNL     1      35.553 -23.468 -12.066  0.00  0.00    -0.257 OA
BRANCH  14  16
ATOM     16  O   UNL     1      37.761 -24.546 -11.104  0.00  0.00    -0.323 OA
ATOM     17  H   UNL     1      38.603 -24.159 -10.820  0.00  0.00    +0.220 HD
ENDBRANCH  14  16
BRANCH  14  18
ATOM     18  O   UNL     1      37.838 -22.165 -11.971  0.00  0.00    -0.323 OA
ATOM     19  H   UNL     1      38.434 -22.022 -12.723  0.00  0.00    +0.220 HD
ENDBRANCH  14  18
ENDBRANCH   1  14
TORSDOF 7
ENDMDL
MODEL 7
REMARK VINA RESULT:      -6.9      1.330      1.977
REMARK  Name = 447537
REMARK  7 active torsions:
REMARK  status: ('A' for Active; 'I' for Inactive)
REMARK    1  A    between atoms: C_1  and  C_2
REMARK    2  A    between atoms: C_1  and  P_8
REMARK    3  A    between atoms: C_1  and  P_14
REMARK    4  A    between atoms: P_8  and  O_10
REMARK    5  A    between atoms: P_8  and  O_12
REMARK    6  A    between atoms: P_14  and  O_16
REMARK    7  A    between atoms: P_14  and  O_18
REMARK                            x       y       z     vdW  Elec       q    Type
REMARK                         _______ _______ _______ _____ _____    ______ ____
ROOT
ATOM      1  C   UNL     1      36.912 -24.656 -14.187  0.00  0.00    +0.229 C 
ENDROOT
BRANCH   1   2
ATOM      2  C   UNL     1      35.487 -24.197 -14.462  0.00  0.00    +0.001 C 
ATOM      3  C   UNL     1      35.212 -23.557 -15.653  0.00  0.00    -0.003 C 
ATOM      4  C   UNL     1      34.515 -24.434 -13.513  0.00  0.00    -0.003 C 
ATOM      5  C   UNL     1      33.906 -23.135 -15.905  0.00  0.00    -0.000 C 
ATOM      6  C   UNL     1      33.209 -24.013 -13.765  0.00  0.00    -0.000 C 
ATOM      7  C   UNL     1      32.904 -23.364 -14.962  0.00  0.00    -0.000 C 
ENDBRANCH   1   2
BRANCH   1   8
ATOM      8  P   UNL     1      37.151 -26.424 -14.648  0.00  0.00    +0.352 P 
ATOM      9  O   UNL     1      36.421 -26.854 -15.885  0.00  0.00    -0.257 OA
BRANCH   8  10
ATOM     10  O   UNL     1      36.735 -27.209 -13.297  0.00  0.00    -0.323 OA
ATOM     11  H   UNL     1      35.771 -27.192 -13.196  0.00  0.00    +0.220 HD
ENDBRANCH   8  10
BRANCH   8  12
ATOM     12  O   UNL     1      38.758 -26.589 -14.692  0.00  0.00    -0.323 OA
ATOM     13  H   UNL     1      38.985 -27.531 -14.756  0.00  0.00    +0.220 HD
ENDBRANCH   8  12
ENDBRANCH   1   8
BRANCH   1  14
ATOM     14  P   UNL     1      37.507 -24.020 -12.563  0.00  0.00    +0.352 P 
ATOM     15  O   UNL     1      37.024 -22.640 -12.222  0.00  0.00    -0.257 OA
BRANCH  14  16
ATOM     16  O   UNL     1      37.087 -25.184 -11.523  0.00  0.00    -0.323 OA
ATOM     17  H   UNL     1      36.167 -25.445 -11.685  0.00  0.00    +0.220 HD
ENDBRANCH  14  16
BRANCH  14  18
ATOM     18  O   UNL     1      39.110 -24.180 -12.674  0.00  0.00    -0.323 OA
ATOM     19  H   UNL     1      39.351 -24.387 -13.592  0.00  0.00    +0.220 HD
ENDBRANCH  14  18
ENDBRANCH   1  14
TORSDOF 7
ENDMDL
MODEL 8
REMARK VINA RESULT:      -6.9      0.731      1.700
REMARK  Name = 447537
REMARK  7 active torsions:
REMARK  status: ('A' for Active; 'I' for Inactive)
REMARK    1  A    between atoms: C_1  and  C_2
REMARK    2  A    between atoms: C_1  and  P_8
REMARK    3  A    between atoms: C_1  and  P_14
REMARK    4  A    between atoms: P_8  and  O_10
REMARK    5  A    between atoms: P_8  and  O_12
REMARK    6  A    between atoms: P_14  and  O_16
REMARK    7  A    between atoms: P_14  and  O_18
REMARK                            x       y       z     vdW  Elec       q    Type
REMARK                         _______ _______ _______ _____ _____    ______ ____
ROOT
ATOM      1  C   UNL     1      37.593 -24.279 -13.926  0.00  0.00    +0.229 C 
ENDROOT
BRANCH   1   2
ATOM      2  C   UNL     1      36.876 -23.565 -15.063  0.00  0.00    +0.001 C 
ATOM      3  C   UNL     1      35.526 -23.788 -15.243  0.00  0.00    -0.003 C 
ATOM      4  C   UNL     1      37.596 -22.717 -15.878  0.00  0.00    -0.003 C 
ATOM      5  C   UNL     1      34.869 -23.134 -16.286  0.00  0.00    -0.000 C 
ATOM      6  C   UNL     1      36.939 -22.062 -16.920  0.00  0.00    -0.000 C 
ATOM      7  C   UNL     1      35.574 -22.271 -17.124  0.00  0.00    -0.000 C 
ENDBRANCH   1   2
BRANCH   1   8
ATOM      8  P   UNL     1      37.698 -26.092 -14.228  0.00  0.00    +0.352 P 
ATOM      9  O   UNL     1      37.258 -26.528 -15.593  0.00  0.00    -0.257 OA
BRANCH   8  10
ATOM     10  O   UNL     1      36.846 -26.713 -13.002  0.00  0.00    -0.323 OA
ATOM     11  H   UNL     1      36.352 -26.005 -12.560  0.00  0.00    +0.220 HD
ENDBRANCH   8  10
BRANCH   8  12
ATOM     12  O   UNL     1      39.224 -26.453 -13.838  0.00  0.00    -0.323 OA
ATOM     13  H   UNL     1      39.289 -27.398 -13.625  0.00  0.00    +0.220 HD
ENDBRANCH   8  12
ENDBRANCH   1   8
BRANCH   1  14
ATOM     14  P   UNL     1      37.044 -23.627 -12.291  0.00  0.00    +0.352 P 
ATOM     15  O   UNL     1      35.557 -23.506 -12.138  0.00  0.00    -0.257 OA
BRANCH  14  16
ATOM     16  O   UNL     1      37.779 -24.600 -11.230  0.00  0.00    -0.323 OA
ATOM     17  H   UNL     1      38.039 -24.088 -10.449  0.00  0.00    +0.220 HD
ENDBRANCH  14  16
BRANCH  14  18
ATOM     18  O   UNL     1      37.865 -22.243 -12.158  0.00  0.00    -0.323 OA
ATOM     19  H   UNL     1      38.636 -22.266 -12.748  0.00  0.00    +0.220 HD
ENDBRANCH  14  18
ENDBRANCH   1  14
TORSDOF 7
ENDMDL
MODEL 9
REMARK VINA RESULT:      -6.7      1.476      3.396
REMARK  Name = 447537
REMARK  7 active torsions:
REMARK  status: ('A' for Active; 'I' for Inactive)
REMARK    1  A    between atoms: C_1  and  C_2
REMARK    2  A    between atoms: C_1  and  P_8
REMARK    3  A    between atoms: C_1  and  P_14
REMARK    4  A    between atoms: P_8  and  O_10
REMARK    5  A    between atoms: P_8  and  O_12
REMARK    6  A    between atoms: P_14  and  O_16
REMARK    7  A    between atoms: P_14  and  O_18
REMARK                            x       y       z     vdW  Elec       q    Type
REMARK                         _______ _______ _______ _____ _____    ______ ____
ROOT
ATOM      1  C   UNL     1      36.311 -25.115 -13.511  0.00  0.00    +0.229 C 
ENDROOT
BRANCH   1   2
ATOM      2  C   UNL     1      35.234 -24.446 -14.354  0.00  0.00    +0.001 C 
ATOM      3  C   UNL     1      35.614 -23.719 -15.464  0.00  0.00    -0.003 C 
ATOM      4  C   UNL     1      33.913 -24.587 -13.984  0.00  0.00    -0.003 C 
ATOM      5  C   UNL     1      34.628 -23.105 -16.237  0.00  0.00    -0.000 C 
ATOM      6  C   UNL     1      32.927 -23.974 -14.757  0.00  0.00    -0.000 C 
ATOM      7  C   UNL     1      33.284 -23.233 -15.884  0.00  0.00    -0.000 C 
ENDBRANCH   1   2
BRANCH   1   8
ATOM      8  P   UNL     1      36.353 -24.428 -11.802  0.00  0.00    +0.352 P 
ATOM      9  O   UNL     1      35.359 -25.034 -10.857  0.00  0.00    -0.257 OA
BRANCH   8  10
ATOM     10  O   UNL     1      36.186 -22.839 -12.048  0.00  0.00    -0.323 OA
ATOM     11  H   UNL     1      37.061 -22.431 -12.135  0.00  0.00    +0.220 HD
ENDBRANCH   8  10
BRANCH   8  12
ATOM     12  O   UNL     1      37.904 -24.575 -11.374  0.00  0.00    -0.323 OA
ATOM     13  H   UNL     1      38.438 -24.779 -12.159  0.00  0.00    +0.220 HD
ENDBRANCH   8  12
ENDBRANCH   1   8
BRANCH   1  14
ATOM     14  P   UNL     1      37.865 -25.327 -14.478  0.00  0.00    +0.352 P 
ATOM     15  O   UNL     1      38.503 -24.043 -14.920  0.00  0.00    -0.257 OA
BRANCH  14  16
ATOM     16  O   UNL     1      38.776 -26.268 -13.530  0.00  0.00    -0.323 OA
ATOM     17  H   UNL     1      39.419 -25.721 -13.053  0.00  0.00    +0.220 HD
ENDBRANCH  14  16
BRANCH  14  18
ATOM     18  O   UNL     1      37.419 -26.321 -15.670  0.00  0.00    -0.323 OA
ATOM     19  H   UNL     1      38.012 -26.202 -16.429  0.00  0.00    +0.220 HD
ENDBRANCH  14  18
ENDBRANCH   1  14
TORSDOF 7
ENDMDL
