MODEL 1
REMARK VINA RESULT:      -8.4      0.000      0.000
REMARK  Name = 5648
REMARK  10 active torsions:
REMARK  status: ('A' for Active; 'I' for Inactive)
REMARK    1  A    between atoms: C_1  and  C_2
REMARK    2  A    between atoms: C_1  and  C_9
REMARK    3  A    between atoms: C_1  and  C_19
REMARK    4  A    between atoms: C_9  and  O_10
REMARK    5  A    between atoms: O_10  and  C_11
REMARK    6  A    between atoms: C_11  and  C_12
REMARK    7  A    between atoms: C_12  and  N_13
REMARK    8  A    between atoms: N_13  and  C_15
REMARK    9  A    between atoms: N_13  and  C_17
REMARK   10  A    between atoms: C_19  and  C_21
REMARK                            x       y       z     vdW  Elec       q    Type
REMARK                         _______ _______ _______ _____ _____    ______ ____
ROOT
ATOM      1  C   UNL     1      35.066 -18.122 -21.825  0.00  0.00    +0.121 C 
ENDROOT
BRANCH   1   2
ATOM      2  C   UNL     1      34.666 -19.343 -21.004  0.00  0.00    -0.012 C 
ATOM      3  C   UNL     1      35.647 -20.196 -20.499  0.00  0.00    -0.004 C 
ATOM      4  C   UNL     1      33.318 -19.607 -20.757  0.00  0.00    -0.004 C 
ATOM      5  C   UNL     1      35.280 -21.313 -19.747  0.00  0.00    -0.000 C 
ATOM      6  C   UNL     1      32.952 -20.722 -20.005  0.00  0.00    -0.000 C 
ATOM      7  C   UNL     1      33.933 -21.576 -19.501  0.00  0.00    -0.000 C 
ENDBRANCH   1   2
BRANCH   1   9
ATOM      8  O   UNL     1      35.206 -16.334 -20.155  0.00  0.00    -0.250 OA
ATOM      9  C   UNL     1      34.672 -16.805 -21.151  0.00  0.00    +0.321 C 
BRANCH   9  10
ATOM     10  O   UNL     1      33.671 -16.202 -21.862  0.00  0.00    -0.451 OA
BRANCH  10  11
ATOM     11  C   UNL     1      33.495 -14.802 -21.621  0.00  0.00    +0.186 C 
BRANCH  11  12
ATOM     12  C   UNL     1      34.201 -14.008 -22.703  0.00  0.00    -0.025 C 
BRANCH  12  13
ATOM     13  N   UNL     1      33.209 -13.166 -23.418  0.00  0.00    +0.391 N 
ATOM     14  C   UNL     1      32.725 -13.862 -24.697  0.00  0.00    -0.096 C 
BRANCH  13  15
ATOM     15  C   UNL     1      33.825 -11.817 -23.813  0.00  0.00    -0.073 C 
ATOM     16  C   UNL     1      33.929 -11.739 -25.321  0.00  0.00    -0.024 C 
ENDBRANCH  13  15
BRANCH  13  17
ATOM     17  C   UNL     1      31.988 -12.892 -22.531  0.00  0.00    -0.073 C 
ATOM     18  C   UNL     1      31.900 -11.408 -22.247  0.00  0.00    -0.024 C 
ENDBRANCH  13  17
ENDBRANCH  12  13
ENDBRANCH  11  12
ENDBRANCH  10  11
ENDBRANCH   9  10
ENDBRANCH   1   9
BRANCH   1  19
ATOM     19  C   UNL     1      34.647 -18.185 -23.330  0.00  0.00    +0.015 C 
ATOM     20  C   UNL     1      34.859 -19.562 -23.972  0.00  0.00    +0.001 C 
BRANCH  19  21
ATOM     21  C   UNL     1      35.324 -17.063 -24.149  0.00  0.00    +0.001 C 
ATOM     22  C   UNL     1      34.605 -16.746 -25.454  0.00  0.00    +0.000 C 
ENDBRANCH  19  21
ENDBRANCH   1  19
TORSDOF 10
ENDMDL
MODEL 2
REMARK VINA RESULT:      -7.8      1.786      7.241
REMARK  Name = 5648
REMARK  10 active torsions:
REMARK  status: ('A' for Active; 'I' for Inactive)
REMARK    1  A    between atoms: C_1  and  C_2
REMARK    2  A    between atoms: C_1  and  C_9
REMARK    3  A    between atoms: C_1  and  C_19
REMARK    4  A    between atoms: C_9  and  O_10
REMARK    5  A    between atoms: O_10  and  C_11
REMARK    6  A    between atoms: C_11  and  C_12
REMARK    7  A    between atoms: C_12  and  N_13
REMARK    8  A    between atoms: N_13  and  C_15
REMARK    9  A    between atoms: N_13  and  C_17
REMARK   10  A    between atoms: C_19  and  C_21
REMARK                            x       y       z     vdW  Elec       q    Type
REMARK                         _______ _______ _______ _____ _____    ______ ____
ROOT
ATOM      1  C   UNL     1      33.073 -13.092 -22.426  0.00  0.00    +0.121 C 
ENDROOT
BRANCH   1   2
ATOM      2  C   UNL     1      33.202 -13.056 -23.945  0.00  0.00    -0.012 C 
ATOM      3  C   UNL     1      33.782 -11.952 -24.569  0.00  0.00    -0.004 C 
ATOM      4  C   UNL     1      32.742 -14.128 -24.709  0.00  0.00    -0.004 C 
ATOM      5  C   UNL     1      33.901 -11.919 -25.959  0.00  0.00    -0.000 C 
ATOM      6  C   UNL     1      32.862 -14.096 -26.099  0.00  0.00    -0.000 C 
ATOM      7  C   UNL     1      33.441 -12.991 -26.723  0.00  0.00    -0.000 C 
ENDBRANCH   1   2
BRANCH   1   9
ATOM      8  O   UNL     1      32.240 -15.253 -21.623  0.00  0.00    -0.250 OA
ATOM      9  C   UNL     1      33.185 -14.510 -21.859  0.00  0.00    +0.321 C 
BRANCH   9  10
ATOM     10  O   UNL     1      34.502 -14.847 -21.709  0.00  0.00    -0.451 OA
BRANCH  10  11
ATOM     11  C   UNL     1      34.752 -16.159 -21.193  0.00  0.00    +0.186 C 
BRANCH  11  12
ATOM     12  C   UNL     1      35.303 -17.041 -22.296  0.00  0.00    -0.025 C 
BRANCH  12  13
ATOM     13  N   UNL     1      35.076 -18.465 -21.944  0.00  0.00    +0.391 N 
ATOM     14  C   UNL     1      36.225 -19.002 -21.081  0.00  0.00    -0.096 C 
BRANCH  13  15
ATOM     15  C   UNL     1      34.984 -19.331 -23.208  0.00  0.00    -0.073 C 
ATOM     16  C   UNL     1      34.610 -18.456 -24.385  0.00  0.00    -0.024 C 
ENDBRANCH  13  15
BRANCH  13  17
ATOM     17  C   UNL     1      33.770 -18.629 -21.156  0.00  0.00    -0.073 C 
ATOM     18  C   UNL     1      33.657 -20.058 -20.669  0.00  0.00    -0.024 C 
ENDBRANCH  13  17
ENDBRANCH  12  13
ENDBRANCH  11  12
ENDBRANCH  10  11
ENDBRANCH   9  10
ENDBRANCH   1   9
BRANCH   1  19
ATOM     19  C   UNL     1      31.845 -12.306 -21.860  0.00  0.00    +0.015 C 
ATOM     20  C   UNL     1      31.716 -10.882 -22.414  0.00  0.00    +0.001 C 
BRANCH  19  21
ATOM     21  C   UNL     1      31.835 -12.319 -20.314  0.00  0.00    +0.001 C 
ATOM     22  C   UNL     1      31.305 -11.029 -19.700  0.00  0.00    +0.000 C 
ENDBRANCH  19  21
ENDBRANCH   1  19
TORSDOF 10
ENDMDL
MODEL 3
REMARK VINA RESULT:      -7.8      1.870      7.468
REMARK  Name = 5648
REMARK  10 active torsions:
REMARK  status: ('A' for Active; 'I' for Inactive)
REMARK    1  A    between atoms: C_1  and  C_2
REMARK    2  A    between atoms: C_1  and  C_9
REMARK    3  A    between atoms: C_1  and  C_19
REMARK    4  A    between atoms: C_9  and  O_10
REMARK    5  A    between atoms: O_10  and  C_11
REMARK    6  A    between atoms: C_11  and  C_12
REMARK    7  A    between atoms: C_12  and  N_13
REMARK    8  A    between atoms: N_13  and  C_15
REMARK    9  A    between atoms: N_13  and  C_17
REMARK   10  A    between atoms: C_19  and  C_21
REMARK                            x       y       z     vdW  Elec       q    Type
REMARK                         _______ _______ _______ _____ _____    ______ ____
ROOT
ATOM      1  C   UNL     1      33.033 -13.051 -22.266  0.00  0.00    +0.121 C 
ENDROOT
BRANCH   1   2
ATOM      2  C   UNL     1      33.216 -12.963 -23.777  0.00  0.00    -0.012 C 
ATOM      3  C   UNL     1      32.793 -14.012 -24.593  0.00  0.00    -0.004 C 
ATOM      4  C   UNL     1      33.804 -11.832 -24.344  0.00  0.00    -0.004 C 
ATOM      5  C   UNL     1      32.960 -13.931 -25.976  0.00  0.00    -0.000 C 
ATOM      6  C   UNL     1      33.970 -11.750 -25.726  0.00  0.00    -0.000 C 
ATOM      7  C   UNL     1      33.548 -12.800 -26.542  0.00  0.00    -0.000 C 
ENDBRANCH   1   2
BRANCH   1   9
ATOM      8  O   UNL     1      32.165 -15.236 -21.573  0.00  0.00    -0.250 OA
ATOM      9  C   UNL     1      33.120 -14.489 -21.746  0.00  0.00    +0.321 C 
BRANCH   9  10
ATOM     10  O   UNL     1      34.429 -14.836 -21.557  0.00  0.00    -0.451 OA
BRANCH  10  11
ATOM     11  C   UNL     1      34.833 -16.076 -22.148  0.00  0.00    +0.186 C 
BRANCH  11  12
ATOM     12  C   UNL     1      34.970 -17.132 -21.069  0.00  0.00    -0.025 C 
BRANCH  12  13
ATOM     13  N   UNL     1      35.291 -18.438 -21.699  0.00  0.00    +0.391 N 
ATOM     14  C   UNL     1      34.101 -19.401 -21.591  0.00  0.00    -0.096 C 
BRANCH  13  15
ATOM     15  C   UNL     1      36.498 -19.091 -21.012  0.00  0.00    -0.073 C 
ATOM     16  C   UNL     1      36.047 -20.350 -20.303  0.00  0.00    -0.024 C 
ENDBRANCH  13  15
BRANCH  13  17
ATOM     17  C   UNL     1      35.626 -18.257 -23.185  0.00  0.00    -0.073 C 
ATOM     18  C   UNL     1      34.851 -19.271 -23.998  0.00  0.00    -0.024 C 
ENDBRANCH  13  17
ENDBRANCH  12  13
ENDBRANCH  11  12
ENDBRANCH  10  11
ENDBRANCH   9  10
ENDBRANCH   1   9
BRANCH   1  19
ATOM     19  C   UNL     1      31.790 -12.279 -21.716  0.00  0.00    +0.015 C 
ATOM     20  C   UNL     1      31.570 -10.913 -22.377  0.00  0.00    +0.001 C 
BRANCH  19  21
ATOM     21  C   UNL     1      31.837 -12.166 -20.174  0.00  0.00    +0.001 C 
ATOM     22  C   UNL     1      31.315 -10.834 -19.648  0.00  0.00    +0.000 C 
ENDBRANCH  19  21
ENDBRANCH   1  19
TORSDOF 10
ENDMDL
MODEL 4
REMARK VINA RESULT:      -7.6      1.833      6.793
REMARK  Name = 5648
REMARK  10 active torsions:
REMARK  status: ('A' for Active; 'I' for Inactive)
REMARK    1  A    between atoms: C_1  and  C_2
REMARK    2  A    between atoms: C_1  and  C_9
REMARK    3  A    between atoms: C_1  and  C_19
REMARK    4  A    between atoms: C_9  and  O_10
REMARK    5  A    between atoms: O_10  and  C_11
REMARK    6  A    between atoms: C_11  and  C_12
REMARK    7  A    between atoms: C_12  and  N_13
REMARK    8  A    between atoms: N_13  and  C_15
REMARK    9  A    between atoms: N_13  and  C_17
REMARK   10  A    between atoms: C_19  and  C_21
REMARK                            x       y       z     vdW  Elec       q    Type
REMARK                         _______ _______ _______ _____ _____    ______ ____
ROOT
ATOM      1  C   UNL     1      32.472 -13.942 -22.320  0.00  0.00    +0.121 C 
ENDROOT
BRANCH   1   2
ATOM      2  C   UNL     1      32.038 -12.660 -21.617  0.00  0.00    -0.012 C 
ATOM      3  C   UNL     1      32.099 -12.573 -20.226  0.00  0.00    -0.004 C 
ATOM      4  C   UNL     1      31.582 -11.575 -22.365  0.00  0.00    -0.004 C 
ATOM      5  C   UNL     1      31.703 -11.400 -19.583  0.00  0.00    -0.000 C 
ATOM      6  C   UNL     1      31.187 -10.401 -21.722  0.00  0.00    -0.000 C 
ATOM      7  C   UNL     1      31.247 -10.315 -20.331  0.00  0.00    -0.000 C 
ENDBRANCH   1   2
BRANCH   1   9
ATOM      8  O   UNL     1      32.017 -15.899 -20.914  0.00  0.00    -0.250 OA
ATOM      9  C   UNL     1      32.811 -15.067 -21.336  0.00  0.00    +0.321 C 
BRANCH   9  10
ATOM     10  O   UNL     1      34.146 -15.039 -21.043  0.00  0.00    -0.451 OA
BRANCH  10  11
ATOM     11  C   UNL     1      34.761 -16.314 -20.831  0.00  0.00    +0.186 C 
BRANCH  11  12
ATOM     12  C   UNL     1      34.937 -17.019 -22.162  0.00  0.00    -0.025 C 
BRANCH  12  13
ATOM     13  N   UNL     1      34.958 -18.487 -21.939  0.00  0.00    +0.391 N 
ATOM     14  C   UNL     1      36.229 -18.905 -21.188  0.00  0.00    -0.096 C 
BRANCH  13  15
ATOM     15  C   UNL     1      34.924 -19.241 -23.275  0.00  0.00    -0.073 C 
ATOM     16  C   UNL     1      34.818 -18.243 -24.408  0.00  0.00    -0.024 C 
ENDBRANCH  13  15
BRANCH  13  17
ATOM     17  C   UNL     1      33.746 -18.929 -21.109  0.00  0.00    -0.073 C 
ATOM     18  C   UNL     1      34.048 -20.261 -20.456  0.00  0.00    -0.024 C 
ENDBRANCH  13  17
ENDBRANCH  12  13
ENDBRANCH  11  12
ENDBRANCH  10  11
ENDBRANCH   9  10
ENDBRANCH   1   9
BRANCH   1  19
ATOM     19  C   UNL     1      33.567 -13.743 -23.416  0.00  0.00    +0.015 C 
ATOM     20  C   UNL     1      33.651 -12.308 -23.951  0.00  0.00    +0.001 C 
BRANCH  19  21
ATOM     21  C   UNL     1      33.409 -14.770 -24.561  0.00  0.00    +0.001 C 
ATOM     22  C   UNL     1      33.053 -14.136 -25.900  0.00  0.00    +0.000 C 
ENDBRANCH  19  21
ENDBRANCH   1  19
TORSDOF 10
ENDMDL
MODEL 5
REMARK VINA RESULT:      -7.5      3.622      9.509
REMARK  Name = 5648
REMARK  10 active torsions:
REMARK  status: ('A' for Active; 'I' for Inactive)
REMARK    1  A    between atoms: C_1  and  C_2
REMARK    2  A    between atoms: C_1  and  C_9
REMARK    3  A    between atoms: C_1  and  C_19
REMARK    4  A    between atoms: C_9  and  O_10
REMARK    5  A    between atoms: O_10  and  C_11
REMARK    6  A    between atoms: C_11  and  C_12
REMARK    7  A    between atoms: C_12  and  N_13
REMARK    8  A    between atoms: N_13  and  C_15
REMARK    9  A    between atoms: N_13  and  C_17
REMARK   10  A    between atoms: C_19  and  C_21
REMARK                            x       y       z     vdW  Elec       q    Type
REMARK                         _______ _______ _______ _____ _____    ______ ____
ROOT
ATOM      1  C   UNL     1      32.651  -9.087 -22.041  0.00  0.00    +0.121 C 
ENDROOT
BRANCH   1   2
ATOM      2  C   UNL     1      32.847  -7.985 -23.078  0.00  0.00    -0.012 C 
ATOM      3  C   UNL     1      34.119  -7.726 -23.588  0.00  0.00    -0.004 C 
ATOM      4  C   UNL     1      31.754  -7.238 -23.517  0.00  0.00    -0.004 C 
ATOM      5  C   UNL     1      34.298  -6.719 -24.536  0.00  0.00    -0.000 C 
ATOM      6  C   UNL     1      31.933  -6.231 -24.465  0.00  0.00    -0.000 C 
ATOM      7  C   UNL     1      33.205  -5.972 -24.974  0.00  0.00    -0.000 C 
ENDBRANCH   1   2
BRANCH   1   9
ATOM      8  O   UNL     1      30.672 -10.431 -22.577  0.00  0.00    -0.250 OA
ATOM      9  C   UNL     1      31.889 -10.292 -22.601  0.00  0.00    +0.321 C 
BRANCH   9  10
ATOM     10  O   UNL     1      32.765 -11.164 -23.185  0.00  0.00    -0.451 OA
BRANCH  10  11
ATOM     11  C   UNL     1      32.554 -12.548 -22.887  0.00  0.00    +0.186 C 
BRANCH  11  12
ATOM     12  C   UNL     1      33.813 -13.332 -23.199  0.00  0.00    -0.025 C 
BRANCH  12  13
ATOM     13  N   UNL     1      33.756 -14.647 -22.510  0.00  0.00    +0.391 N 
ATOM     14  C   UNL     1      34.875 -14.763 -21.467  0.00  0.00    -0.096 C 
BRANCH  13  15
ATOM     15  C   UNL     1      33.917 -15.795 -23.514  0.00  0.00    -0.073 C 
ATOM     16  C   UNL     1      35.215 -16.522 -23.237  0.00  0.00    -0.024 C 
ENDBRANCH  13  15
BRANCH  13  17
ATOM     17  C   UNL     1      32.412 -14.825 -21.790  0.00  0.00    -0.073 C 
ATOM     18  C   UNL     1      32.654 -15.444 -20.431  0.00  0.00    -0.024 C 
ENDBRANCH  13  17
ENDBRANCH  12  13
ENDBRANCH  11  12
ENDBRANCH  10  11
ENDBRANCH   9  10
ENDBRANCH   1   9
BRANCH   1  19
ATOM     19  C   UNL     1      32.086  -8.594 -20.669  0.00  0.00    +0.015 C 
ATOM     20  C   UNL     1      32.614  -7.219 -20.243  0.00  0.00    +0.001 C 
BRANCH  19  21
ATOM     21  C   UNL     1      32.296  -9.654 -19.563  0.00  0.00    +0.001 C 
ATOM     22  C   UNL     1      31.021 -10.396 -19.184  0.00  0.00    +0.000 C 
ENDBRANCH  19  21
ENDBRANCH   1  19
TORSDOF 10
ENDMDL
MODEL 6
REMARK VINA RESULT:      -7.4      1.854      7.086
REMARK  Name = 5648
REMARK  10 active torsions:
REMARK  status: ('A' for Active; 'I' for Inactive)
REMARK    1  A    between atoms: C_1  and  C_2
REMARK    2  A    between atoms: C_1  and  C_9
REMARK    3  A    between atoms: C_1  and  C_19
REMARK    4  A    between atoms: C_9  and  O_10
REMARK    5  A    between atoms: O_10  and  C_11
REMARK    6  A    between atoms: C_11  and  C_12
REMARK    7  A    between atoms: C_12  and  N_13
REMARK    8  A    between atoms: N_13  and  C_15
REMARK    9  A    between atoms: N_13  and  C_17
REMARK   10  A    between atoms: C_19  and  C_21
REMARK                            x       y       z     vdW  Elec       q    Type
REMARK                         _______ _______ _______ _____ _____    ______ ____
ROOT
ATOM      1  C   UNL     1      32.409 -13.991 -22.621  0.00  0.00    +0.121 C 
ENDROOT
BRANCH   1   2
ATOM      2  C   UNL     1      32.004 -12.770 -21.802  0.00  0.00    -0.012 C 
ATOM      3  C   UNL     1      31.457 -11.655 -22.436  0.00  0.00    -0.004 C 
ATOM      4  C   UNL     1      32.178 -12.769 -20.418  0.00  0.00    -0.004 C 
ATOM      5  C   UNL     1      31.085 -10.539 -21.687  0.00  0.00    -0.000 C 
ATOM      6  C   UNL     1      31.806 -11.653 -19.669  0.00  0.00    -0.000 C 
ATOM      7  C   UNL     1      31.260 -10.538 -20.304  0.00  0.00    -0.000 C 
ENDBRANCH   1   2
BRANCH   1   9
ATOM      8  O   UNL     1      32.023 -15.878 -21.104  0.00  0.00    -0.250 OA
ATOM      9  C   UNL     1      32.803 -15.184 -21.743  0.00  0.00    +0.321 C 
BRANCH   9  10
ATOM     10  O   UNL     1      34.152 -15.394 -21.825  0.00  0.00    -0.451 OA
BRANCH  10  11
ATOM     11  C   UNL     1      34.550 -16.684 -22.302  0.00  0.00    +0.186 C 
BRANCH  11  12
ATOM     12  C   UNL     1      35.001 -17.539 -21.134  0.00  0.00    -0.025 C 
BRANCH  12  13
ATOM     13  N   UNL     1      34.642 -18.956 -21.396  0.00  0.00    +0.391 N 
ATOM     14  C   UNL     1      34.740 -19.273 -22.894  0.00  0.00    -0.096 C 
BRANCH  13  15
ATOM     15  C   UNL     1      33.207 -19.248 -20.938  0.00  0.00    -0.073 C 
ATOM     16  C   UNL     1      33.186 -20.545 -20.160  0.00  0.00    -0.024 C 
ENDBRANCH  13  15
BRANCH  13  17
ATOM     17  C   UNL     1      35.586 -19.904 -20.644  0.00  0.00    -0.073 C 
ATOM     18  C   UNL     1      37.005 -19.393 -20.765  0.00  0.00    -0.024 C 
ENDBRANCH  13  17
ENDBRANCH  12  13
ENDBRANCH  11  12
ENDBRANCH  10  11
ENDBRANCH   9  10
ENDBRANCH   1   9
BRANCH   1  19
ATOM     19  C   UNL     1      33.449 -13.699 -23.751  0.00  0.00    +0.015 C 
ATOM     20  C   UNL     1      33.914 -12.238 -23.798  0.00  0.00    +0.001 C 
BRANCH  19  21
ATOM     21  C   UNL     1      32.931 -14.177 -25.127  0.00  0.00    +0.001 C 
ATOM     22  C   UNL     1      33.571 -15.477 -25.598  0.00  0.00    +0.000 C 
ENDBRANCH  19  21
ENDBRANCH   1  19
TORSDOF 10
ENDMDL
MODEL 7
REMARK VINA RESULT:      -7.3      4.582      8.605
REMARK  Name = 5648
REMARK  10 active torsions:
REMARK  status: ('A' for Active; 'I' for Inactive)
REMARK    1  A    between atoms: C_1  and  C_2
REMARK    2  A    between atoms: C_1  and  C_9
REMARK    3  A    between atoms: C_1  and  C_19
REMARK    4  A    between atoms: C_9  and  O_10
REMARK    5  A    between atoms: O_10  and  C_11
REMARK    6  A    between atoms: C_11  and  C_12
REMARK    7  A    between atoms: C_12  and  N_13
REMARK    8  A    between atoms: N_13  and  C_15
REMARK    9  A    between atoms: N_13  and  C_17
REMARK   10  A    between atoms: C_19  and  C_21
REMARK                            x       y       z     vdW  Elec       q    Type
REMARK                         _______ _______ _______ _____ _____    ______ ____
ROOT
ATOM      1  C   UNL     1      32.368  -8.608 -23.045  0.00  0.00    +0.121 C 
ENDROOT
BRANCH   1   2
ATOM      2  C   UNL     1      31.939  -9.340 -21.778  0.00  0.00    -0.012 C 
ATOM      3  C   UNL     1      31.102 -10.452 -21.865  0.00  0.00    -0.004 C 
ATOM      4  C   UNL     1      32.384  -8.899 -20.532  0.00  0.00    -0.004 C 
ATOM      5  C   UNL     1      30.709 -11.123 -20.707  0.00  0.00    -0.000 C 
ATOM      6  C   UNL     1      31.992  -9.569 -19.374  0.00  0.00    -0.000 C 
ATOM      7  C   UNL     1      31.154 -10.680 -19.462  0.00  0.00    -0.000 C 
ENDBRANCH   1   2
BRANCH   1   9
ATOM      8  O   UNL     1      34.801  -8.650 -23.347  0.00  0.00    -0.250 OA
ATOM      9  C   UNL     1      33.700  -9.124 -23.600  0.00  0.00    +0.321 C 
BRANCH   9  10
ATOM     10  O   UNL     1      33.483 -10.229 -24.374  0.00  0.00    -0.451 OA
BRANCH  10  11
ATOM     11  C   UNL     1      33.996 -11.461 -23.855  0.00  0.00    +0.186 C 
BRANCH  11  12
ATOM     12  C   UNL     1      33.873 -12.545 -24.908  0.00  0.00    -0.025 C 
BRANCH  12  13
ATOM     13  N   UNL     1      33.377 -13.792 -24.272  0.00  0.00    +0.391 N 
ATOM     14  C   UNL     1      34.510 -14.509 -23.525  0.00  0.00    -0.096 C 
BRANCH  13  15
ATOM     15  C   UNL     1      32.815 -14.755 -25.326  0.00  0.00    -0.073 C 
ATOM     16  C   UNL     1      33.201 -14.265 -26.705  0.00  0.00    -0.024 C 
ENDBRANCH  13  15
BRANCH  13  17
ATOM     17  C   UNL     1      32.262 -13.483 -23.264  0.00  0.00    -0.073 C 
ATOM     18  C   UNL     1      32.511 -14.261 -21.991  0.00  0.00    -0.024 C 
ENDBRANCH  13  17
ENDBRANCH  12  13
ENDBRANCH  11  12
ENDBRANCH  10  11
ENDBRANCH   9  10
ENDBRANCH   1   9
BRANCH   1  19
ATOM     19  C   UNL     1      32.315  -7.049 -22.944  0.00  0.00    +0.015 C 
ATOM     20  C   UNL     1      30.912  -6.497 -22.661  0.00  0.00    +0.001 C 
BRANCH  19  21
ATOM     21  C   UNL     1      32.950  -6.384 -24.187  0.00  0.00    +0.001 C 
ATOM     22  C   UNL     1      32.033  -5.378 -24.872  0.00  0.00    +0.000 C 
ENDBRANCH  19  21
ENDBRANCH   1  19
TORSDOF 10
ENDMDL
MODEL 8
REMARK VINA RESULT:      -7.3      5.667      9.739
REMARK  Name = 5648
REMARK  10 active torsions:
REMARK  status: ('A' for Active; 'I' for Inactive)
REMARK    1  A    between atoms: C_1  and  C_2
REMARK    2  A    between atoms: C_1  and  C_9
REMARK    3  A    between atoms: C_1  and  C_19
REMARK    4  A    between atoms: C_9  and  O_10
REMARK    5  A    between atoms: O_10  and  C_11
REMARK    6  A    between atoms: C_11  and  C_12
REMARK    7  A    between atoms: C_12  and  N_13
REMARK    8  A    between atoms: N_13  and  C_15
REMARK    9  A    between atoms: N_13  and  C_17
REMARK   10  A    between atoms: C_19  and  C_21
REMARK                            x       y       z     vdW  Elec       q    Type
REMARK                         _______ _______ _______ _____ _____    ______ ____
ROOT
ATOM      1  C   UNL     1      35.061 -22.366 -18.503  0.00  0.00    +0.121 C 
ENDROOT
BRANCH   1   2
ATOM      2  C   UNL     1      34.667 -21.300 -19.520  0.00  0.00    -0.012 C 
ATOM      3  C   UNL     1      33.326 -20.955 -19.685  0.00  0.00    -0.004 C 
ATOM      4  C   UNL     1      35.648 -20.669 -20.285  0.00  0.00    -0.004 C 
ATOM      5  C   UNL     1      32.965 -19.979 -20.615  0.00  0.00    -0.000 C 
ATOM      6  C   UNL     1      35.289 -19.693 -21.214  0.00  0.00    -0.000 C 
ATOM      7  C   UNL     1      33.947 -19.349 -21.379  0.00  0.00    -0.000 C 
ENDBRANCH   1   2
BRANCH   1   9
ATOM      8  O   UNL     1      33.602 -24.328 -18.678  0.00  0.00    -0.250 OA
ATOM      9  C   UNL     1      33.889 -23.276 -18.121  0.00  0.00    +0.321 C 
BRANCH   9  10
ATOM     10  O   UNL     1      33.245 -22.768 -17.028  0.00  0.00    -0.451 OA
BRANCH  10  11
ATOM     11  C   UNL     1      32.186 -23.574 -16.501  0.00  0.00    +0.186 C 
BRANCH  11  12
ATOM     12  C   UNL     1      30.878 -22.812 -16.585  0.00  0.00    -0.025 C 
BRANCH  12  13
ATOM     13  N   UNL     1      29.951 -23.312 -15.539  0.00  0.00    +0.391 N 
ATOM     14  C   UNL     1      29.578 -24.778 -15.799  0.00  0.00    -0.096 C 
BRANCH  13  15
ATOM     15  C   UNL     1      28.657 -22.487 -15.518  0.00  0.00    -0.073 C 
ATOM     16  C   UNL     1      27.855 -22.786 -16.766  0.00  0.00    -0.024 C 
ENDBRANCH  13  15
BRANCH  13  17
ATOM     17  C   UNL     1      30.598 -23.223 -14.151  0.00  0.00    -0.073 C 
ATOM     18  C   UNL     1      30.602 -24.596 -13.514  0.00  0.00    -0.024 C 
ENDBRANCH  13  17
ENDBRANCH  12  13
ENDBRANCH  11  12
ENDBRANCH  10  11
ENDBRANCH   9  10
ENDBRANCH   1   9
BRANCH   1  19
ATOM     19  C   UNL     1      35.839 -21.822 -17.261  0.00  0.00    +0.015 C 
ATOM     20  C   UNL     1      37.142 -21.097 -17.618  0.00  0.00    +0.001 C 
BRANCH  19  21
ATOM     21  C   UNL     1      36.075 -22.936 -16.215  0.00  0.00    +0.001 C 
ATOM     22  C   UNL     1      37.519 -23.025 -15.739  0.00  0.00    +0.000 C 
ENDBRANCH  19  21
ENDBRANCH   1  19
TORSDOF 10
ENDMDL
MODEL 9
REMARK VINA RESULT:      -7.3      4.002      8.432
REMARK  Name = 5648
REMARK  10 active torsions:
REMARK  status: ('A' for Active; 'I' for Inactive)
REMARK    1  A    between atoms: C_1  and  C_2
REMARK    2  A    between atoms: C_1  and  C_9
REMARK    3  A    between atoms: C_1  and  C_19
REMARK    4  A    between atoms: C_9  and  O_10
REMARK    5  A    between atoms: O_10  and  C_11
REMARK    6  A    between atoms: C_11  and  C_12
REMARK    7  A    between atoms: C_12  and  N_13
REMARK    8  A    between atoms: N_13  and  C_15
REMARK    9  A    between atoms: N_13  and  C_17
REMARK   10  A    between atoms: C_19  and  C_21
REMARK                            x       y       z     vdW  Elec       q    Type
REMARK                         _______ _______ _______ _____ _____    ______ ____
ROOT
ATOM      1  C   UNL     1      32.700  -8.899 -23.256  0.00  0.00    +0.121 C 
ENDROOT
BRANCH   1   2
ATOM      2  C   UNL     1      32.118  -9.510 -21.985  0.00  0.00    -0.012 C 
ATOM      3  C   UNL     1      32.416  -8.951 -20.743  0.00  0.00    -0.004 C 
ATOM      4  C   UNL     1      31.287 -10.627 -22.066  0.00  0.00    -0.004 C 
ATOM      5  C   UNL     1      31.883  -9.509 -19.581  0.00  0.00    -0.000 C 
ATOM      6  C   UNL     1      30.753 -11.185 -20.904  0.00  0.00    -0.000 C 
ATOM      7  C   UNL     1      31.052 -10.626 -19.662  0.00  0.00    -0.000 C 
ENDBRANCH   1   2
BRANCH   1   9
ATOM      8  O   UNL     1      34.971  -9.647 -23.798  0.00  0.00    -0.250 OA
ATOM      9  C   UNL     1      33.760  -9.794 -23.906  0.00  0.00    +0.321 C 
BRANCH   9  10
ATOM     10  O   UNL     1      33.153 -10.817 -24.580  0.00  0.00    -0.451 OA
BRANCH  10  11
ATOM     11  C   UNL     1      33.918 -12.021 -24.700  0.00  0.00    +0.186 C 
BRANCH  11  12
ATOM     12  C   UNL     1      34.035 -12.686 -23.342  0.00  0.00    -0.025 C 
BRANCH  12  13
ATOM     13  N   UNL     1      33.516 -14.074 -23.429  0.00  0.00    +0.391 N 
ATOM     14  C   UNL     1      32.995 -14.372 -24.841  0.00  0.00    -0.096 C 
BRANCH  13  15
ATOM     15  C   UNL     1      32.362 -14.287 -22.439  0.00  0.00    -0.073 C 
ATOM     16  C   UNL     1      32.892 -14.182 -21.026  0.00  0.00    -0.024 C 
ENDBRANCH  13  15
BRANCH  13  17
ATOM     17  C   UNL     1      34.619 -15.089 -23.103  0.00  0.00    -0.073 C 
ATOM     18  C   UNL     1      34.659 -16.146 -24.184  0.00  0.00    -0.024 C 
ENDBRANCH  13  17
ENDBRANCH  12  13
ENDBRANCH  11  12
ENDBRANCH  10  11
ENDBRANCH   9  10
ENDBRANCH   1   9
BRANCH   1  19
ATOM     19  C   UNL     1      33.166  -7.414 -23.108  0.00  0.00    +0.015 C 
ATOM     20  C   UNL     1      32.021  -6.398 -23.191  0.00  0.00    +0.001 C 
BRANCH  19  21
ATOM     21  C   UNL     1      34.299  -7.079 -24.106  0.00  0.00    +0.001 C 
ATOM     22  C   UNL     1      33.857  -6.164 -25.241  0.00  0.00    +0.000 C 
ENDBRANCH  19  21
ENDBRANCH   1  19
TORSDOF 10
ENDMDL
