MODEL 1
REMARK VINA RESULT:     -10.9      0.000      0.000
REMARK  Name = 23644582
REMARK  5 active torsions:
REMARK  status: ('A' for Active; 'I' for Inactive)
REMARK    1  A    between atoms: C_3  and  N_18
REMARK    2  A    between atoms: C_5  and  C_13
REMARK    3  A    between atoms: C_15  and  C_17
REMARK    4  A    between atoms: N_18  and  C_20
REMARK    5  A    between atoms: C_24  and  O_27
REMARK                            x       y       z     vdW  Elec       q    Type
REMARK                         _______ _______ _______ _____ _____    ______ ____
ROOT
ATOM      1  N   UNL     1      34.793 -22.198 -18.593  0.00  0.00    -0.248 NA
ATOM      2  C   UNL     1      34.994 -22.759 -16.258  0.00  0.00    +0.010 C 
ATOM      3  C   UNL     1      36.368 -22.487 -16.317  0.00  0.00    +0.047 C 
ATOM      4  C   UNL     1      34.235 -22.600 -17.436  0.00  0.00    +0.061 C 
ATOM      5  C   UNL     1      32.256 -23.287 -16.194  0.00  0.00    +0.006 C 
ATOM      6  C   UNL     1      34.377 -23.179 -15.067  0.00  0.00    +0.055 C 
ATOM      7  C   UNL     1      32.870 -22.869 -17.377  0.00  0.00    +0.074 C 
ATOM      8  C   UNL     1      33.011 -23.442 -15.037  0.00  0.00    -0.023 C 
ATOM      9  C   UNL     1      36.947 -22.074 -17.508  0.00  0.00    +0.035 C 
ATOM     10  C   UNL     1      36.122 -21.946 -18.608  0.00  0.00    +0.100 C 
ENDROOT
BRANCH   5  13
ATOM     11  S   UNL     1      28.599 -24.616 -15.665  0.00  0.00    -0.071 S 
ATOM     12  N   UNL     1      29.950 -22.779 -16.881  0.00  0.00    -0.396 NA
ATOM     13  C   UNL     1      30.846 -23.557 -16.173  0.00  0.00    +0.117 C 
ATOM     14  C   UNL     1      30.301 -24.600 -15.454  0.00  0.00    +0.123 C 
ATOM     15  C   UNL     1      28.737 -23.245 -16.686  0.00  0.00    +0.199 C 
BRANCH  15  17
ATOM     16  O   UNL     1      27.236 -21.468 -17.231  0.00  0.00    -0.280 OA
ATOM     17  C   UNL     1      27.579 -22.666 -17.279  0.00  0.00    +0.272 C 
ENDBRANCH  15  17
ENDBRANCH   5  13
BRANCH   3  18
ATOM     18  N   UNL     1      37.203 -22.623 -15.182  0.00  0.00    -0.313 N 
ATOM     19  H   UNL     1      37.264 -21.808 -14.635  0.00  0.00    +0.152 HD
BRANCH  18  20
ATOM     20  C   UNL     1      37.962 -23.696 -14.687  0.00  0.00    +0.047 C 
ATOM     21  C   UNL     1      37.808 -24.132 -13.371  0.00  0.00    -0.008 C 
ATOM     22  C   UNL     1      38.880 -24.326 -15.527  0.00  0.00    +0.051 C 
ATOM     23  C   UNL     1      38.571 -25.199 -12.895  0.00  0.00    +0.000 C 
ATOM     24  C   UNL     1      39.642 -25.393 -15.052  0.00  0.00    +0.135 C 
ATOM     25  C   UNL     1      36.831 -23.476 -12.449  0.00  0.00    +0.032 C 
ATOM     26  C   UNL     1      39.487 -25.829 -13.736  0.00  0.00    +0.036 C 
BRANCH  24  27
ATOM     27  O   UNL     1      40.539 -26.007 -15.871  0.00  0.00    -0.505 OA
ATOM     28  H   UNL     1      41.025 -25.504 -16.494  0.00  0.00    +0.292 HD
ENDBRANCH  24  27
ENDBRANCH  18  20
ENDBRANCH   3  18
TORSDOF 5
ENDMDL
MODEL 2
REMARK VINA RESULT:     -10.7      9.391     12.741
REMARK  Name = 23644582
REMARK  5 active torsions:
REMARK  status: ('A' for Active; 'I' for Inactive)
REMARK    1  A    between atoms: C_3  and  N_18
REMARK    2  A    between atoms: C_5  and  C_13
REMARK    3  A    between atoms: C_15  and  C_17
REMARK    4  A    between atoms: N_18  and  C_20
REMARK    5  A    between atoms: C_24  and  O_27
REMARK                            x       y       z     vdW  Elec       q    Type
REMARK                         _______ _______ _______ _____ _____    ______ ____
ROOT
ATOM      1  N   UNL     1      33.684 -16.479 -25.400  0.00  0.00    -0.248 NA
ATOM      2  C   UNL     1      34.250 -15.131 -23.485  0.00  0.00    +0.010 C 
ATOM      3  C   UNL     1      33.994 -13.973 -24.231  0.00  0.00    +0.047 C 
ATOM      4  C   UNL     1      34.081 -16.381 -24.118  0.00  0.00    +0.061 C 
ATOM      5  C   UNL     1      34.748 -17.467 -22.043  0.00  0.00    +0.006 C 
ATOM      6  C   UNL     1      34.665 -15.067 -22.143  0.00  0.00    +0.055 C 
ATOM      7  C   UNL     1      34.335 -17.531 -23.376  0.00  0.00    +0.074 C 
ATOM      8  C   UNL     1      34.913 -16.233 -21.426  0.00  0.00    -0.023 C 
ATOM      9  C   UNL     1      33.586 -14.071 -25.553  0.00  0.00    +0.035 C 
ATOM     10  C   UNL     1      33.447 -15.337 -26.086  0.00  0.00    +0.100 C 
ENDROOT
BRANCH   5  13
ATOM     11  S   UNL     1      36.194 -20.583 -20.140  0.00  0.00    -0.071 S 
ATOM     12  N   UNL     1      33.971 -19.477 -20.857  0.00  0.00    -0.396 NA
ATOM     13  C   UNL     1      35.001 -18.676 -21.312  0.00  0.00    +0.117 C 
ATOM     14  C   UNL     1      36.276 -19.112 -21.019  0.00  0.00    +0.123 C 
ATOM     15  C   UNL     1      34.482 -20.509 -20.225  0.00  0.00    +0.199 C 
BRANCH  15  17
ATOM     16  O   UNL     1      32.593 -21.381 -19.052  0.00  0.00    -0.280 OA
ATOM     17  C   UNL     1      33.685 -21.530 -19.634  0.00  0.00    +0.272 C 
ENDBRANCH  15  17
ENDBRANCH   5  13
BRANCH   3  18
ATOM     18  N   UNL     1      34.141 -12.681 -23.673  0.00  0.00    -0.313 N 
ATOM     19  H   UNL     1      35.078 -12.409 -23.544  0.00  0.00    +0.152 HD
BRANCH  18  20
ATOM     20  C   UNL     1      33.209 -11.712 -23.266  0.00  0.00    +0.047 C 
ATOM     21  C   UNL     1      33.350 -10.379 -23.653  0.00  0.00    -0.008 C 
ATOM     22  C   UNL     1      32.134 -12.096 -22.464  0.00  0.00    +0.051 C 
ATOM     23  C   UNL     1      32.414  -9.430 -23.239  0.00  0.00    +0.000 C 
ATOM     24  C   UNL     1      31.199 -11.147 -22.051  0.00  0.00    +0.135 C 
ATOM     25  C   UNL     1      34.491  -9.941 -24.512  0.00  0.00    +0.032 C 
ATOM     26  C   UNL     1      31.339  -9.814 -22.438  0.00  0.00    +0.036 C 
BRANCH  24  27
ATOM     27  O   UNL     1      30.151 -11.520 -21.267  0.00  0.00    -0.505 OA
ATOM     28  H   UNL     1      30.245 -11.536 -20.335  0.00  0.00    +0.292 HD
ENDBRANCH  24  27
ENDBRANCH  18  20
ENDBRANCH   3  18
TORSDOF 5
ENDMDL
MODEL 3
REMARK VINA RESULT:     -10.5      8.461     10.501
REMARK  Name = 23644582
REMARK  5 active torsions:
REMARK  status: ('A' for Active; 'I' for Inactive)
REMARK    1  A    between atoms: C_3  and  N_18
REMARK    2  A    between atoms: C_5  and  C_13
REMARK    3  A    between atoms: C_15  and  C_17
REMARK    4  A    between atoms: N_18  and  C_20
REMARK    5  A    between atoms: C_24  and  O_27
REMARK                            x       y       z     vdW  Elec       q    Type
REMARK                         _______ _______ _______ _____ _____    ______ ____
ROOT
ATOM      1  N   UNL     1      34.216 -17.282 -24.987  0.00  0.00    -0.248 NA
ATOM      2  C   UNL     1      34.696 -16.837 -22.668  0.00  0.00    +0.010 C 
ATOM      3  C   UNL     1      35.088 -18.172 -22.500  0.00  0.00    +0.047 C 
ATOM      4  C   UNL     1      34.259 -16.430 -23.946  0.00  0.00    +0.061 C 
ATOM      5  C   UNL     1      33.902 -14.191 -23.056  0.00  0.00    +0.006 C 
ATOM      6  C   UNL     1      34.729 -15.920 -21.604  0.00  0.00    +0.055 C 
ATOM      7  C   UNL     1      33.869 -15.104 -24.113  0.00  0.00    +0.074 C 
ATOM      8  C   UNL     1      34.332 -14.601 -21.799  0.00  0.00    -0.023 C 
ATOM      9  C   UNL     1      35.044 -19.053 -23.570  0.00  0.00    +0.035 C 
ATOM     10  C   UNL     1      34.604 -18.562 -24.783  0.00  0.00    +0.100 C 
ENDROOT
BRANCH   5  13
ATOM     11  S   UNL     1      33.282 -10.497 -24.232  0.00  0.00    -0.071 S 
ATOM     12  N   UNL     1      32.554 -12.224 -22.453  0.00  0.00    -0.396 NA
ATOM     13  C   UNL     1      33.490 -12.833 -23.267  0.00  0.00    +0.117 C 
ATOM     14  C   UNL     1      33.999 -12.054 -24.285  0.00  0.00    +0.123 C 
ATOM     15  C   UNL     1      32.366 -10.992 -22.869  0.00  0.00    +0.199 C 
BRANCH  15  17
ATOM     16  O   UNL     1      31.755  -9.096 -21.551  0.00  0.00    -0.280 OA
ATOM     17  C   UNL     1      31.459 -10.091 -22.241  0.00  0.00    +0.272 C 
ENDBRANCH  15  17
ENDBRANCH   5  13
BRANCH   3  18
ATOM     18  N   UNL     1      35.537 -18.664 -21.250  0.00  0.00    -0.313 N 
ATOM     19  H   UNL     1      36.213 -18.093 -20.819  0.00  0.00    +0.152 HD
BRANCH  18  20
ATOM     20  C   UNL     1      35.207 -19.809 -20.508  0.00  0.00    +0.047 C 
ATOM     21  C   UNL     1      33.881 -20.229 -20.395  0.00  0.00    -0.008 C 
ATOM     22  C   UNL     1      36.222 -20.530 -19.879  0.00  0.00    +0.051 C 
ATOM     23  C   UNL     1      33.571 -21.370 -19.653  0.00  0.00    +0.000 C 
ATOM     24  C   UNL     1      35.912 -21.670 -19.138  0.00  0.00    +0.135 C 
ATOM     25  C   UNL     1      32.774 -19.477 -21.059  0.00  0.00    +0.032 C 
ATOM     26  C   UNL     1      34.587 -22.090 -19.025  0.00  0.00    +0.036 C 
BRANCH  24  27
ATOM     27  O   UNL     1      36.903 -22.372 -18.523  0.00  0.00    -0.505 OA
ATOM     28  H   UNL     1      36.754 -23.259 -18.260  0.00  0.00    +0.292 HD
ENDBRANCH  24  27
ENDBRANCH  18  20
ENDBRANCH   3  18
TORSDOF 5
ENDMDL
MODEL 4
REMARK VINA RESULT:     -10.3      4.397      6.079
REMARK  Name = 23644582
REMARK  5 active torsions:
REMARK  status: ('A' for Active; 'I' for Inactive)
REMARK    1  A    between atoms: C_3  and  N_18
REMARK    2  A    between atoms: C_5  and  C_13
REMARK    3  A    between atoms: C_15  and  C_17
REMARK    4  A    between atoms: N_18  and  C_20
REMARK    5  A    between atoms: C_24  and  O_27
REMARK                            x       y       z     vdW  Elec       q    Type
REMARK                         _______ _______ _______ _____ _____    ______ ____
ROOT
ATOM      1  N   UNL     1      32.847 -22.456 -18.203  0.00  0.00    -0.248 NA
ATOM      2  C   UNL     1      35.233 -22.224 -17.963  0.00  0.00    +0.010 C 
ATOM      3  C   UNL     1      35.204 -23.105 -16.874  0.00  0.00    +0.047 C 
ATOM      4  C   UNL     1      34.015 -21.923 -18.607  0.00  0.00    +0.061 C 
ATOM      5  C   UNL     1      35.238 -20.475 -20.137  0.00  0.00    +0.006 C 
ATOM      6  C   UNL     1      36.434 -21.648 -18.413  0.00  0.00    +0.055 C 
ATOM      7  C   UNL     1      34.045 -21.047 -19.689  0.00  0.00    +0.074 C 
ATOM      8  C   UNL     1      36.434 -20.777 -19.497  0.00  0.00    -0.023 C 
ATOM      9  C   UNL     1      34.002 -23.656 -16.454  0.00  0.00    +0.035 C 
ATOM     10  C   UNL     1      32.862 -23.302 -17.147  0.00  0.00    +0.100 C 
ENDROOT
BRANCH   5  13
ATOM     11  S   UNL     1      35.524 -17.508 -22.693  0.00  0.00    -0.071 S 
ATOM     12  N   UNL     1      34.743 -19.963 -22.491  0.00  0.00    -0.396 NA
ATOM     13  C   UNL     1      35.227 -19.576 -21.255  0.00  0.00    +0.117 C 
ATOM     14  C   UNL     1      35.693 -18.281 -21.171  0.00  0.00    +0.123 C 
ATOM     15  C   UNL     1      34.852 -18.954 -23.325  0.00  0.00    +0.199 C 
BRANCH  15  17
ATOM     16  O   UNL     1      34.269 -18.065 -25.464  0.00  0.00    -0.280 OA
ATOM     17  C   UNL     1      34.439 -19.024 -24.686  0.00  0.00    +0.272 C 
ENDBRANCH  15  17
ENDBRANCH   5  13
BRANCH   3  18
ATOM     18  N   UNL     1      36.381 -23.459 -16.171  0.00  0.00    -0.313 N 
ATOM     19  H   UNL     1      37.195 -23.430 -16.722  0.00  0.00    +0.152 HD
BRANCH  18  20
ATOM     20  C   UNL     1      36.610 -23.845 -14.840  0.00  0.00    +0.047 C 
ATOM     21  C   UNL     1      36.602 -25.192 -14.477  0.00  0.00    -0.008 C 
ATOM     22  C   UNL     1      36.849 -22.865 -13.877  0.00  0.00    +0.051 C 
ATOM     23  C   UNL     1      36.833 -25.558 -13.150  0.00  0.00    +0.000 C 
ATOM     24  C   UNL     1      37.079 -23.231 -12.551  0.00  0.00    +0.135 C 
ATOM     25  C   UNL     1      36.352 -26.263 -15.488  0.00  0.00    +0.032 C 
ATOM     26  C   UNL     1      37.071 -24.577 -12.188  0.00  0.00    +0.036 C 
BRANCH  24  27
ATOM     27  O   UNL     1      37.309 -22.274 -11.612  0.00  0.00    -0.505 OA
ATOM     28  H   UNL     1      37.346 -21.372 -11.861  0.00  0.00    +0.292 HD
ENDBRANCH  24  27
ENDBRANCH  18  20
ENDBRANCH   3  18
TORSDOF 5
ENDMDL
MODEL 5
REMARK VINA RESULT:     -10.3      4.522      7.645
REMARK  Name = 23644582
REMARK  5 active torsions:
REMARK  status: ('A' for Active; 'I' for Inactive)
REMARK    1  A    between atoms: C_3  and  N_18
REMARK    2  A    between atoms: C_5  and  C_13
REMARK    3  A    between atoms: C_15  and  C_17
REMARK    4  A    between atoms: N_18  and  C_20
REMARK    5  A    between atoms: C_24  and  O_27
REMARK                            x       y       z     vdW  Elec       q    Type
REMARK                         _______ _______ _______ _____ _____    ______ ____
ROOT
ATOM      1  N   UNL     1      36.833 -21.502 -17.964  0.00  0.00    -0.248 NA
ATOM      2  C   UNL     1      34.533 -21.933 -18.537  0.00  0.00    +0.010 C 
ATOM      3  C   UNL     1      34.454 -22.867 -17.495  0.00  0.00    +0.047 C 
ATOM      4  C   UNL     1      35.758 -21.265 -18.739  0.00  0.00    +0.061 C 
ATOM      5  C   UNL     1      34.741 -20.066 -20.599  0.00  0.00    +0.006 C 
ATOM      6  C   UNL     1      33.431 -21.660 -19.366  0.00  0.00    +0.055 C 
ATOM      7  C   UNL     1      35.835 -20.337 -19.774  0.00  0.00    +0.074 C 
ATOM      8  C   UNL     1      33.537 -20.728 -20.393  0.00  0.00    -0.023 C 
ATOM      9  C   UNL     1      35.560 -23.114 -16.695  0.00  0.00    +0.035 C 
ATOM     10  C   UNL     1      36.715 -22.411 -16.968  0.00  0.00    +0.100 C 
ENDROOT
BRANCH   5  13
ATOM     11  S   UNL     1      35.298 -16.948 -22.921  0.00  0.00    -0.071 S 
ATOM     12  N   UNL     1      34.562 -19.425 -22.966  0.00  0.00    -0.396 NA
ATOM     13  C   UNL     1      34.861 -19.103 -21.656  0.00  0.00    +0.117 C 
ATOM     14  C   UNL     1      35.276 -17.807 -21.436  0.00  0.00    +0.123 C 
ATOM     15  C   UNL     1      34.757 -18.367 -23.720  0.00  0.00    +0.199 C 
BRANCH  15  17
ATOM     16  O   UNL     1      34.547 -17.373 -25.882  0.00  0.00    -0.280 OA
ATOM     17  C   UNL     1      34.537 -18.364 -25.127  0.00  0.00    +0.272 C 
ENDBRANCH  15  17
ENDBRANCH   5  13
BRANCH   3  18
ATOM     18  N   UNL     1      33.263 -23.583 -17.225  0.00  0.00    -0.313 N 
ATOM     19  H   UNL     1      33.187 -24.429 -17.723  0.00  0.00    +0.152 HD
BRANCH  18  20
ATOM     20  C   UNL     1      32.168 -23.320 -16.387  0.00  0.00    +0.047 C 
ATOM     21  C   UNL     1      32.242 -23.568 -15.016  0.00  0.00    -0.008 C 
ATOM     22  C   UNL     1      30.996 -22.803 -16.939  0.00  0.00    +0.051 C 
ATOM     23  C   UNL     1      31.144 -23.301 -14.197  0.00  0.00    +0.000 C 
ATOM     24  C   UNL     1      29.898 -22.535 -16.121  0.00  0.00    +0.135 C 
ATOM     25  C   UNL     1      33.485 -24.120 -14.398  0.00  0.00    +0.032 C 
ATOM     26  C   UNL     1      29.972 -22.784 -14.751  0.00  0.00    +0.036 C 
BRANCH  24  27
ATOM     27  O   UNL     1      28.754 -22.034 -16.660  0.00  0.00    -0.505 OA
ATOM     28  H   UNL     1      28.309 -21.325 -16.239  0.00  0.00    +0.292 HD
ENDBRANCH  24  27
ENDBRANCH  18  20
ENDBRANCH   3  18
TORSDOF 5
ENDMDL
MODEL 6
REMARK VINA RESULT:     -10.3      4.867      7.298
REMARK  Name = 23644582
REMARK  5 active torsions:
REMARK  status: ('A' for Active; 'I' for Inactive)
REMARK    1  A    between atoms: C_3  and  N_18
REMARK    2  A    between atoms: C_5  and  C_13
REMARK    3  A    between atoms: C_15  and  C_17
REMARK    4  A    between atoms: N_18  and  C_20
REMARK    5  A    between atoms: C_24  and  O_27
REMARK                            x       y       z     vdW  Elec       q    Type
REMARK                         _______ _______ _______ _____ _____    ______ ____
ROOT
ATOM      1  N   UNL     1      36.857 -21.212 -18.592  0.00  0.00    -0.248 NA
ATOM      2  C   UNL     1      34.499 -21.584 -18.918  0.00  0.00    +0.010 C 
ATOM      3  C   UNL     1      34.493 -22.465 -17.829  0.00  0.00    +0.047 C 
ATOM      4  C   UNL     1      35.720 -20.972 -19.271  0.00  0.00    +0.061 C 
ATOM      5  C   UNL     1      34.565 -19.824 -21.082  0.00  0.00    +0.006 C 
ATOM      6  C   UNL     1      33.331 -21.309 -19.650  0.00  0.00    +0.055 C 
ATOM      7  C   UNL     1      35.725 -20.097 -20.354  0.00  0.00    +0.074 C 
ATOM      8  C   UNL     1      33.365 -20.431 -20.728  0.00  0.00    -0.023 C 
ATOM      9  C   UNL     1      35.663 -22.715 -17.127  0.00  0.00    +0.035 C 
ATOM     10  C   UNL     1      36.808 -22.069 -17.545  0.00  0.00    +0.100 C 
ENDROOT
BRANCH   5  13
ATOM     11  S   UNL     1      34.714 -17.995 -24.553  0.00  0.00    -0.071 S 
ATOM     12  N   UNL     1      34.602 -17.547 -22.010  0.00  0.00    -0.396 NA
ATOM     13  C   UNL     1      34.611 -18.917 -22.193  0.00  0.00    +0.117 C 
ATOM     14  C   UNL     1      34.670 -19.349 -23.501  0.00  0.00    +0.123 C 
ATOM     15  C   UNL     1      34.651 -16.961 -23.186  0.00  0.00    +0.199 C 
BRANCH  15  17
ATOM     16  O   UNL     1      34.608 -14.691 -22.442  0.00  0.00    -0.280 OA
ATOM     17  C   UNL     1      34.658 -15.546 -23.348  0.00  0.00    +0.272 C 
ENDBRANCH  15  17
ENDBRANCH   5  13
BRANCH   3  18
ATOM     18  N   UNL     1      33.311 -23.122 -17.410  0.00  0.00    -0.313 N 
ATOM     19  H   UNL     1      32.770 -23.476 -18.151  0.00  0.00    +0.152 HD
BRANCH  18  20
ATOM     20  C   UNL     1      32.760 -23.366 -16.141  0.00  0.00    +0.047 C 
ATOM     21  C   UNL     1      31.421 -23.080 -15.877  0.00  0.00    -0.008 C 
ATOM     22  C   UNL     1      33.569 -23.901 -15.138  0.00  0.00    +0.051 C 
ATOM     23  C   UNL     1      30.890 -23.328 -14.610  0.00  0.00    +0.000 C 
ATOM     24  C   UNL     1      33.039 -24.150 -13.872  0.00  0.00    +0.135 C 
ATOM     25  C   UNL     1      30.531 -22.508 -16.932  0.00  0.00    +0.032 C 
ATOM     26  C   UNL     1      31.700 -23.863 -13.609  0.00  0.00    +0.036 C 
BRANCH  24  27
ATOM     27  O   UNL     1      33.829 -24.669 -12.894  0.00  0.00    -0.505 OA
ATOM     28  H   UNL     1      34.579 -24.194 -12.595  0.00  0.00    +0.292 HD
ENDBRANCH  24  27
ENDBRANCH  18  20
ENDBRANCH   3  18
TORSDOF 5
ENDMDL
MODEL 7
REMARK VINA RESULT:     -10.2      4.539      8.615
REMARK  Name = 23644582
REMARK  5 active torsions:
REMARK  status: ('A' for Active; 'I' for Inactive)
REMARK    1  A    between atoms: C_3  and  N_18
REMARK    2  A    between atoms: C_5  and  C_13
REMARK    3  A    between atoms: C_15  and  C_17
REMARK    4  A    between atoms: N_18  and  C_20
REMARK    5  A    between atoms: C_24  and  O_27
REMARK                            x       y       z     vdW  Elec       q    Type
REMARK                         _______ _______ _______ _____ _____    ______ ____
ROOT
ATOM      1  N   UNL     1      32.950 -22.220 -18.768  0.00  0.00    -0.248 NA
ATOM      2  C   UNL     1      35.126 -21.245 -19.118  0.00  0.00    +0.010 C 
ATOM      3  C   UNL     1      34.631 -20.556 -20.233  0.00  0.00    +0.047 C 
ATOM      4  C   UNL     1      34.239 -22.078 -18.405  0.00  0.00    +0.061 C 
ATOM      5  C   UNL     1      36.062 -22.639 -16.891  0.00  0.00    +0.006 C 
ATOM      6  C   UNL     1      36.465 -21.120 -18.710  0.00  0.00    +0.055 C 
ATOM      7  C   UNL     1      34.731 -22.762 -17.297  0.00  0.00    +0.074 C 
ATOM      8  C   UNL     1      36.930 -21.817 -17.599  0.00  0.00    -0.023 C 
ATOM      9  C   UNL     1      33.304 -20.700 -20.611  0.00  0.00    +0.035 C 
ATOM     10  C   UNL     1      32.512 -21.537 -19.850  0.00  0.00    +0.100 C 
ENDROOT
BRANCH   5  13
ATOM     11  S   UNL     1      37.462 -23.905 -13.448  0.00  0.00    -0.071 S 
ATOM     12  N   UNL     1      36.561 -24.744 -15.720  0.00  0.00    -0.396 NA
ATOM     13  C   UNL     1      36.532 -23.362 -15.744  0.00  0.00    +0.117 C 
ATOM     14  C   UNL     1      36.982 -22.732 -14.603  0.00  0.00    +0.123 C 
ATOM     15  C   UNL     1      37.032 -25.140 -14.559  0.00  0.00    +0.199 C 
BRANCH  15  17
ATOM     16  O   UNL     1      38.094 -27.279 -14.601  0.00  0.00    -0.280 OA
ATOM     17  C   UNL     1      37.191 -26.512 -14.213  0.00  0.00    +0.272 C 
ENDBRANCH  15  17
ENDBRANCH   5  13
BRANCH   3  18
ATOM     18  N   UNL     1      35.454 -19.701 -21.005  0.00  0.00    -0.313 N 
ATOM     19  H   UNL     1      36.361 -20.052 -21.154  0.00  0.00    +0.152 HD
BRANCH  18  20
ATOM     20  C   UNL     1      35.227 -18.448 -21.599  0.00  0.00    +0.047 C 
ATOM     21  C   UNL     1      35.073 -18.330 -22.980  0.00  0.00    -0.008 C 
ATOM     22  C   UNL     1      35.157 -17.314 -20.789  0.00  0.00    +0.051 C 
ATOM     23  C   UNL     1      34.848 -17.077 -23.553  0.00  0.00    +0.000 C 
ATOM     24  C   UNL     1      34.932 -16.062 -21.361  0.00  0.00    +0.135 C 
ATOM     25  C   UNL     1      35.142 -19.527 -23.870  0.00  0.00    +0.032 C 
ATOM     26  C   UNL     1      34.778 -15.944 -22.743  0.00  0.00    +0.036 C 
BRANCH  24  27
ATOM     27  O   UNL     1      34.866 -14.955 -20.573  0.00  0.00    -0.505 OA
ATOM     28  H   UNL     1      35.196 -14.984 -19.696  0.00  0.00    +0.292 HD
ENDBRANCH  24  27
ENDBRANCH  18  20
ENDBRANCH   3  18
TORSDOF 5
ENDMDL
MODEL 8
REMARK VINA RESULT:     -10.1      9.749     12.803
REMARK  Name = 23644582
REMARK  5 active torsions:
REMARK  status: ('A' for Active; 'I' for Inactive)
REMARK    1  A    between atoms: C_3  and  N_18
REMARK    2  A    between atoms: C_5  and  C_13
REMARK    3  A    between atoms: C_15  and  C_17
REMARK    4  A    between atoms: N_18  and  C_20
REMARK    5  A    between atoms: C_24  and  O_27
REMARK                            x       y       z     vdW  Elec       q    Type
REMARK                         _______ _______ _______ _____ _____    ______ ____
ROOT
ATOM      1  N   UNL     1      33.955 -16.579 -25.445  0.00  0.00    -0.248 NA
ATOM      2  C   UNL     1      33.613 -15.358 -23.395  0.00  0.00    +0.010 C 
ATOM      3  C   UNL     1      33.140 -14.264 -24.133  0.00  0.00    +0.047 C 
ATOM      4  C   UNL     1      34.016 -16.511 -24.102  0.00  0.00    +0.061 C 
ATOM      5  C   UNL     1      34.563 -17.563 -21.974  0.00  0.00    +0.006 C 
ATOM      6  C   UNL     1      33.691 -15.323 -21.993  0.00  0.00    +0.055 C 
ATOM      7  C   UNL     1      34.486 -17.597 -23.368  0.00  0.00    +0.074 C 
ATOM      8  C   UNL     1      34.164 -16.423 -21.286  0.00  0.00    -0.023 C 
ATOM      9  C   UNL     1      33.077 -14.330 -25.517  0.00  0.00    +0.035 C 
ATOM     10  C   UNL     1      33.492 -15.501 -26.119  0.00  0.00    +0.100 C 
ENDROOT
BRANCH   5  13
ATOM     11  S   UNL     1      36.610 -20.368 -20.142  0.00  0.00    -0.071 S 
ATOM     12  N   UNL     1      34.198 -19.661 -20.745  0.00  0.00    -0.396 NA
ATOM     13  C   UNL     1      35.054 -18.703 -21.254  0.00  0.00    +0.117 C 
ATOM     14  C   UNL     1      36.397 -18.915 -21.028  0.00  0.00    +0.123 C 
ATOM     15  C   UNL     1      34.908 -20.585 -20.137  0.00  0.00    +0.199 C 
BRANCH  15  17
ATOM     16  O   UNL     1      34.778 -22.881 -19.491  0.00  0.00    -0.280 OA
ATOM     17  C   UNL     1      34.326 -21.720 -19.504  0.00  0.00    +0.272 C 
ENDBRANCH  15  17
ENDBRANCH   5  13
BRANCH   3  18
ATOM     18  N   UNL     1      32.718 -13.069 -23.503  0.00  0.00    -0.313 N 
ATOM     19  H   UNL     1      31.977 -13.196 -22.868  0.00  0.00    +0.152 HD
BRANCH  18  20
ATOM     20  C   UNL     1      33.150 -11.736 -23.610  0.00  0.00    +0.047 C 
ATOM     21  C   UNL     1      32.530 -10.724 -22.877  0.00  0.00    -0.008 C 
ATOM     22  C   UNL     1      34.211 -11.431 -24.462  0.00  0.00    +0.051 C 
ATOM     23  C   UNL     1      32.972  -9.406 -22.996  0.00  0.00    +0.000 C 
ATOM     24  C   UNL     1      34.653 -10.113 -24.581  0.00  0.00    +0.135 C 
ATOM     25  C   UNL     1      31.392 -11.023 -21.956  0.00  0.00    +0.032 C 
ATOM     26  C   UNL     1      34.034  -9.101 -23.848  0.00  0.00    +0.036 C 
BRANCH  24  27
ATOM     27  O   UNL     1      35.687  -9.815 -25.413  0.00  0.00    -0.505 OA
ATOM     28  H   UNL     1      36.533  -9.623 -25.060  0.00  0.00    +0.292 HD
ENDBRANCH  24  27
ENDBRANCH  18  20
ENDBRANCH   3  18
TORSDOF 5
ENDMDL
MODEL 9
REMARK VINA RESULT:     -10.0      8.550     11.825
REMARK  Name = 23644582
REMARK  5 active torsions:
REMARK  status: ('A' for Active; 'I' for Inactive)
REMARK    1  A    between atoms: C_3  and  N_18
REMARK    2  A    between atoms: C_5  and  C_13
REMARK    3  A    between atoms: C_15  and  C_17
REMARK    4  A    between atoms: N_18  and  C_20
REMARK    5  A    between atoms: C_24  and  O_27
REMARK                            x       y       z     vdW  Elec       q    Type
REMARK                         _______ _______ _______ _____ _____    ______ ____
ROOT
ATOM      1  N   UNL     1      34.092 -17.660 -24.876  0.00  0.00    -0.248 NA
ATOM      2  C   UNL     1      34.563 -16.242 -22.986  0.00  0.00    +0.010 C 
ATOM      3  C   UNL     1      34.309 -15.113 -23.777  0.00  0.00    +0.047 C 
ATOM      4  C   UNL     1      34.442 -17.513 -23.584  0.00  0.00    +0.061 C 
ATOM      5  C   UNL     1      35.058 -18.520 -21.454  0.00  0.00    +0.006 C 
ATOM      6  C   UNL     1      34.930 -16.126 -21.634  0.00  0.00    +0.055 C 
ATOM      7  C   UNL     1      34.694 -18.634 -22.798  0.00  0.00    +0.074 C 
ATOM      8  C   UNL     1      35.176 -17.264 -20.871  0.00  0.00    -0.023 C 
ATOM      9  C   UNL     1      33.950 -15.261 -25.108  0.00  0.00    +0.035 C 
ATOM     10  C   UNL     1      33.856 -16.545 -25.605  0.00  0.00    +0.100 C 
ENDROOT
BRANCH   5  13
ATOM     11  S   UNL     1      36.493 -21.502 -19.341  0.00  0.00    -0.071 S 
ATOM     12  N   UNL     1      34.295 -20.569 -20.329  0.00  0.00    -0.396 NA
ATOM     13  C   UNL     1      35.311 -19.699 -20.676  0.00  0.00    +0.117 C 
ATOM     14  C   UNL     1      36.571 -20.039 -20.232  0.00  0.00    +0.123 C 
ATOM     15  C   UNL     1      34.802 -21.555 -19.623  0.00  0.00    +0.199 C 
BRANCH  15  17
ATOM     16  O   UNL     1      33.919 -23.774 -19.584  0.00  0.00    -0.280 OA
ATOM     17  C   UNL     1      34.016 -22.626 -19.110  0.00  0.00    +0.272 C 
ENDBRANCH  15  17
ENDBRANCH   5  13
BRANCH   3  18
ATOM     18  N   UNL     1      34.410 -13.801 -23.255  0.00  0.00    -0.313 N 
ATOM     19  H   UNL     1      35.333 -13.521 -23.061  0.00  0.00    +0.152 HD
BRANCH  18  20
ATOM     20  C   UNL     1      33.448 -12.821 -22.959  0.00  0.00    +0.047 C 
ATOM     21  C   UNL     1      32.435 -13.073 -22.034  0.00  0.00    -0.008 C 
ATOM     22  C   UNL     1      33.513 -11.586 -23.603  0.00  0.00    +0.051 C 
ATOM     23  C   UNL     1      31.487 -12.088 -21.752  0.00  0.00    +0.000 C 
ATOM     24  C   UNL     1      32.566 -10.601 -23.322  0.00  0.00    +0.135 C 
ATOM     25  C   UNL     1      32.342 -14.386 -21.328  0.00  0.00    +0.032 C 
ATOM     26  C   UNL     1      31.554 -10.852 -22.396  0.00  0.00    +0.036 C 
BRANCH  24  27
ATOM     27  O   UNL     1      32.629  -9.397 -23.951  0.00  0.00    -0.505 OA
ATOM     28  H   UNL     1      32.546  -9.351 -24.883  0.00  0.00    +0.292 HD
ENDBRANCH  24  27
ENDBRANCH  18  20
ENDBRANCH   3  18
TORSDOF 5
ENDMDL
