MODEL 1
REMARK VINA RESULT:      -9.8      0.000      0.000
REMARK  Name = 6604889
REMARK  6 active torsions:
REMARK  status: ('A' for Active; 'I' for Inactive)
REMARK    1  A    between atoms: N_1  and  S_6
REMARK    2  A    between atoms: C_2  and  C_17
REMARK    3  A    between atoms: S_6  and  C_9
REMARK    4  A    between atoms: C_12  and  O_15
REMARK    5  A    between atoms: C_17  and  C_18
REMARK    6  A    between atoms: C_18  and  N_19
REMARK                            x       y       z     vdW  Elec       q    Type
REMARK                         _______ _______ _______ _____ _____    ______ ____
ROOT
ATOM      1  N   UNL     1      34.510 -15.836 -22.985  0.00  0.00    -0.157 NA
ATOM      2  C   UNL     1      33.548 -15.154 -23.908  0.00  0.00    +0.078 C 
ATOM      3  C   UNL     1      33.896 -15.721 -25.282  0.00  0.00    +0.019 C 
ATOM      4  C   UNL     1      34.238 -17.163 -24.961  0.00  0.00    +0.021 C 
ATOM      5  C   UNL     1      35.047 -17.047 -23.678  0.00  0.00    +0.096 C 
ENDROOT
BRANCH   1   6
ATOM      6  S   UNL     1      34.064 -16.000 -21.350  0.00  0.00    +0.063 S 
ATOM      7  O   UNL     1      32.629 -15.824 -21.221  0.00  0.00    -0.153 OA
ATOM      8  O   UNL     1      34.978 -15.235 -20.524  0.00  0.00    -0.153 OA
BRANCH   6   9
ATOM      9  C   UNL     1      34.415 -17.713 -21.096  0.00  0.00    +0.125 C 
ATOM     10  C   UNL     1      33.367 -18.606 -20.955  0.00  0.00    +0.057 C 
ATOM     11  C   UNL     1      35.734 -18.132 -21.042  0.00  0.00    +0.020 C 
ATOM     12  C   UNL     1      33.645 -19.958 -20.755  0.00  0.00    +0.135 C 
ATOM     13  C   UNL     1      36.012 -19.484 -20.841  0.00  0.00    +0.004 C 
ATOM     14  C   UNL     1      34.967 -20.397 -20.697  0.00  0.00    +0.037 C 
BRANCH  12  15
ATOM     15  O   UNL     1      32.626 -20.850 -20.615  0.00  0.00    -0.505 OA
ATOM     16  H   UNL     1      32.502 -21.296 -19.800  0.00  0.00    +0.292 HD
ENDBRANCH  12  15
ENDBRANCH   6   9
ENDBRANCH   1   6
BRANCH   2  17
ATOM     17  C   UNL     1      33.718 -13.647 -23.844  0.00  0.00    -0.005 C 
BRANCH  17  18
ATOM     18  C   UNL     1      32.498 -12.975 -23.219  0.00  0.00    -0.076 C 
BRANCH  18  19
ATOM     19  N   UNL     1      32.825 -11.609 -22.811  0.00  0.00    +0.387 N 
ATOM     20  C   UNL     1      32.567  -8.671 -22.813  0.00  0.00    -0.004 C 
ATOM     21  C   UNL     1      33.301 -10.828 -23.960  0.00  0.00    -0.077 C 
ATOM     22  C   UNL     1      31.664 -10.970 -22.176  0.00  0.00    -0.077 C 
ATOM     23  C   UNL     1      33.697  -9.411 -23.539  0.00  0.00    -0.023 C 
ATOM     24  C   UNL     1      32.005  -9.557 -21.695  0.00  0.00    -0.023 C 
ATOM     25  C   UNL     1      31.472  -8.217 -23.782  0.00  0.00    -0.000 C 
ATOM     26  H   UNL     1      33.577 -11.644 -22.124  0.00  0.00    -0.080 HD
ENDBRANCH  18  19
ENDBRANCH  17  18
ENDBRANCH   2  17
TORSDOF 6
ENDMDL
MODEL 2
REMARK VINA RESULT:      -9.3      0.552      1.234
REMARK  Name = 6604889
REMARK  6 active torsions:
REMARK  status: ('A' for Active; 'I' for Inactive)
REMARK    1  A    between atoms: N_1  and  S_6
REMARK    2  A    between atoms: C_2  and  C_17
REMARK    3  A    between atoms: S_6  and  C_9
REMARK    4  A    between atoms: C_12  and  O_15
REMARK    5  A    between atoms: C_17  and  C_18
REMARK    6  A    between atoms: C_18  and  N_19
REMARK                            x       y       z     vdW  Elec       q    Type
REMARK                         _______ _______ _______ _____ _____    ______ ____
ROOT
ATOM      1  N   UNL     1      34.455 -15.594 -22.963  0.00  0.00    -0.157 NA
ATOM      2  C   UNL     1      33.537 -14.791 -23.832  0.00  0.00    +0.078 C 
ATOM      3  C   UNL     1      33.824 -15.306 -25.241  0.00  0.00    +0.019 C 
ATOM      4  C   UNL     1      34.057 -16.785 -25.004  0.00  0.00    +0.021 C 
ATOM      5  C   UNL     1      34.889 -16.802 -23.730  0.00  0.00    +0.096 C 
ENDROOT
BRANCH   1   6
ATOM      6  S   UNL     1      34.019 -15.815 -21.333  0.00  0.00    +0.063 S 
ATOM      7  O   UNL     1      32.584 -15.650 -21.191  0.00  0.00    -0.153 OA
ATOM      8  O   UNL     1      34.934 -15.072 -20.487  0.00  0.00    -0.153 OA
BRANCH   6   9
ATOM      9  C   UNL     1      34.380 -17.533 -21.137  0.00  0.00    +0.125 C 
ATOM     10  C   UNL     1      33.338 -18.433 -20.994  0.00  0.00    +0.057 C 
ATOM     11  C   UNL     1      35.701 -17.950 -21.130  0.00  0.00    +0.020 C 
ATOM     12  C   UNL     1      33.623 -19.789 -20.840  0.00  0.00    +0.135 C 
ATOM     13  C   UNL     1      35.987 -19.306 -20.975  0.00  0.00    +0.004 C 
ATOM     14  C   UNL     1      34.948 -20.225 -20.830  0.00  0.00    +0.037 C 
BRANCH  12  15
ATOM     15  O   UNL     1      32.610 -20.687 -20.698  0.00  0.00    -0.505 OA
ATOM     16  H   UNL     1      32.322 -20.937 -19.842  0.00  0.00    +0.292 HD
ENDBRANCH  12  15
ENDBRANCH   6   9
ENDBRANCH   1   6
BRANCH   2  17
ATOM     17  C   UNL     1      33.824 -13.307 -23.689  0.00  0.00    -0.005 C 
BRANCH  17  18
ATOM     18  C   UNL     1      32.711 -12.597 -22.921  0.00  0.00    -0.076 C 
BRANCH  18  19
ATOM     19  N   UNL     1      32.561 -11.223 -23.400  0.00  0.00    +0.387 N 
ATOM     20  C   UNL     1      32.861  -8.291 -23.287  0.00  0.00    -0.004 C 
ATOM     21  C   UNL     1      31.754 -10.436 -22.459  0.00  0.00    -0.077 C 
ATOM     22  C   UNL     1      33.876 -10.608 -23.620  0.00  0.00    -0.077 C 
ATOM     23  C   UNL     1      31.542  -9.009 -22.972  0.00  0.00    -0.023 C 
ATOM     24  C   UNL     1      33.736  -9.187 -24.172  0.00  0.00    -0.023 C 
ATOM     25  C   UNL     1      33.592  -7.864 -22.012  0.00  0.00    -0.000 C 
ATOM     26  H   UNL     1      32.070 -11.240 -24.294  0.00  0.00    -0.080 HD
ENDBRANCH  18  19
ENDBRANCH  17  18
ENDBRANCH   2  17
TORSDOF 6
ENDMDL
MODEL 3
REMARK VINA RESULT:      -9.2      1.395      2.087
REMARK  Name = 6604889
REMARK  6 active torsions:
REMARK  status: ('A' for Active; 'I' for Inactive)
REMARK    1  A    between atoms: N_1  and  S_6
REMARK    2  A    between atoms: C_2  and  C_17
REMARK    3  A    between atoms: S_6  and  C_9
REMARK    4  A    between atoms: C_12  and  O_15
REMARK    5  A    between atoms: C_17  and  C_18
REMARK    6  A    between atoms: C_18  and  N_19
REMARK                            x       y       z     vdW  Elec       q    Type
REMARK                         _______ _______ _______ _____ _____    ______ ____
ROOT
ATOM      1  N   UNL     1      34.214 -14.999 -22.691  0.00  0.00    -0.157 NA
ATOM      2  C   UNL     1      33.045 -14.442 -23.444  0.00  0.00    +0.078 C 
ATOM      3  C   UNL     1      33.372 -14.748 -24.904  0.00  0.00    +0.019 C 
ATOM      4  C   UNL     1      34.039 -16.106 -24.809  0.00  0.00    +0.021 C 
ATOM      5  C   UNL     1      34.925 -15.968 -23.580  0.00  0.00    +0.096 C 
ENDROOT
BRANCH   1   6
ATOM      6  S   UNL     1      33.973 -15.453 -21.069  0.00  0.00    +0.063 S 
ATOM      7  O   UNL     1      32.560 -15.362 -20.747  0.00  0.00    -0.153 OA
ATOM      8  O   UNL     1      34.962 -14.798 -20.234  0.00  0.00    -0.153 OA
BRANCH   6   9
ATOM      9  C   UNL     1      34.390 -17.167 -21.153  0.00  0.00    +0.125 C 
ATOM     10  C   UNL     1      35.717 -17.548 -21.048  0.00  0.00    +0.057 C 
ATOM     11  C   UNL     1      33.381 -18.102 -21.323  0.00  0.00    +0.020 C 
ATOM     12  C   UNL     1      36.046 -18.902 -21.114  0.00  0.00    +0.135 C 
ATOM     13  C   UNL     1      33.710 -19.455 -21.389  0.00  0.00    +0.004 C 
ATOM     14  C   UNL     1      35.042 -19.855 -21.285  0.00  0.00    +0.037 C 
BRANCH  12  15
ATOM     15  O   UNL     1      37.345 -19.294 -21.012  0.00  0.00    -0.505 OA
ATOM     16  H   UNL     1      37.639 -19.749 -20.248  0.00  0.00    +0.292 HD
ENDBRANCH  12  15
ENDBRANCH   6   9
ENDBRANCH   1   6
BRANCH   2  17
ATOM     17  C   UNL     1      32.899 -12.953 -23.184  0.00  0.00    -0.005 C 
BRANCH  17  18
ATOM     18  C   UNL     1      33.886 -12.142 -24.020  0.00  0.00    -0.076 C 
BRANCH  18  19
ATOM     19  N   UNL     1      33.438 -10.754 -24.128  0.00  0.00    +0.387 N 
ATOM     20  C   UNL     1      33.008  -7.989 -23.194  0.00  0.00    -0.004 C 
ATOM     21  C   UNL     1      32.403 -10.467 -23.126  0.00  0.00    -0.077 C 
ATOM     22  C   UNL     1      34.576  -9.834 -23.999  0.00  0.00    -0.077 C 
ATOM     23  C   UNL     1      31.886  -9.032 -23.261  0.00  0.00    -0.023 C 
ATOM     24  C   UNL     1      34.132  -8.378 -24.163  0.00  0.00    -0.023 C 
ATOM     25  C   UNL     1      33.528  -7.806 -21.766  0.00  0.00    -0.000 C 
ATOM     26  H   UNL     1      33.026 -10.614 -25.051  0.00  0.00    -0.080 HD
ENDBRANCH  18  19
ENDBRANCH  17  18
ENDBRANCH   2  17
TORSDOF 6
ENDMDL
MODEL 4
REMARK VINA RESULT:      -9.0      4.044      9.703
REMARK  Name = 6604889
REMARK  6 active torsions:
REMARK  status: ('A' for Active; 'I' for Inactive)
REMARK    1  A    between atoms: N_1  and  S_6
REMARK    2  A    between atoms: C_2  and  C_17
REMARK    3  A    between atoms: S_6  and  C_9
REMARK    4  A    between atoms: C_12  and  O_15
REMARK    5  A    between atoms: C_17  and  C_18
REMARK    6  A    between atoms: C_18  and  N_19
REMARK                            x       y       z     vdW  Elec       q    Type
REMARK                         _______ _______ _______ _____ _____    ______ ____
ROOT
ATOM      1  N   UNL     1      34.685 -19.193 -20.820  0.00  0.00    -0.157 NA
ATOM      2  C   UNL     1      35.054 -20.569 -20.359  0.00  0.00    +0.078 C 
ATOM      3  C   UNL     1      33.776 -21.094 -19.711  0.00  0.00    +0.019 C 
ATOM      4  C   UNL     1      32.698 -20.515 -20.605  0.00  0.00    +0.021 C 
ATOM      5  C   UNL     1      33.194 -19.100 -20.870  0.00  0.00    +0.096 C 
ENDROOT
BRANCH   1   6
ATOM      6  S   UNL     1      35.556 -18.527 -22.121  0.00  0.00    +0.063 S 
ATOM      7  O   UNL     1      35.101 -19.125 -23.363  0.00  0.00    -0.153 OA
ATOM      8  O   UNL     1      36.968 -18.501 -21.790  0.00  0.00    -0.153 OA
BRANCH   6   9
ATOM      9  C   UNL     1      34.964 -16.863 -22.083  0.00  0.00    +0.125 C 
ATOM     10  C   UNL     1      34.620 -16.238 -23.269  0.00  0.00    +0.057 C 
ATOM     11  C   UNL     1      34.854 -16.213 -20.864  0.00  0.00    +0.020 C 
ATOM     12  C   UNL     1      34.151 -14.925 -23.237  0.00  0.00    +0.135 C 
ATOM     13  C   UNL     1      34.386 -14.900 -20.833  0.00  0.00    +0.004 C 
ATOM     14  C   UNL     1      34.035 -14.256 -22.019  0.00  0.00    +0.037 C 
BRANCH  12  15
ATOM     15  O   UNL     1      33.808 -14.296 -24.395  0.00  0.00    -0.505 OA
ATOM     16  H   UNL     1      34.055 -14.665 -25.220  0.00  0.00    +0.292 HD
ENDBRANCH  12  15
ENDBRANCH   6   9
ENDBRANCH   1   6
BRANCH   2  17
ATOM     17  C   UNL     1      36.217 -20.515 -19.385  0.00  0.00    -0.005 C 
BRANCH  17  18
ATOM     18  C   UNL     1      36.550 -21.900 -18.838  0.00  0.00    -0.076 C 
BRANCH  18  19
ATOM     19  N   UNL     1      36.249 -21.967 -17.408  0.00  0.00    +0.387 N 
ATOM     20  C   UNL     1      35.945 -23.282 -14.785  0.00  0.00    -0.004 C 
ATOM     21  C   UNL     1      35.115 -22.868 -17.162  0.00  0.00    -0.077 C 
ATOM     22  C   UNL     1      37.436 -22.385 -16.650  0.00  0.00    -0.077 C 
ATOM     23  C   UNL     1      34.753 -22.907 -15.675  0.00  0.00    -0.023 C 
ATOM     24  C   UNL     1      37.153 -22.409 -15.146  0.00  0.00    -0.023 C 
ATOM     25  C   UNL     1      36.275 -24.775 -14.879  0.00  0.00    -0.000 C 
ATOM     26  H   UNL     1      35.984 -21.036 -17.085  0.00  0.00    -0.080 HD
ENDBRANCH  18  19
ENDBRANCH  17  18
ENDBRANCH   2  17
TORSDOF 6
ENDMDL
MODEL 5
REMARK VINA RESULT:      -9.0      7.275     10.610
REMARK  Name = 6604889
REMARK  6 active torsions:
REMARK  status: ('A' for Active; 'I' for Inactive)
REMARK    1  A    between atoms: N_1  and  S_6
REMARK    2  A    between atoms: C_2  and  C_17
REMARK    3  A    between atoms: S_6  and  C_9
REMARK    4  A    between atoms: C_12  and  O_15
REMARK    5  A    between atoms: C_17  and  C_18
REMARK    6  A    between atoms: C_18  and  N_19
REMARK                            x       y       z     vdW  Elec       q    Type
REMARK                         _______ _______ _______ _____ _____    ______ ____
ROOT
ATOM      1  N   UNL     1      33.617 -23.881 -15.390  0.00  0.00    -0.157 NA
ATOM      2  C   UNL     1      33.423 -22.871 -16.479  0.00  0.00    +0.078 C 
ATOM      3  C   UNL     1      32.032 -23.184 -17.025  0.00  0.00    +0.019 C 
ATOM      4  C   UNL     1      31.272 -23.571 -15.772  0.00  0.00    +0.021 C 
ATOM      5  C   UNL     1      32.277 -24.423 -15.009  0.00  0.00    +0.096 C 
ENDROOT
BRANCH   1   6
ATOM      6  S   UNL     1      34.696 -23.498 -14.131  0.00  0.00    +0.063 S 
ATOM      7  O   UNL     1      33.995 -23.556 -12.861  0.00  0.00    -0.153 OA
ATOM      8  O   UNL     1      35.463 -22.323 -14.496  0.00  0.00    -0.153 OA
BRANCH   6   9
ATOM      9  C   UNL     1      35.779 -24.892 -14.205  0.00  0.00    +0.125 C 
ATOM     10  C   UNL     1      35.839 -25.643 -15.365  0.00  0.00    +0.057 C 
ATOM     11  C   UNL     1      36.551 -25.207 -13.098  0.00  0.00    +0.020 C 
ATOM     12  C   UNL     1      36.695 -26.743 -15.423  0.00  0.00    +0.135 C 
ATOM     13  C   UNL     1      37.407 -26.307 -13.156  0.00  0.00    +0.004 C 
ATOM     14  C   UNL     1      37.479 -27.075 -14.318  0.00  0.00    +0.037 C 
BRANCH  12  15
ATOM     15  O   UNL     1      36.766 -27.493 -16.557  0.00  0.00    -0.505 OA
ATOM     16  H   UNL     1      37.217 -28.314 -16.548  0.00  0.00    +0.292 HD
ENDBRANCH  12  15
ENDBRANCH   6   9
ENDBRANCH   1   6
BRANCH   2  17
ATOM     17  C   UNL     1      34.504 -23.008 -17.536  0.00  0.00    -0.005 C 
BRANCH  17  18
ATOM     18  C   UNL     1      33.951 -22.744 -18.934  0.00  0.00    -0.076 C 
BRANCH  18  19
ATOM     19  N   UNL     1      34.252 -21.374 -19.349  0.00  0.00    +0.387 N 
ATOM     20  C   UNL     1      34.819 -19.214 -21.276  0.00  0.00    -0.004 C 
ATOM     21  C   UNL     1      35.553 -21.315 -20.029  0.00  0.00    -0.077 C 
ATOM     22  C   UNL     1      33.179 -20.848 -20.204  0.00  0.00    -0.077 C 
ATOM     23  C   UNL     1      35.906 -19.879 -20.423  0.00  0.00    -0.023 C 
ATOM     24  C   UNL     1      33.453 -19.396 -20.603  0.00  0.00    -0.023 C 
ATOM     25  C   UNL     1      34.820 -19.747 -22.711  0.00  0.00    -0.000 C 
ATOM     26  H   UNL     1      34.307 -20.785 -18.518  0.00  0.00    -0.080 HD
ENDBRANCH  18  19
ENDBRANCH  17  18
ENDBRANCH   2  17
TORSDOF 6
ENDMDL
MODEL 6
REMARK VINA RESULT:      -9.0      3.950      6.711
REMARK  Name = 6604889
REMARK  6 active torsions:
REMARK  status: ('A' for Active; 'I' for Inactive)
REMARK    1  A    between atoms: N_1  and  S_6
REMARK    2  A    between atoms: C_2  and  C_17
REMARK    3  A    between atoms: S_6  and  C_9
REMARK    4  A    between atoms: C_12  and  O_15
REMARK    5  A    between atoms: C_17  and  C_18
REMARK    6  A    between atoms: C_18  and  N_19
REMARK                            x       y       z     vdW  Elec       q    Type
REMARK                         _______ _______ _______ _____ _____    ______ ____
ROOT
ATOM      1  N   UNL     1      34.869 -21.380 -19.223  0.00  0.00    -0.157 NA
ATOM      2  C   UNL     1      35.266 -20.695 -20.494  0.00  0.00    +0.078 C 
ATOM      3  C   UNL     1      36.679 -20.192 -20.212  0.00  0.00    +0.019 C 
ATOM      4  C   UNL     1      37.260 -21.310 -19.369  0.00  0.00    +0.021 C 
ATOM      5  C   UNL     1      36.110 -21.673 -18.441  0.00  0.00    +0.096 C 
ENDROOT
BRANCH   1   6
ATOM      6  S   UNL     1      33.690 -22.605 -19.312  0.00  0.00    +0.063 S 
ATOM      7  O   UNL     1      34.293 -23.817 -19.834  0.00  0.00    -0.153 OA
ATOM      8  O   UNL     1      32.483 -22.066 -19.908  0.00  0.00    -0.153 OA
BRANCH   6   9
ATOM      9  C   UNL     1      33.372 -22.865 -17.594  0.00  0.00    +0.125 C 
ATOM     10  C   UNL     1      32.072 -22.788 -17.126  0.00  0.00    +0.057 C 
ATOM     11  C   UNL     1      34.431 -23.143 -16.744  0.00  0.00    +0.020 C 
ATOM     12  C   UNL     1      31.821 -22.995 -15.769  0.00  0.00    +0.135 C 
ATOM     13  C   UNL     1      34.180 -23.349 -15.388  0.00  0.00    +0.004 C 
ATOM     14  C   UNL     1      32.876 -23.275 -14.901  0.00  0.00    +0.037 C 
BRANCH  12  15
ATOM     15  O   UNL     1      30.548 -22.923 -15.293  0.00  0.00    -0.505 OA
ATOM     16  H   UNL     1      29.838 -22.750 -15.878  0.00  0.00    +0.292 HD
ENDBRANCH  12  15
ENDBRANCH   6   9
ENDBRANCH   1   6
BRANCH   2  17
ATOM     17  C   UNL     1      34.304 -19.567 -20.818  0.00  0.00    -0.005 C 
BRANCH  17  18
ATOM     18  C   UNL     1      34.555 -19.005 -22.215  0.00  0.00    -0.076 C 
BRANCH  18  19
ATOM     19  N   UNL     1      34.860 -17.577 -22.141  0.00  0.00    +0.387 N 
ATOM     20  C   UNL     1      34.231 -14.696 -22.058  0.00  0.00    -0.004 C 
ATOM     21  C   UNL     1      34.399 -16.888 -23.354  0.00  0.00    -0.077 C 
ATOM     22  C   UNL     1      34.268 -16.985 -20.933  0.00  0.00    -0.077 C 
ATOM     23  C   UNL     1      34.758 -15.400 -23.315  0.00  0.00    -0.023 C 
ATOM     24  C   UNL     1      34.623 -15.501 -20.813  0.00  0.00    -0.023 C 
ATOM     25  C   UNL     1      32.719 -14.463 -22.131  0.00  0.00    -0.000 C 
ATOM     26  H   UNL     1      35.872 -17.460 -22.082  0.00  0.00    -0.080 HD
ENDBRANCH  18  19
ENDBRANCH  17  18
ENDBRANCH   2  17
TORSDOF 6
ENDMDL
MODEL 7
REMARK VINA RESULT:      -9.0     11.554     13.061
REMARK  Name = 6604889
REMARK  6 active torsions:
REMARK  status: ('A' for Active; 'I' for Inactive)
REMARK    1  A    between atoms: N_1  and  S_6
REMARK    2  A    between atoms: C_2  and  C_17
REMARK    3  A    between atoms: S_6  and  C_9
REMARK    4  A    between atoms: C_12  and  O_15
REMARK    5  A    between atoms: C_17  and  C_18
REMARK    6  A    between atoms: C_18  and  N_19
REMARK                            x       y       z     vdW  Elec       q    Type
REMARK                         _______ _______ _______ _____ _____    ______ ____
ROOT
ATOM      1  N   UNL     1      35.074 -23.225 -13.829  0.00  0.00    -0.157 NA
ATOM      2  C   UNL     1      33.912 -23.931 -14.456  0.00  0.00    +0.078 C 
ATOM      3  C   UNL     1      33.896 -23.405 -15.890  0.00  0.00    +0.019 C 
ATOM      4  C   UNL     1      35.373 -23.278 -16.205  0.00  0.00    +0.021 C 
ATOM      5  C   UNL     1      35.951 -22.702 -14.921  0.00  0.00    +0.096 C 
ENDROOT
BRANCH   1   6
ATOM      6  S   UNL     1      35.834 -23.968 -12.500  0.00  0.00    +0.063 S 
ATOM      7  O   UNL     1      34.914 -24.902 -11.877  0.00  0.00    -0.153 OA
ATOM      8  O   UNL     1      36.510 -22.959 -11.706  0.00  0.00    -0.153 OA
BRANCH   6   9
ATOM      9  C   UNL     1      37.072 -24.916 -13.331  0.00  0.00    +0.125 C 
ATOM     10  C   UNL     1      38.391 -24.496 -13.287  0.00  0.00    +0.057 C 
ATOM     11  C   UNL     1      36.701 -26.064 -14.012  0.00  0.00    +0.020 C 
ATOM     12  C   UNL     1      39.368 -25.245 -13.943  0.00  0.00    +0.135 C 
ATOM     13  C   UNL     1      37.677 -26.812 -14.668  0.00  0.00    +0.004 C 
ATOM     14  C   UNL     1      39.010 -26.403 -14.634  0.00  0.00    +0.037 C 
BRANCH  12  15
ATOM     15  O   UNL     1      40.669 -24.847 -13.909  0.00  0.00    -0.505 OA
ATOM     16  H   UNL     1      40.901 -23.983 -14.187  0.00  0.00    +0.292 HD
ENDBRANCH  12  15
ENDBRANCH   6   9
ENDBRANCH   1   6
BRANCH   2  17
ATOM     17  C   UNL     1      32.627 -23.618 -13.711  0.00  0.00    -0.005 C 
BRANCH  17  18
ATOM     18  C   UNL     1      31.558 -24.675 -13.976  0.00  0.00    -0.076 C 
BRANCH  18  19
ATOM     19  N   UNL     1      30.769 -24.315 -15.154  0.00  0.00    +0.387 N 
ATOM     20  C   UNL     1      28.494 -23.117 -16.598  0.00  0.00    -0.004 C 
ATOM     21  C   UNL     1      29.445 -24.950 -15.100  0.00  0.00    -0.077 C 
ATOM     22  C   UNL     1      30.656 -22.855 -15.271  0.00  0.00    -0.077 C 
ATOM     23  C   UNL     1      28.626 -24.625 -16.352  0.00  0.00    -0.023 C 
ATOM     24  C   UNL     1      29.877 -22.460 -16.528  0.00  0.00    -0.023 C 
ATOM     25  C   UNL     1      27.507 -22.468 -15.624  0.00  0.00    -0.000 C 
ATOM     26  H   UNL     1      31.247 -24.659 -15.986  0.00  0.00    -0.080 HD
ENDBRANCH  18  19
ENDBRANCH  17  18
ENDBRANCH   2  17
TORSDOF 6
ENDMDL
MODEL 8
REMARK VINA RESULT:      -8.9      6.667     10.217
REMARK  Name = 6604889
REMARK  6 active torsions:
REMARK  status: ('A' for Active; 'I' for Inactive)
REMARK    1  A    between atoms: N_1  and  S_6
REMARK    2  A    between atoms: C_2  and  C_17
REMARK    3  A    between atoms: S_6  and  C_9
REMARK    4  A    between atoms: C_12  and  O_15
REMARK    5  A    between atoms: C_17  and  C_18
REMARK    6  A    between atoms: C_18  and  N_19
REMARK                            x       y       z     vdW  Elec       q    Type
REMARK                         _______ _______ _______ _____ _____    ______ ____
ROOT
ATOM      1  N   UNL     1      34.773 -23.586 -16.295  0.00  0.00    -0.157 NA
ATOM      2  C   UNL     1      33.949 -22.713 -17.189  0.00  0.00    +0.078 C 
ATOM      3  C   UNL     1      32.524 -23.223 -16.987  0.00  0.00    +0.019 C 
ATOM      4  C   UNL     1      32.509 -23.566 -15.511  0.00  0.00    +0.021 C 
ATOM      5  C   UNL     1      33.862 -24.227 -15.297  0.00  0.00    +0.096 C 
ENDROOT
BRANCH   1   6
ATOM      6  S   UNL     1      36.253 -22.970 -15.723  0.00  0.00    +0.063 S 
ATOM      7  O   UNL     1      36.007 -21.778 -14.933  0.00  0.00    -0.153 OA
ATOM      8  O   UNL     1      37.215 -22.949 -16.808  0.00  0.00    -0.153 OA
BRANCH   6   9
ATOM      9  C   UNL     1      36.725 -24.259 -14.611  0.00  0.00    +0.125 C 
ATOM     10  C   UNL     1      36.959 -23.954 -13.281  0.00  0.00    +0.057 C 
ATOM     11  C   UNL     1      36.854 -25.552 -15.090  0.00  0.00    +0.020 C 
ATOM     12  C   UNL     1      37.331 -24.972 -12.403  0.00  0.00    +0.135 C 
ATOM     13  C   UNL     1      37.226 -26.570 -14.212  0.00  0.00    +0.004 C 
ATOM     14  C   UNL     1      37.465 -26.280 -12.869  0.00  0.00    +0.037 C 
BRANCH  12  15
ATOM     15  O   UNL     1      37.564 -24.691 -11.092  0.00  0.00    -0.505 OA
ATOM     16  H   UNL     1      38.063 -25.285 -10.566  0.00  0.00    +0.292 HD
ENDBRANCH  12  15
ENDBRANCH   6   9
ENDBRANCH   1   6
BRANCH   2  17
ATOM     17  C   UNL     1      34.409 -22.836 -18.631  0.00  0.00    -0.005 C 
BRANCH  17  18
ATOM     18  C   UNL     1      33.500 -22.051 -19.574  0.00  0.00    -0.076 C 
BRANCH  18  19
ATOM     19  N   UNL     1      34.084 -20.743 -19.870  0.00  0.00    +0.387 N 
ATOM     20  C   UNL     1      35.192 -18.626 -21.599  0.00  0.00    -0.004 C 
ATOM     21  C   UNL     1      35.420 -20.898 -20.461  0.00  0.00    -0.077 C 
ATOM     22  C   UNL     1      33.197 -19.971 -20.751  0.00  0.00    -0.077 C 
ATOM     23  C   UNL     1      36.067 -19.536 -20.729  0.00  0.00    -0.023 C 
ATOM     24  C   UNL     1      33.769 -18.579 -21.028  0.00  0.00    -0.023 C 
ATOM     25  C   UNL     1      35.200 -19.065 -23.066  0.00  0.00    -0.000 C 
ATOM     26  H   UNL     1      34.187 -20.225 -18.998  0.00  0.00    -0.080 HD
ENDBRANCH  18  19
ENDBRANCH  17  18
ENDBRANCH   2  17
TORSDOF 6
ENDMDL
MODEL 9
REMARK VINA RESULT:      -8.9      6.676      9.764
REMARK  Name = 6604889
REMARK  6 active torsions:
REMARK  status: ('A' for Active; 'I' for Inactive)
REMARK    1  A    between atoms: N_1  and  S_6
REMARK    2  A    between atoms: C_2  and  C_17
REMARK    3  A    between atoms: S_6  and  C_9
REMARK    4  A    between atoms: C_12  and  O_15
REMARK    5  A    between atoms: C_17  and  C_18
REMARK    6  A    between atoms: C_18  and  N_19
REMARK                            x       y       z     vdW  Elec       q    Type
REMARK                         _______ _______ _______ _____ _____    ______ ____
ROOT
ATOM      1  N   UNL     1      35.441 -22.798 -15.716  0.00  0.00    -0.157 NA
ATOM      2  C   UNL     1      35.726 -22.748 -17.185  0.00  0.00    +0.078 C 
ATOM      3  C   UNL     1      36.835 -21.706 -17.307  0.00  0.00    +0.019 C 
ATOM      4  C   UNL     1      37.660 -21.962 -16.061  0.00  0.00    +0.021 C 
ATOM      5  C   UNL     1      36.603 -22.198 -14.992  0.00  0.00    +0.096 C 
ENDROOT
BRANCH   1   6
ATOM      6  S   UNL     1      34.776 -24.230 -15.081  0.00  0.00    +0.063 S 
ATOM      7  O   UNL     1      35.296 -24.453 -13.745  0.00  0.00    -0.153 OA
ATOM      8  O   UNL     1      34.846 -25.277 -16.083  0.00  0.00    -0.153 OA
BRANCH   6   9
ATOM      9  C   UNL     1      33.083 -23.752 -14.921  0.00  0.00    +0.125 C 
ATOM     10  C   UNL     1      32.373 -23.381 -16.050  0.00  0.00    +0.057 C 
ATOM     11  C   UNL     1      32.495 -23.756 -13.666  0.00  0.00    +0.020 C 
ATOM     12  C   UNL     1      31.037 -23.004 -15.923  0.00  0.00    +0.135 C 
ATOM     13  C   UNL     1      31.159 -23.378 -13.539  0.00  0.00    +0.004 C 
ATOM     14  C   UNL     1      30.430 -23.002 -14.667  0.00  0.00    +0.037 C 
BRANCH  12  15
ATOM     15  O   UNL     1      30.324 -22.636 -17.023  0.00  0.00    -0.505 OA
ATOM     16  H   UNL     1      29.465 -22.983 -17.162  0.00  0.00    +0.292 HD
ENDBRANCH  12  15
ENDBRANCH   6   9
ENDBRANCH   1   6
BRANCH   2  17
ATOM     17  C   UNL     1      34.480 -22.361 -17.961  0.00  0.00    -0.005 C 
BRANCH  17  18
ATOM     18  C   UNL     1      34.773 -22.225 -19.453  0.00  0.00    -0.076 C 
BRANCH  18  19
ATOM     19  N   UNL     1      34.744 -20.817 -19.850  0.00  0.00    +0.387 N 
ATOM     20  C   UNL     1      34.684 -18.563 -21.751  0.00  0.00    -0.004 C 
ATOM     21  C   UNL     1      35.943 -20.477 -20.628  0.00  0.00    -0.077 C 
ATOM     22  C   UNL     1      33.518 -20.519 -20.601  0.00  0.00    -0.077 C 
ATOM     23  C   UNL     1      35.954 -18.993 -21.006  0.00  0.00    -0.023 C 
ATOM     24  C   UNL     1      33.447 -19.037 -20.978  0.00  0.00    -0.023 C 
ATOM     25  C   UNL     1      34.677 -19.066 -23.197  0.00  0.00    -0.000 C 
ATOM     26  H   UNL     1      34.744 -20.240 -19.009  0.00  0.00    -0.080 HD
ENDBRANCH  18  19
ENDBRANCH  17  18
ENDBRANCH   2  17
TORSDOF 6
ENDMDL
