MODEL 1
REMARK VINA RESULT:      -6.2      0.000      0.000
REMARK  Name = 43157
REMARK  1 active torsions:
REMARK  status: ('A' for Active; 'I' for Inactive)
REMARK    1  A    between atoms: C_5  and  C_11
REMARK                            x       y       z     vdW  Elec       q    Type
REMARK                         _______ _______ _______ _____ _____    ______ ____
ROOT
ATOM      1  O   UNL     1      36.588 -20.212 -20.068  0.00  0.00    -0.269 OA
ATOM      2  O   UNL     1      33.769 -23.614 -18.732  0.00  0.00    -0.252 OA
ATOM      3  N   UNL     1      35.190 -21.919 -19.395  0.00  0.00    -0.235 N 
ATOM      4  N   UNL     1      32.894 -21.778 -19.809  0.00  0.00    -0.266 N 
ATOM      5  C   UNL     1      34.269 -19.982 -20.533  0.00  0.00    +0.111 C 
ATOM      6  C   UNL     1      35.461 -20.693 -19.988  0.00  0.00    +0.262 C 
ATOM      7  C   UNL     1      33.069 -20.562 -20.412  0.00  0.00    +0.078 C 
ATOM      8  C   UNL     1      33.934 -22.519 -19.272  0.00  0.00    +0.310 C 
ATOM      9  H   UNL     1      35.957 -22.414 -19.025  0.00  0.00    +0.159 HD
ATOM     10  H   UNL     1      31.982 -22.147 -19.755  0.00  0.00    +0.156 HD
ENDROOT
BRANCH   5  11
ATOM     11  C   UNL     1      34.410 -18.717 -21.165  0.00  0.00    -0.045 C 
ATOM     12  C   UNL     1      34.529 -17.648 -21.698  0.00  0.00    -0.009 C 
ENDBRANCH   5  11
TORSDOF 1
ENDMDL
MODEL 2
REMARK VINA RESULT:      -6.1      1.481      2.113
REMARK  Name = 43157
REMARK  1 active torsions:
REMARK  status: ('A' for Active; 'I' for Inactive)
REMARK    1  A    between atoms: C_5  and  C_11
REMARK                            x       y       z     vdW  Elec       q    Type
REMARK                         _______ _______ _______ _____ _____    ______ ____
ROOT
ATOM      1  O   UNL     1      32.312 -20.101 -20.772  0.00  0.00    -0.269 OA
ATOM      2  O   UNL     1      33.743 -23.564 -18.077  0.00  0.00    -0.252 OA
ATOM      3  N   UNL     1      33.014 -21.837 -19.423  0.00  0.00    -0.235 N 
ATOM      4  N   UNL     1      35.292 -22.126 -18.986  0.00  0.00    -0.266 N 
ATOM      5  C   UNL     1      34.647 -20.317 -20.384  0.00  0.00    +0.111 C 
ATOM      6  C   UNL     1      33.220 -20.721 -20.226  0.00  0.00    +0.262 C 
ATOM      7  C   UNL     1      35.587 -21.037 -19.760  0.00  0.00    +0.078 C 
ATOM      8  C   UNL     1      34.001 -22.583 -18.776  0.00  0.00    +0.310 C 
ATOM      9  H   UNL     1      32.082 -22.129 -19.299  0.00  0.00    +0.159 HD
ATOM     10  H   UNL     1      36.035 -22.610 -18.557  0.00  0.00    +0.156 HD
ENDROOT
BRANCH   5  11
ATOM     11  C   UNL     1      34.993 -19.191 -21.179  0.00  0.00    -0.045 C 
ATOM     12  C   UNL     1      35.286 -18.242 -21.852  0.00  0.00    -0.009 C 
ENDBRANCH   5  11
TORSDOF 1
ENDMDL
MODEL 3
REMARK VINA RESULT:      -6.0      4.246      5.689
REMARK  Name = 43157
REMARK  1 active torsions:
REMARK  status: ('A' for Active; 'I' for Inactive)
REMARK    1  A    between atoms: C_5  and  C_11
REMARK                            x       y       z     vdW  Elec       q    Type
REMARK                         _______ _______ _______ _____ _____    ______ ____
ROOT
ATOM      1  O   UNL     1      35.111 -16.674 -21.399  0.00  0.00    -0.269 OA
ATOM      2  O   UNL     1      34.460 -16.366 -25.958  0.00  0.00    -0.252 OA
ATOM      3  N   UNL     1      34.786 -16.506 -23.677  0.00  0.00    -0.235 N 
ATOM      4  N   UNL     1      34.565 -18.442 -24.969  0.00  0.00    -0.266 N 
ATOM      5  C   UNL     1      34.897 -18.696 -22.631  0.00  0.00    +0.111 C 
ATOM      6  C   UNL     1      34.944 -17.212 -22.490  0.00  0.00    +0.262 C 
ATOM      7  C   UNL     1      34.712 -19.215 -23.850  0.00  0.00    +0.078 C 
ATOM      8  C   UNL     1      34.594 -17.057 -24.946  0.00  0.00    +0.310 C 
ATOM      9  H   UNL     1      34.813 -15.524 -23.617  0.00  0.00    +0.159 HD
ATOM     10  H   UNL     1      34.432 -18.892 -25.835  0.00  0.00    +0.156 HD
ENDROOT
BRANCH   5  11
ATOM     11  C   UNL     1      35.045 -19.533 -21.492  0.00  0.00    -0.045 C 
ATOM     12  C   UNL     1      35.172 -20.241 -20.532  0.00  0.00    -0.009 C 
ENDBRANCH   5  11
TORSDOF 1
ENDMDL
MODEL 4
REMARK VINA RESULT:      -5.8      9.364      9.614
REMARK  Name = 43157
REMARK  1 active torsions:
REMARK  status: ('A' for Active; 'I' for Inactive)
REMARK    1  A    between atoms: C_5  and  C_11
REMARK                            x       y       z     vdW  Elec       q    Type
REMARK                         _______ _______ _______ _____ _____    ______ ____
ROOT
ATOM      1  O   UNL     1      39.329 -23.304 -11.696  0.00  0.00    -0.269 OA
ATOM      2  O   UNL     1      34.894 -24.299 -10.892  0.00  0.00    -0.252 OA
ATOM      3  N   UNL     1      37.112 -23.791 -11.285  0.00  0.00    -0.235 N 
ATOM      4  N   UNL     1      36.043 -25.480 -12.498  0.00  0.00    -0.266 N 
ATOM      5  C   UNL     1      38.327 -25.037 -12.979  0.00  0.00    +0.111 C 
ATOM      6  C   UNL     1      38.324 -23.967 -11.939  0.00  0.00    +0.262 C 
ATOM      7  C   UNL     1      37.197 -25.721 -13.193  0.00  0.00    +0.078 C 
ATOM      8  C   UNL     1      35.936 -24.510 -11.514  0.00  0.00    +0.310 C 
ATOM      9  H   UNL     1      37.077 -23.092 -10.592  0.00  0.00    +0.159 HD
ATOM     10  H   UNL     1      35.248 -26.022 -12.708  0.00  0.00    +0.156 HD
ENDROOT
BRANCH   5  11
ATOM     11  C   UNL     1      39.506 -25.317 -13.721  0.00  0.00    -0.045 C 
ATOM     12  C   UNL     1      40.500 -25.556 -14.348  0.00  0.00    -0.009 C 
ENDBRANCH   5  11
TORSDOF 1
ENDMDL
MODEL 5
REMARK VINA RESULT:      -5.8      2.165      4.289
REMARK  Name = 43157
REMARK  1 active torsions:
REMARK  status: ('A' for Active; 'I' for Inactive)
REMARK    1  A    between atoms: C_5  and  C_11
REMARK                            x       y       z     vdW  Elec       q    Type
REMARK                         _______ _______ _______ _____ _____    ______ ____
ROOT
ATOM      1  O   UNL     1      32.461 -20.456 -20.605  0.00  0.00    -0.269 OA
ATOM      2  O   UNL     1      36.241 -18.147 -21.902  0.00  0.00    -0.252 OA
ATOM      3  N   UNL     1      34.342 -19.293 -21.261  0.00  0.00    -0.235 N 
ATOM      4  N   UNL     1      36.438 -19.893 -20.416  0.00  0.00    -0.266 N 
ATOM      5  C   UNL     1      34.548 -21.137 -19.694  0.00  0.00    +0.111 C 
ATOM      6  C   UNL     1      33.675 -20.282 -20.549  0.00  0.00    +0.262 C 
ATOM      7  C   UNL     1      35.863 -20.893 -19.680  0.00  0.00    +0.078 C 
ATOM      8  C   UNL     1      35.717 -19.045 -21.241  0.00  0.00    +0.310 C 
ATOM      9  H   UNL     1      33.794 -18.711 -21.835  0.00  0.00    +0.159 HD
ATOM     10  H   UNL     1      37.414 -19.770 -20.358  0.00  0.00    +0.156 HD
ENDROOT
BRANCH   5  11
ATOM     11  C   UNL     1      33.989 -22.185 -18.914  0.00  0.00    -0.045 C 
ATOM     12  C   UNL     1      33.516 -23.069 -18.255  0.00  0.00    -0.009 C 
ENDBRANCH   5  11
TORSDOF 1
ENDMDL
MODEL 6
REMARK VINA RESULT:      -5.7      7.024      8.232
REMARK  Name = 43157
REMARK  1 active torsions:
REMARK  status: ('A' for Active; 'I' for Inactive)
REMARK    1  A    between atoms: C_5  and  C_11
REMARK                            x       y       z     vdW  Elec       q    Type
REMARK                         _______ _______ _______ _____ _____    ______ ____
ROOT
ATOM      1  O   UNL     1      32.990 -15.761 -26.536  0.00  0.00    -0.269 OA
ATOM      2  O   UNL     1      33.506 -12.049 -23.842  0.00  0.00    -0.252 OA
ATOM      3  N   UNL     1      33.240 -13.898 -25.199  0.00  0.00    -0.235 N 
ATOM      4  N   UNL     1      34.408 -14.059 -23.180  0.00  0.00    -0.266 N 
ATOM      5  C   UNL     1      34.192 -16.021 -24.502  0.00  0.00    +0.111 C 
ATOM      6  C   UNL     1      33.422 -15.239 -25.512  0.00  0.00    +0.262 C 
ATOM      7  C   UNL     1      34.634 -15.390 -23.408  0.00  0.00    +0.078 C 
ATOM      8  C   UNL     1      33.705 -13.246 -24.054  0.00  0.00    +0.310 C 
ATOM      9  H   UNL     1      32.735 -13.355 -25.846  0.00  0.00    +0.159 HD
ATOM     10  H   UNL     1      34.762 -13.660 -22.352  0.00  0.00    +0.156 HD
ENDROOT
BRANCH   5  11
ATOM     11  C   UNL     1      34.448 -17.405 -24.703  0.00  0.00    -0.045 C 
ATOM     12  C   UNL     1      34.663 -18.573 -24.872  0.00  0.00    -0.009 C 
ENDBRANCH   5  11
TORSDOF 1
ENDMDL
MODEL 7
REMARK VINA RESULT:      -5.7      4.757      6.282
REMARK  Name = 43157
REMARK  1 active torsions:
REMARK  status: ('A' for Active; 'I' for Inactive)
REMARK    1  A    between atoms: C_5  and  C_11
REMARK                            x       y       z     vdW  Elec       q    Type
REMARK                         _______ _______ _______ _____ _____    ______ ____
ROOT
ATOM      1  O   UNL     1      34.945 -19.746 -24.283  0.00  0.00    -0.269 OA
ATOM      2  O   UNL     1      33.720 -15.738 -26.216  0.00  0.00    -0.252 OA
ATOM      3  N   UNL     1      34.328 -17.750 -25.260  0.00  0.00    -0.235 N 
ATOM      4  N   UNL     1      34.623 -15.742 -24.099  0.00  0.00    -0.266 N 
ATOM      5  C   UNL     1      35.282 -17.757 -23.027  0.00  0.00    +0.111 C 
ATOM      6  C   UNL     1      34.846 -18.524 -24.229  0.00  0.00    +0.262 C 
ATOM      7  C   UNL     1      35.146 -16.426 -23.035  0.00  0.00    +0.078 C 
ATOM      8  C   UNL     1      34.189 -16.360 -25.261  0.00  0.00    +0.310 C 
ATOM      9  H   UNL     1      34.031 -18.227 -26.069  0.00  0.00    +0.159 HD
ATOM     10  H   UNL     1      34.552 -14.762 -24.037  0.00  0.00    +0.156 HD
ENDROOT
BRANCH   5  11
ATOM     11  C   UNL     1      35.830 -18.430 -21.902  0.00  0.00    -0.045 C 
ATOM     12  C   UNL     1      36.294 -18.999 -20.952  0.00  0.00    -0.009 C 
ENDBRANCH   5  11
TORSDOF 1
ENDMDL
MODEL 8
REMARK VINA RESULT:      -5.7      7.412      8.786
REMARK  Name = 43157
REMARK  1 active torsions:
REMARK  status: ('A' for Active; 'I' for Inactive)
REMARK    1  A    between atoms: C_5  and  C_11
REMARK                            x       y       z     vdW  Elec       q    Type
REMARK                         _______ _______ _______ _____ _____    ______ ____
ROOT
ATOM      1  O   UNL     1      37.039 -23.503 -15.494  0.00  0.00    -0.269 OA
ATOM      2  O   UNL     1      40.901 -26.023 -15.294  0.00  0.00    -0.252 OA
ATOM      3  N   UNL     1      38.973 -24.757 -15.407  0.00  0.00    -0.235 N 
ATOM      4  N   UNL     1      39.449 -26.038 -13.510  0.00  0.00    -0.266 N 
ATOM      5  C   UNL     1      37.438 -24.773 -13.525  0.00  0.00    +0.111 C 
ATOM      6  C   UNL     1      37.776 -24.277 -14.890  0.00  0.00    +0.262 C 
ATOM      7  C   UNL     1      38.286 -25.615 -12.923  0.00  0.00    +0.078 C 
ATOM      8  C   UNL     1      39.854 -25.637 -14.772  0.00  0.00    +0.310 C 
ATOM      9  H   UNL     1      39.225 -24.449 -16.307  0.00  0.00    +0.159 HD
ATOM     10  H   UNL     1      40.026 -26.659 -13.009  0.00  0.00    +0.156 HD
ENDROOT
BRANCH   5  11
ATOM     11  C   UNL     1      36.240 -24.357 -12.883  0.00  0.00    -0.045 C 
ATOM     12  C   UNL     1      35.229 -24.007 -12.341  0.00  0.00    -0.009 C 
ENDBRANCH   5  11
TORSDOF 1
ENDMDL
MODEL 9
REMARK VINA RESULT:      -5.7      7.104      8.435
REMARK  Name = 43157
REMARK  1 active torsions:
REMARK  status: ('A' for Active; 'I' for Inactive)
REMARK    1  A    between atoms: C_5  and  C_11
REMARK                            x       y       z     vdW  Elec       q    Type
REMARK                         _______ _______ _______ _____ _____    ______ ____
ROOT
ATOM      1  O   UNL     1      34.789 -24.675 -14.435  0.00  0.00    -0.269 OA
ATOM      2  O   UNL     1      35.367 -24.660  -9.856  0.00  0.00    -0.252 OA
ATOM      3  N   UNL     1      35.066 -24.676 -12.145  0.00  0.00    -0.235 N 
ATOM      4  N   UNL     1      36.867 -23.532 -11.188  0.00  0.00    -0.266 N 
ATOM      5  C   UNL     1      36.648 -23.486 -13.553  0.00  0.00    +0.111 C 
ATOM      6  C   UNL     1      35.422 -24.328 -13.442  0.00  0.00    +0.262 C 
ATOM      7  C   UNL     1      37.290 -23.142 -12.429  0.00  0.00    +0.078 C 
ATOM      8  C   UNL     1      35.742 -24.313 -10.977  0.00  0.00    +0.310 C 
ATOM      9  H   UNL     1      34.261 -25.232 -12.038  0.00  0.00    +0.159 HD
ATOM     10  H   UNL     1      37.388 -23.243 -10.403  0.00  0.00    +0.156 HD
ENDROOT
BRANCH   5  11
ATOM     11  C   UNL     1      37.119 -23.061 -14.824  0.00  0.00    -0.045 C 
ATOM     12  C   UNL     1      37.517 -22.703 -15.898  0.00  0.00    -0.009 C 
ENDBRANCH   5  11
TORSDOF 1
ENDMDL
