MODEL 1
REMARK VINA RESULT:      -9.3      0.000      0.000
REMARK  Name = 5755
REMARK  5 active torsions:
REMARK  status: ('A' for Active; 'I' for Inactive)
REMARK    1  A    between atoms: C_6  and  O_21
REMARK    2  A    between atoms: C_6  and  C_26
REMARK    3  A    between atoms: C_9  and  O_23
REMARK    4  A    between atoms: C_26  and  C_27
REMARK    5  A    between atoms: C_27  and  O_28
REMARK                            x       y       z     vdW  Elec       q    Type
REMARK                         _______ _______ _______ _____ _____    ______ ____
ROOT
ATOM      1  O   UNL     1      39.598 -26.588 -14.625  0.00  0.00    -0.287 OA
ATOM      2  C   UNL     1      31.894 -23.714 -14.855  0.00  0.00    +0.031 C 
ATOM      3  C   UNL     1      33.000 -23.587 -15.926  0.00  0.00    +0.003 C 
ATOM      4  C   UNL     1      34.381 -23.247 -15.348  0.00  0.00    +0.003 C 
ATOM      5  C   UNL     1      34.808 -24.388 -14.359  0.00  0.00    +0.034 C 
ATOM      6  C   UNL     1      30.675 -23.987 -15.778  0.00  0.00    +0.141 C 
ATOM      7  C   UNL     1      32.298 -24.862 -13.908  0.00  0.00    +0.032 C 
ATOM      8  C   UNL     1      32.382 -22.652 -16.963  0.00  0.00    +0.003 C 
ATOM      9  C   UNL     1      33.704 -24.680 -13.294  0.00  0.00    +0.111 C 
ATOM     10  C   UNL     1      36.271 -24.176 -13.801  0.00  0.00    +0.036 C 
ATOM     11  C   UNL     1      30.887 -23.037 -16.979  0.00  0.00    +0.034 C 
ATOM     12  C   UNL     1      35.410 -23.076 -16.479  0.00  0.00    +0.004 C 
ATOM     13  C   UNL     1      31.659 -22.401 -14.058  0.00  0.00    +0.003 C 
ATOM     14  C   UNL     1      36.823 -22.865 -15.950  0.00  0.00    +0.022 C 
ATOM     15  C   UNL     1      37.197 -23.979 -15.006  0.00  0.00    -0.038 C 
ATOM     16  C   UNL     1      36.420 -22.948 -12.874  0.00  0.00    +0.009 C 
ATOM     17  C   UNL     1      36.693 -25.383 -12.975  0.00  0.00    -0.020 C 
ATOM     18  C   UNL     1      38.259 -24.757 -15.266  0.00  0.00    +0.034 C 
ATOM     19  C   UNL     1      37.749 -26.163 -13.229  0.00  0.00    +0.038 C 
ATOM     20  C   UNL     1      38.616 -25.892 -14.390  0.00  0.00    +0.195 C 
ENDROOT
BRANCH   6  21
ATOM     21  O   UNL     1      30.667 -25.335 -16.238  0.00  0.00    -0.380 OA
ATOM     22  H   UNL     1      30.252 -25.376 -17.114  0.00  0.00    +0.211 HD
ENDBRANCH   6  21
BRANCH   9  23
ATOM     23  O   UNL     1      33.662 -23.664 -12.303  0.00  0.00    -0.384 OA
ATOM     24  H   UNL     1      33.146 -22.911 -12.633  0.00  0.00    +0.210 HD
ENDBRANCH   9  23
BRANCH   6  26
ATOM     25  O   UNL     1      28.894 -24.655 -14.343  0.00  0.00    -0.291 OA
ATOM     26  C   UNL     1      29.340 -23.811 -15.119  0.00  0.00    +0.204 C 
BRANCH  26  27
ATOM     27  C   UNL     1      28.585 -22.546 -15.464  0.00  0.00    +0.204 C 
BRANCH  27  28
ATOM     28  O   UNL     1      27.261 -22.845 -15.852  0.00  0.00    -0.375 OA
ATOM     29  H   UNL     1      26.642 -22.480 -15.202  0.00  0.00    +0.211 HD
ENDBRANCH  27  28
ENDBRANCH  26  27
ENDBRANCH   6  26
TORSDOF 5
ENDMDL
MODEL 2
REMARK VINA RESULT:      -8.4     10.754     13.269
REMARK  Name = 5755
REMARK  5 active torsions:
REMARK  status: ('A' for Active; 'I' for Inactive)
REMARK    1  A    between atoms: C_6  and  O_21
REMARK    2  A    between atoms: C_6  and  C_26
REMARK    3  A    between atoms: C_9  and  O_23
REMARK    4  A    between atoms: C_26  and  C_27
REMARK    5  A    between atoms: C_27  and  O_28
REMARK                            x       y       z     vdW  Elec       q    Type
REMARK                         _______ _______ _______ _____ _____    ______ ____
ROOT
ATOM      1  O   UNL     1      34.946 -10.099 -26.238  0.00  0.00    -0.287 OA
ATOM      2  C   UNL     1      34.659 -17.293 -22.260  0.00  0.00    +0.031 C 
ATOM      3  C   UNL     1      34.608 -17.033 -23.782  0.00  0.00    +0.003 C 
ATOM      4  C   UNL     1      33.708 -15.853 -24.175  0.00  0.00    +0.003 C 
ATOM      5  C   UNL     1      34.255 -14.551 -23.491  0.00  0.00    +0.034 C 
ATOM      6  C   UNL     1      35.575 -18.547 -22.246  0.00  0.00    +0.141 C 
ATOM      7  C   UNL     1      35.233 -16.026 -21.594  0.00  0.00    +0.032 C 
ATOM      8  C   UNL     1      34.316 -18.413 -24.366  0.00  0.00    +0.003 C 
ATOM      9  C   UNL     1      34.454 -14.741 -21.954  0.00  0.00    +0.111 C 
ATOM     10  C   UNL     1      33.452 -13.263 -23.933  0.00  0.00    +0.036 C 
ATOM     11  C   UNL     1      35.090 -19.385 -23.451  0.00  0.00    +0.034 C 
ATOM     12  C   UNL     1      33.661 -15.700 -25.706  0.00  0.00    +0.004 C 
ATOM     13  C   UNL     1      33.274 -17.652 -21.653  0.00  0.00    +0.003 C 
ATOM     14  C   UNL     1      32.883 -14.464 -26.141  0.00  0.00    +0.022 C 
ATOM     15  C   UNL     1      33.438 -13.236 -25.465  0.00  0.00    -0.038 C 
ATOM     16  C   UNL     1      31.989 -13.233 -23.437  0.00  0.00    +0.009 C 
ATOM     17  C   UNL     1      34.118 -12.017 -23.367  0.00  0.00    -0.020 C 
ATOM     18  C   UNL     1      33.921 -12.221 -26.198  0.00  0.00    +0.034 C 
ATOM     19  C   UNL     1      34.601 -11.003 -24.091  0.00  0.00    +0.038 C 
ATOM     20  C   UNL     1      34.522 -11.030 -25.563  0.00  0.00    +0.195 C 
ENDROOT
BRANCH   6  21
ATOM     21  O   UNL     1      36.941 -18.192 -22.436  0.00  0.00    -0.380 OA
ATOM     22  H   UNL     1      37.505 -18.788 -21.919  0.00  0.00    +0.211 HD
ENDBRANCH   6  21
BRANCH   9  23
ATOM     23  O   UNL     1      33.211 -14.731 -21.267  0.00  0.00    -0.384 OA
ATOM     24  H   UNL     1      32.561 -14.228 -21.782  0.00  0.00    +0.210 HD
ENDBRANCH   9  23
BRANCH   6  26
ATOM     25  O   UNL     1      36.464 -19.180 -20.128  0.00  0.00    -0.291 OA
ATOM     26  C   UNL     1      35.566 -19.313 -20.957  0.00  0.00    +0.204 C 
BRANCH  26  27
ATOM     27  C   UNL     1      34.396 -20.249 -20.742  0.00  0.00    +0.204 C 
BRANCH  27  28
ATOM     28  O   UNL     1      34.637 -21.105 -19.646  0.00  0.00    -0.375 OA
ATOM     29  H   UNL     1      34.004 -20.911 -18.938  0.00  0.00    +0.211 HD
ENDBRANCH  27  28
ENDBRANCH  26  27
ENDBRANCH   6  26
TORSDOF 5
ENDMDL
MODEL 3
REMARK VINA RESULT:      -8.0      3.166      6.817
REMARK  Name = 5755
REMARK  5 active torsions:
REMARK  status: ('A' for Active; 'I' for Inactive)
REMARK    1  A    between atoms: C_6  and  O_21
REMARK    2  A    between atoms: C_6  and  C_26
REMARK    3  A    between atoms: C_9  and  O_23
REMARK    4  A    between atoms: C_26  and  C_27
REMARK    5  A    between atoms: C_27  and  O_28
REMARK                            x       y       z     vdW  Elec       q    Type
REMARK                         _______ _______ _______ _____ _____    ______ ____
ROOT
ATOM      1  O   UNL     1      33.528 -18.408 -21.189  0.00  0.00    -0.287 OA
ATOM      2  C   UNL     1      35.484 -23.725 -15.224  0.00  0.00    +0.031 C 
ATOM      3  C   UNL     1      36.407 -22.736 -15.972  0.00  0.00    +0.003 C 
ATOM      4  C   UNL     1      36.155 -22.685 -17.486  0.00  0.00    +0.003 C 
ATOM      5  C   UNL     1      34.674 -22.231 -17.736  0.00  0.00    +0.034 C 
ATOM      6  C   UNL     1      36.049 -23.562 -13.787  0.00  0.00    +0.141 C 
ATOM      7  C   UNL     1      34.032 -23.253 -15.440  0.00  0.00    +0.032 C 
ATOM      8  C   UNL     1      37.800 -23.102 -15.467  0.00  0.00    +0.003 C 
ATOM      9  C   UNL     1      33.656 -23.098 -16.930  0.00  0.00    +0.111 C 
ATOM     10  C   UNL     1      34.360 -22.042 -19.273  0.00  0.00    +0.036 C 
ATOM     11  C   UNL     1      37.580 -23.481 -13.987  0.00  0.00    +0.034 C 
ATOM     12  C   UNL     1      37.153 -21.729 -18.165  0.00  0.00    +0.004 C 
ATOM     13  C   UNL     1      35.659 -25.197 -15.689  0.00  0.00    +0.003 C 
ATOM     14  C   UNL     1      36.861 -21.545 -19.649  0.00  0.00    +0.022 C 
ATOM     15  C   UNL     1      35.432 -21.109 -19.848  0.00  0.00    -0.038 C 
ATOM     16  C   UNL     1      34.380 -23.356 -20.086  0.00  0.00    +0.009 C 
ATOM     17  C   UNL     1      32.968 -21.454 -19.451  0.00  0.00    -0.020 C 
ATOM     18  C   UNL     1      35.159 -19.945 -20.457  0.00  0.00    +0.034 C 
ATOM     19  C   UNL     1      32.689 -20.295 -20.056  0.00  0.00    +0.038 C 
ATOM     20  C   UNL     1      33.771 -19.465 -20.616  0.00  0.00    +0.195 C 
ENDROOT
BRANCH   6  21
ATOM     21  O   UNL     1      35.587 -22.357 -13.183  0.00  0.00    -0.380 OA
ATOM     22  H   UNL     1      36.221 -21.644 -13.358  0.00  0.00    +0.211 HD
ENDBRANCH   6  21
BRANCH   9  23
ATOM     23  O   UNL     1      33.495 -24.382 -17.516  0.00  0.00    -0.384 OA
ATOM     24  H   UNL     1      32.561 -24.520 -17.741  0.00  0.00    +0.210 HD
ENDBRANCH   9  23
BRANCH   6  26
ATOM     25  O   UNL     1      34.463 -24.789 -12.500  0.00  0.00    -0.291 OA
ATOM     26  C   UNL     1      35.639 -24.639 -12.829  0.00  0.00    +0.204 C 
BRANCH  26  27
ATOM     27  C   UNL     1      36.748 -25.522 -12.297  0.00  0.00    +0.204 C 
BRANCH  27  28
ATOM     28  O   UNL     1      36.758 -26.766 -12.963  0.00  0.00    -0.375 OA
ATOM     29  H   UNL     1      35.891 -26.925 -13.368  0.00  0.00    +0.211 HD
ENDBRANCH  27  28
ENDBRANCH  26  27
ENDBRANCH   6  26
TORSDOF 5
ENDMDL
MODEL 4
REMARK VINA RESULT:      -7.4     14.489     17.069
REMARK  Name = 5755
REMARK  5 active torsions:
REMARK  status: ('A' for Active; 'I' for Inactive)
REMARK    1  A    between atoms: C_6  and  O_21
REMARK    2  A    between atoms: C_6  and  C_26
REMARK    3  A    between atoms: C_9  and  O_23
REMARK    4  A    between atoms: C_26  and  C_27
REMARK    5  A    between atoms: C_27  and  O_28
REMARK                            x       y       z     vdW  Elec       q    Type
REMARK                         _______ _______ _______ _____ _____    ______ ____
ROOT
ATOM      1  O   UNL     1      30.623  -4.715 -23.926  0.00  0.00    -0.287 OA
ATOM      2  C   UNL     1      33.389 -12.451 -23.501  0.00  0.00    +0.031 C 
ATOM      3  C   UNL     1      32.344 -11.753 -22.602  0.00  0.00    +0.003 C 
ATOM      4  C   UNL     1      32.736 -10.324 -22.198  0.00  0.00    +0.003 C 
ATOM      5  C   UNL     1      32.897  -9.459 -23.498  0.00  0.00    +0.034 C 
ATOM      6  C   UNL     1      32.711 -13.841 -23.646  0.00  0.00    +0.141 C 
ATOM      7  C   UNL     1      33.515 -11.619 -24.793  0.00  0.00    +0.032 C 
ATOM      8  C   UNL     1      32.075 -12.782 -21.507  0.00  0.00    +0.003 C 
ATOM      9  C   UNL     1      33.851 -10.134 -24.533  0.00  0.00    +0.111 C 
ATOM     10  C   UNL     1      33.190  -7.941 -23.171  0.00  0.00    +0.036 C 
ATOM     11  C   UNL     1      32.153 -14.140 -22.235  0.00  0.00    +0.034 C 
ATOM     12  C   UNL     1      31.679  -9.722 -21.255  0.00  0.00    +0.004 C 
ATOM     13  C   UNL     1      34.774 -12.616 -22.816  0.00  0.00    +0.003 C 
ATOM     14  C   UNL     1      31.958  -8.260 -20.930  0.00  0.00    +0.022 C 
ATOM     15  C   UNL     1      32.104  -7.463 -22.201  0.00  0.00    -0.038 C 
ATOM     16  C   UNL     1      34.566  -7.694 -22.512  0.00  0.00    +0.009 C 
ATOM     17  C   UNL     1      33.181  -7.121 -24.453  0.00  0.00    -0.020 C 
ATOM     18  C   UNL     1      31.283  -6.431 -22.450  0.00  0.00    +0.034 C 
ATOM     19  C   UNL     1      32.365  -6.093 -24.708  0.00  0.00    +0.038 C 
ATOM     20  C   UNL     1      31.365  -5.668 -23.712  0.00  0.00    +0.195 C 
ENDROOT
BRANCH   6  21
ATOM     21  O   UNL     1      31.637 -13.797 -24.580  0.00  0.00    -0.380 OA
ATOM     22  H   UNL     1      31.351 -14.701 -24.787  0.00  0.00    +0.211 HD
ENDBRANCH   6  21
BRANCH   9  23
ATOM     23  O   UNL     1      35.209 -10.017 -24.136  0.00  0.00    -0.384 OA
ATOM     24  H   UNL     1      35.462 -10.794 -23.613  0.00  0.00    +0.210 HD
ENDBRANCH   9  23
BRANCH   6  26
ATOM     25  O   UNL     1      33.760 -15.108 -25.370  0.00  0.00    -0.291 OA
ATOM     26  C   UNL     1      33.610 -14.923 -24.163  0.00  0.00    +0.204 C 
BRANCH  26  27
ATOM     27  C   UNL     1      34.314 -15.765 -23.120  0.00  0.00    +0.204 C 
BRANCH  27  28
ATOM     28  O   UNL     1      35.636 -16.055 -23.522  0.00  0.00    -0.375 OA
ATOM     29  H   UNL     1      35.664 -16.165 -24.485  0.00  0.00    +0.211 HD
ENDBRANCH  27  28
ENDBRANCH  26  27
ENDBRANCH   6  26
TORSDOF 5
ENDMDL
MODEL 5
REMARK VINA RESULT:      -7.3     14.371     16.431
REMARK  Name = 5755
REMARK  5 active torsions:
REMARK  status: ('A' for Active; 'I' for Inactive)
REMARK    1  A    between atoms: C_6  and  O_21
REMARK    2  A    between atoms: C_6  and  C_26
REMARK    3  A    between atoms: C_9  and  O_23
REMARK    4  A    between atoms: C_26  and  C_27
REMARK    5  A    between atoms: C_27  and  O_28
REMARK                            x       y       z     vdW  Elec       q    Type
REMARK                         _______ _______ _______ _____ _____    ______ ____
ROOT
ATOM      1  O   UNL     1      34.958 -16.327 -20.453  0.00  0.00    -0.287 OA
ATOM      2  C   UNL     1      33.260  -8.953 -23.681  0.00  0.00    +0.031 C 
ATOM      3  C   UNL     1      32.878  -9.505 -22.288  0.00  0.00    +0.003 C 
ATOM      4  C   UNL     1      32.386 -10.959 -22.316  0.00  0.00    +0.003 C 
ATOM      5  C   UNL     1      33.529 -11.868 -22.888  0.00  0.00    +0.034 C 
ATOM      6  C   UNL     1      33.633  -7.498 -23.285  0.00  0.00    +0.141 C 
ATOM      7  C   UNL     1      34.410  -9.825 -24.223  0.00  0.00    +0.032 C 
ATOM      8  C   UNL     1      31.962  -8.425 -21.720  0.00  0.00    +0.003 C 
ATOM      9  C   UNL     1      34.073 -11.333 -24.251  0.00  0.00    +0.111 C 
ATOM     10  C   UNL     1      33.149 -13.401 -22.847  0.00  0.00    +0.036 C 
ATOM     11  C   UNL     1      32.562  -7.102 -22.242  0.00  0.00    +0.034 C 
ATOM     12  C   UNL     1      31.967 -11.411 -20.906  0.00  0.00    +0.004 C 
ATOM     13  C   UNL     1      32.069  -8.933 -24.678  0.00  0.00    +0.003 C 
ATOM     14  C   UNL     1      31.593 -12.888 -20.858  0.00  0.00    +0.022 C 
ATOM     15  C   UNL     1      32.714 -13.727 -21.414  0.00  0.00    -0.038 C 
ATOM     16  C   UNL     1      31.996 -13.789 -23.800  0.00  0.00    +0.009 C 
ATOM     17  C   UNL     1      34.345 -14.245 -23.264  0.00  0.00    -0.020 C 
ATOM     18  C   UNL     1      33.300 -14.663 -20.651  0.00  0.00    +0.034 C 
ATOM     19  C   UNL     1      34.934 -15.178 -22.509  0.00  0.00    +0.038 C 
ATOM     20  C   UNL     1      34.439 -15.461 -21.149  0.00  0.00    +0.195 C 
ENDROOT
BRANCH   6  21
ATOM     21  O   UNL     1      34.923  -7.441 -22.684  0.00  0.00    -0.380 OA
ATOM     22  H   UNL     1      35.522  -8.049 -23.145  0.00  0.00    +0.211 HD
ENDBRANCH   6  21
BRANCH   9  23
ATOM     23  O   UNL     1      33.162 -11.596 -25.309  0.00  0.00    -0.384 OA
ATOM     24  H   UNL     1      32.590 -12.340 -25.065  0.00  0.00    +0.210 HD
ENDBRANCH   9  23
BRANCH   6  26
ATOM     25  O   UNL     1      34.676  -6.543 -25.202  0.00  0.00    -0.291 OA
ATOM     26  C   UNL     1      33.714  -6.540 -24.434  0.00  0.00    +0.204 C 
BRANCH  26  27
ATOM     27  C   UNL     1      32.555  -5.580 -24.591  0.00  0.00    +0.204 C 
BRANCH  27  28
ATOM     28  O   UNL     1      32.695  -4.815 -25.769  0.00  0.00    -0.375 OA
ATOM     29  H   UNL     1      32.372  -5.326 -26.527  0.00  0.00    +0.211 HD
ENDBRANCH  27  28
ENDBRANCH  26  27
ENDBRANCH   6  26
TORSDOF 5
ENDMDL
MODEL 6
REMARK VINA RESULT:      -6.6      1.687      7.047
REMARK  Name = 5755
REMARK  5 active torsions:
REMARK  status: ('A' for Active; 'I' for Inactive)
REMARK    1  A    between atoms: C_6  and  O_21
REMARK    2  A    between atoms: C_6  and  C_26
REMARK    3  A    between atoms: C_9  and  O_23
REMARK    4  A    between atoms: C_26  and  C_27
REMARK    5  A    between atoms: C_27  and  O_28
REMARK                            x       y       z     vdW  Elec       q    Type
REMARK                         _______ _______ _______ _____ _____    ______ ____
ROOT
ATOM      1  O   UNL     1      27.643 -21.635 -15.297  0.00  0.00    -0.287 OA
ATOM      2  C   UNL     1      35.473 -24.022 -14.489  0.00  0.00    +0.031 C 
ATOM      3  C   UNL     1      34.862 -23.071 -15.542  0.00  0.00    +0.003 C 
ATOM      4  C   UNL     1      33.520 -23.560 -16.107  0.00  0.00    +0.003 C 
ATOM      5  C   UNL     1      32.492 -23.685 -14.929  0.00  0.00    +0.034 C 
ATOM      6  C   UNL     1      36.800 -23.267 -14.204  0.00  0.00    +0.141 C 
ATOM      7  C   UNL     1      34.478 -24.112 -13.315  0.00  0.00    +0.032 C 
ATOM      8  C   UNL     1      36.020 -22.817 -16.504  0.00  0.00    +0.003 C 
ATOM      9  C   UNL     1      33.058 -24.539 -13.750  0.00  0.00    +0.111 C 
ATOM     10  C   UNL     1      31.047 -24.075 -15.437  0.00  0.00    +0.036 C 
ATOM     11  C   UNL     1      37.267 -22.780 -15.595  0.00  0.00    +0.034 C 
ATOM     12  C   UNL     1      33.010 -22.593 -17.192  0.00  0.00    +0.004 C 
ATOM     13  C   UNL     1      35.789 -25.436 -15.051  0.00  0.00    +0.003 C 
ATOM     14  C   UNL     1      31.619 -22.966 -17.692  0.00  0.00    +0.022 C 
ATOM     15  C   UNL     1      30.662 -23.076 -16.533  0.00  0.00    -0.038 C 
ATOM     16  C   UNL     1      30.952 -25.499 -16.029  0.00  0.00    +0.009 C 
ATOM     17  C   UNL     1      30.059 -24.030 -14.280  0.00  0.00    -0.020 C 
ATOM     18  C   UNL     1      29.572 -22.295 -16.481  0.00  0.00    +0.034 C 
ATOM     19  C   UNL     1      28.972 -23.254 -14.221  0.00  0.00    +0.038 C 
ATOM     20  C   UNL     1      28.646 -22.339 -15.330  0.00  0.00    +0.195 C 
ENDROOT
BRANCH   6  21
ATOM     21  O   UNL     1      36.582 -22.141 -13.358  0.00  0.00    -0.380 OA
ATOM     22  H   UNL     1      37.251 -21.463 -13.543  0.00  0.00    +0.211 HD
ENDBRANCH   6  21
BRANCH   9  23
ATOM     23  O   UNL     1      33.054 -25.923 -14.068  0.00  0.00    -0.384 OA
ATOM     24  H   UNL     1      32.195 -26.307 -13.831  0.00  0.00    +0.210 HD
ENDBRANCH   9  23
BRANCH   6  26
ATOM     25  O   UNL     1      38.680 -24.727 -14.103  0.00  0.00    -0.291 OA
ATOM     26  C   UNL     1      37.838 -24.076 -13.487  0.00  0.00    +0.204 C 
BRANCH  26  27
ATOM     27  C   UNL     1      37.785 -24.045 -11.974  0.00  0.00    +0.204 C 
BRANCH  27  28
ATOM     28  O   UNL     1      38.605 -23.013 -11.468  0.00  0.00    -0.375 OA
ATOM     29  H   UNL     1      38.426 -22.892 -10.522  0.00  0.00    +0.211 HD
ENDBRANCH  27  28
ENDBRANCH  26  27
ENDBRANCH   6  26
TORSDOF 5
ENDMDL
MODEL 7
REMARK VINA RESULT:      -6.5      1.719      7.346
REMARK  Name = 5755
REMARK  5 active torsions:
REMARK  status: ('A' for Active; 'I' for Inactive)
REMARK    1  A    between atoms: C_6  and  O_21
REMARK    2  A    between atoms: C_6  and  C_26
REMARK    3  A    between atoms: C_9  and  O_23
REMARK    4  A    between atoms: C_26  and  C_27
REMARK    5  A    between atoms: C_27  and  O_28
REMARK                            x       y       z     vdW  Elec       q    Type
REMARK                         _______ _______ _______ _____ _____    ______ ____
ROOT
ATOM      1  O   UNL     1      28.238 -25.178 -14.583  0.00  0.00    -0.287 OA
ATOM      2  C   UNL     1      36.451 -24.936 -14.204  0.00  0.00    +0.031 C 
ATOM      3  C   UNL     1      35.428 -24.630 -13.087  0.00  0.00    +0.003 C 
ATOM      4  C   UNL     1      34.232 -23.791 -13.561  0.00  0.00    +0.003 C 
ATOM      5  C   UNL     1      33.480 -24.578 -14.691  0.00  0.00    +0.034 C 
ATOM      6  C   UNL     1      37.509 -25.713 -13.373  0.00  0.00    +0.141 C 
ATOM      7  C   UNL     1      35.718 -25.743 -15.294  0.00  0.00    +0.032 C 
ATOM      8  C   UNL     1      36.295 -24.103 -11.947  0.00  0.00    +0.003 C 
ATOM      9  C   UNL     1      34.449 -25.039 -15.825  0.00  0.00    +0.111 C 
ATOM     10  C   UNL     1      32.166 -23.836 -15.161  0.00  0.00    +0.036 C 
ATOM     11  C   UNL     1      37.592 -24.935 -12.040  0.00  0.00    +0.034 C 
ATOM     12  C   UNL     1      33.295 -23.477 -12.381  0.00  0.00    +0.004 C 
ATOM     13  C   UNL     1      37.099 -23.658 -14.807  0.00  0.00    +0.003 C 
ATOM     14  C   UNL     1      32.027 -22.756 -12.825  0.00  0.00    +0.022 C 
ATOM     15  C   UNL     1      31.334 -23.542 -13.907  0.00  0.00    -0.038 C 
ATOM     16  C   UNL     1      32.425 -22.500 -15.891  0.00  0.00    +0.009 C 
ATOM     17  C   UNL     1      31.396 -24.712 -16.138  0.00  0.00    -0.020 C 
ATOM     18  C   UNL     1      30.077 -23.977 -13.727  0.00  0.00    +0.034 C 
ATOM     19  C   UNL     1      30.145 -25.150 -15.965  0.00  0.00    +0.038 C 
ATOM     20  C   UNL     1      29.392 -24.798 -14.747  0.00  0.00    +0.195 C 
ENDROOT
BRANCH   6  21
ATOM     21  O   UNL     1      37.086 -27.048 -13.116  0.00  0.00    -0.380 OA
ATOM     22  H   UNL     1      36.124 -27.063 -12.986  0.00  0.00    +0.211 HD
ENDBRANCH   6  21
BRANCH   9  23
ATOM     23  O   UNL     1      34.823 -23.950 -16.658  0.00  0.00    -0.384 OA
ATOM     24  H   UNL     1      34.818 -24.236 -17.585  0.00  0.00    +0.210 HD
ENDBRANCH   9  23
BRANCH   6  26
ATOM     25  O   UNL     1      39.005 -26.676 -14.958  0.00  0.00    -0.291 OA
ATOM     26  C   UNL     1      38.840 -25.867 -14.046  0.00  0.00    +0.204 C 
BRANCH  26  27
ATOM     27  C   UNL     1      39.955 -24.978 -13.538  0.00  0.00    +0.204 C 
BRANCH  27  28
ATOM     28  O   UNL     1      40.978 -24.860 -14.504  0.00  0.00    -0.375 OA
ATOM     29  H   UNL     1      40.603 -24.524 -15.333  0.00  0.00    +0.211 HD
ENDBRANCH  27  28
ENDBRANCH  26  27
ENDBRANCH   6  26
TORSDOF 5
ENDMDL
