MODEL 1
REMARK VINA RESULT:     -10.2      0.000      0.000
REMARK  Name = 9907331
REMARK  3 active torsions:
REMARK  status: ('A' for Active; 'I' for Inactive)
REMARK    1  A    between atoms: N_3  and  C_19
REMARK    2  A    between atoms: CA_9  and  C_26
REMARK    3  A    between atoms: C_26  and  O_27
REMARK                            x       y       z     vdW  Elec       q    Type
REMARK                         _______ _______ _______ _____ _____    ______ ____
ROOT
ATOM      1 CL   UNL     1      32.552 -13.215 -27.695  0.00  0.00    -0.082 Cl
ATOM      2  O   UNL     1      35.606 -17.245 -20.360  0.00  0.00    -0.270 OA
ATOM      3  N   UNL     1      34.767 -19.245 -21.355  0.00  0.00    -0.255 N 
ATOM      4  N   UNL     1      33.569 -13.223 -22.690  0.00  0.00    -0.325 N 
ATOM      5  C   UNL     1      34.513 -15.930 -22.695  0.00  0.00    -0.018 C 
ATOM      6  C   UNL     1      34.561 -17.258 -22.507  0.00  0.00    +0.030 C 
ATOM      7  C   UNL     1      34.914 -14.972 -21.597  0.00  0.00    +0.057 C 
ATOM      8  C   UNL     1      34.115 -18.319 -23.451  0.00  0.00    +0.053 C 
ATOM      9  CA  UNL     1      33.901 -13.843 -21.424  0.00  0.00    +0.174 C 
ATOM     10  C   UNL     1      33.999 -19.541 -22.554  0.00  0.00    +0.103 C 
ATOM     11  C   UNL     1      34.016 -15.287 -23.937  0.00  0.00    +0.009 C 
ATOM     12  C   UNL     1      35.064 -17.879 -21.251  0.00  0.00    +0.248 C 
ATOM     13  C   UNL     1      33.565 -13.949 -23.876  0.00  0.00    +0.045 C 
ATOM     14  C   UNL     1      34.010 -15.955 -25.175  0.00  0.00    +0.002 C 
ATOM     15  C   UNL     1      33.125 -13.322 -25.055  0.00  0.00    +0.026 C 
ATOM     16  C   UNL     1      33.559 -15.317 -26.331  0.00  0.00    +0.011 C 
ATOM     17  C   UNL     1      33.117 -14.001 -26.272  0.00  0.00    +0.059 C 
ATOM     18  H   UNL     1      33.340 -12.265 -22.712  0.00  0.00    +0.147 HD
ENDROOT
BRANCH   3  19
ATOM     19  C   UNL     1      35.066 -20.251 -20.386  0.00  0.00    +0.054 C 
ATOM     20  C   UNL     1      36.388 -20.480 -19.996  0.00  0.00    +0.015 C 
ATOM     21  C   UNL     1      34.037 -21.010 -19.822  0.00  0.00    +0.015 C 
ATOM     22  C   UNL     1      36.680 -21.462 -19.050  0.00  0.00    +0.001 C 
ATOM     23  C   UNL     1      34.329 -21.993 -18.875  0.00  0.00    +0.001 C 
ATOM     24  C   UNL     1      35.650 -22.218 -18.490  0.00  0.00    +0.000 C 
ENDBRANCH   3  19
BRANCH   9  26
ATOM     25  OXT UNL     1      32.517 -15.320 -20.103  0.00  0.00    -0.248 OA
ATOM     26  C   UNL     1      32.629 -14.311 -20.782  0.00  0.00    +0.332 C 
BRANCH  26  27
ATOM     27  O   UNL     1      31.611 -13.461 -21.060  0.00  0.00    -0.479 OA
ATOM     28  H   UNL     1      30.769 -13.598 -20.673  0.00  0.00    +0.295 HD
ENDBRANCH  26  27
ENDBRANCH   9  26
TORSDOF 3
ENDMDL
MODEL 2
REMARK VINA RESULT:      -9.4      5.474     10.402
REMARK  Name = 9907331
REMARK  3 active torsions:
REMARK  status: ('A' for Active; 'I' for Inactive)
REMARK    1  A    between atoms: N_3  and  C_19
REMARK    2  A    between atoms: CA_9  and  C_26
REMARK    3  A    between atoms: C_26  and  O_27
REMARK                            x       y       z     vdW  Elec       q    Type
REMARK                         _______ _______ _______ _____ _____    ______ ____
ROOT
ATOM      1 CL   UNL     1      34.625 -16.093 -22.246  0.00  0.00    -0.082 Cl
ATOM      2  O   UNL     1      30.617  -8.187 -23.142  0.00  0.00    -0.270 OA
ATOM      3  N   UNL     1      32.691  -7.470 -24.077  0.00  0.00    -0.255 N 
ATOM      4  N   UNL     1      31.317 -12.548 -20.642  0.00  0.00    -0.325 N 
ATOM      5  C   UNL     1      31.962 -10.720 -22.754  0.00  0.00    -0.018 C 
ATOM      6  C   UNL     1      32.473  -9.665 -23.408  0.00  0.00    +0.030 C 
ATOM      7  C   UNL     1      30.648 -10.618 -22.017  0.00  0.00    +0.057 C 
ATOM      8  C   UNL     1      33.790  -9.583 -24.098  0.00  0.00    +0.053 C 
ATOM      9  CA  UNL     1      30.726 -11.226 -20.618  0.00  0.00    +0.174 C 
ATOM     10  C   UNL     1      33.997  -8.085 -24.250  0.00  0.00    +0.103 C 
ATOM     11  C   UNL     1      32.646 -12.032 -22.638  0.00  0.00    +0.009 C 
ATOM     12  C   UNL     1      31.767  -8.359 -23.511  0.00  0.00    +0.248 C 
ATOM     13  C   UNL     1      32.285 -12.895 -21.578  0.00  0.00    +0.045 C 
ATOM     14  C   UNL     1      33.615 -12.457 -23.565  0.00  0.00    +0.002 C 
ATOM     15  C   UNL     1      32.904 -14.153 -21.481  0.00  0.00    +0.026 C 
ATOM     16  C   UNL     1      34.224 -13.706 -23.443  0.00  0.00    +0.011 C 
ATOM     17  C   UNL     1      33.869 -14.555 -22.403  0.00  0.00    +0.059 C 
ATOM     18  H   UNL     1      31.027 -13.217 -19.980  0.00  0.00    +0.147 HD
ENDROOT
BRANCH   3  19
ATOM     19  C   UNL     1      32.464  -6.091 -24.374  0.00  0.00    +0.054 C 
ATOM     20  C   UNL     1      32.932  -5.544 -25.571  0.00  0.00    +0.015 C 
ATOM     21  C   UNL     1      31.772  -5.282 -23.469  0.00  0.00    +0.015 C 
ATOM     22  C   UNL     1      32.710  -4.197 -25.861  0.00  0.00    +0.001 C 
ATOM     23  C   UNL     1      31.550  -3.936 -23.758  0.00  0.00    +0.001 C 
ATOM     24  C   UNL     1      32.019  -3.394 -24.955  0.00  0.00    +0.000 C 
ENDBRANCH   3  19
BRANCH   9  26
ATOM     25  OXT UNL     1      32.119  -9.357 -19.977  0.00  0.00    -0.248 OA
ATOM     26  C   UNL     1      31.517 -10.375 -19.670  0.00  0.00    +0.332 C 
BRANCH  26  27
ATOM     27  O   UNL     1      31.478 -10.890 -18.417  0.00  0.00    -0.479 OA
ATOM     28  H   UNL     1      31.798 -10.386 -17.695  0.00  0.00    +0.295 HD
ENDBRANCH  26  27
ENDBRANCH   9  26
TORSDOF 3
ENDMDL
MODEL 3
REMARK VINA RESULT:      -8.8      3.282      7.870
REMARK  Name = 9907331
REMARK  3 active torsions:
REMARK  status: ('A' for Active; 'I' for Inactive)
REMARK    1  A    between atoms: N_3  and  C_19
REMARK    2  A    between atoms: CA_9  and  C_26
REMARK    3  A    between atoms: C_26  and  O_27
REMARK                            x       y       z     vdW  Elec       q    Type
REMARK                         _______ _______ _______ _____ _____    ______ ____
ROOT
ATOM      1 CL   UNL     1      35.041 -19.845 -25.375  0.00  0.00    -0.082 Cl
ATOM      2  O   UNL     1      32.142 -12.070 -22.133  0.00  0.00    -0.270 OA
ATOM      3  N   UNL     1      33.435 -11.090 -23.883  0.00  0.00    -0.255 N 
ATOM      4  N   UNL     1      33.584 -16.892 -21.473  0.00  0.00    -0.325 N 
ATOM      5  C   UNL     1      33.177 -14.584 -23.125  0.00  0.00    -0.018 C 
ATOM      6  C   UNL     1      33.365 -13.388 -23.704  0.00  0.00    +0.030 C 
ATOM      7  C   UNL     1      32.501 -14.702 -21.780  0.00  0.00    +0.057 C 
ATOM      8  C   UNL     1      34.090 -13.104 -24.973  0.00  0.00    +0.053 C 
ATOM      9  CA  UNL     1      33.260 -15.631 -20.835  0.00  0.00    +0.174 C 
ATOM     10  C   UNL     1      34.352 -11.610 -24.884  0.00  0.00    +0.103 C 
ATOM     11  C   UNL     1      33.656 -15.867 -23.700  0.00  0.00    +0.009 C 
ATOM     12  C   UNL     1      32.875 -12.115 -23.108  0.00  0.00    +0.248 C 
ATOM     13  C   UNL     1      33.836 -16.972 -22.838  0.00  0.00    +0.045 C 
ATOM     14  C   UNL     1      33.904 -16.024 -25.075  0.00  0.00    +0.002 C 
ATOM     15  C   UNL     1      34.256 -18.199 -23.380  0.00  0.00    +0.026 C 
ATOM     16  C   UNL     1      34.331 -17.249 -25.590  0.00  0.00    +0.011 C 
ATOM     17  C   UNL     1      34.506 -18.336 -24.743  0.00  0.00    +0.059 C 
ATOM     18  H   UNL     1      33.627 -17.709 -20.927  0.00  0.00    +0.147 HD
ENDROOT
BRANCH   3  19
ATOM     19  C   UNL     1      33.244  -9.688 -23.693  0.00  0.00    +0.054 C 
ATOM     20  C   UNL     1      34.339  -8.820 -23.716  0.00  0.00    +0.015 C 
ATOM     21  C   UNL     1      31.961  -9.175 -23.484  0.00  0.00    +0.015 C 
ATOM     22  C   UNL     1      34.153  -7.450 -23.531  0.00  0.00    +0.001 C 
ATOM     23  C   UNL     1      31.774  -7.805 -23.299  0.00  0.00    +0.001 C 
ATOM     24  C   UNL     1      32.871  -6.943 -23.323  0.00  0.00    +0.000 C 
ENDBRANCH   3  19
BRANCH   9  26
ATOM     25  OXT UNL     1      34.859 -13.852 -20.491  0.00  0.00    -0.248 OA
ATOM     26  C   UNL     1      34.532 -15.019 -20.332  0.00  0.00    +0.332 C 
BRANCH  26  27
ATOM     27  O   UNL     1      35.280 -15.938 -19.674  0.00  0.00    -0.479 OA
ATOM     28  H   UNL     1      35.643 -15.732 -18.835  0.00  0.00    +0.295 HD
ENDBRANCH  26  27
ENDBRANCH   9  26
TORSDOF 3
ENDMDL
MODEL 4
REMARK VINA RESULT:      -8.6      4.036      8.367
REMARK  Name = 9907331
REMARK  3 active torsions:
REMARK  status: ('A' for Active; 'I' for Inactive)
REMARK    1  A    between atoms: N_3  and  C_19
REMARK    2  A    between atoms: CA_9  and  C_26
REMARK    3  A    between atoms: C_26  and  O_27
REMARK                            x       y       z     vdW  Elec       q    Type
REMARK                         _______ _______ _______ _____ _____    ______ ____
ROOT
ATOM      1 CL   UNL     1      34.312 -19.794 -21.454  0.00  0.00    -0.082 Cl
ATOM      2  O   UNL     1      33.826 -11.323 -24.171  0.00  0.00    -0.270 OA
ATOM      3  N   UNL     1      32.284 -11.047 -22.372  0.00  0.00    -0.255 N 
ATOM      4  N   UNL     1      34.403 -16.270 -25.149  0.00  0.00    -0.325 N 
ATOM      5  C   UNL     1      33.892 -14.097 -23.349  0.00  0.00    -0.018 C 
ATOM      6  C   UNL     1      33.256 -13.113 -22.696  0.00  0.00    +0.030 C 
ATOM      7  C   UNL     1      34.534 -13.854 -24.695  0.00  0.00    +0.057 C 
ATOM      8  C   UNL     1      32.502 -13.219 -21.417  0.00  0.00    +0.053 C 
ATOM      9  CA  UNL     1      34.188 -14.948 -25.702  0.00  0.00    +0.174 C 
ATOM     10  C   UNL     1      31.667 -11.949 -21.412  0.00  0.00    +0.103 C 
ATOM     11  C   UNL     1      33.973 -15.497 -22.861  0.00  0.00    +0.009 C 
ATOM     12  C   UNL     1      33.190 -11.716 -23.206  0.00  0.00    +0.248 C 
ATOM     13  C   UNL     1      34.230 -16.528 -23.793  0.00  0.00    +0.045 C 
ATOM     14  C   UNL     1      33.834 -15.825 -21.501  0.00  0.00    +0.002 C 
ATOM     15  C   UNL     1      34.341 -17.851 -23.334  0.00  0.00    +0.026 C 
ATOM     16  C   UNL     1      33.937 -17.147 -21.068  0.00  0.00    +0.011 C 
ATOM     17  C   UNL     1      34.192 -18.161 -21.984  0.00  0.00    +0.059 C 
ATOM     18  H   UNL     1      34.678 -17.002 -25.746  0.00  0.00    +0.147 HD
ENDROOT
BRANCH   3  19
ATOM     19  C   UNL     1      31.899  -9.675 -22.470  0.00  0.00    +0.054 C 
ATOM     20  C   UNL     1      32.248  -8.774 -21.461  0.00  0.00    +0.015 C 
ATOM     21  C   UNL     1      31.171  -9.227 -23.575  0.00  0.00    +0.015 C 
ATOM     22  C   UNL     1      31.873  -7.434 -21.557  0.00  0.00    +0.001 C 
ATOM     23  C   UNL     1      30.795  -7.887 -23.671  0.00  0.00    +0.001 C 
ATOM     24  C   UNL     1      31.146  -6.991 -22.662  0.00  0.00    +0.000 C 
ENDBRANCH   3  19
BRANCH   9  26
ATOM     25  OXT UNL     1      32.077 -13.854 -26.136  0.00  0.00    -0.248 OA
ATOM     26  C   UNL     1      32.768 -14.861 -26.174  0.00  0.00    +0.332 C 
BRANCH  26  27
ATOM     27  O   UNL     1      32.347 -16.058 -26.650  0.00  0.00    -0.479 OA
ATOM     28  H   UNL     1      32.507 -16.840 -26.158  0.00  0.00    +0.295 HD
ENDBRANCH  26  27
ENDBRANCH   9  26
TORSDOF 3
ENDMDL
MODEL 5
REMARK VINA RESULT:      -8.4      3.662      7.806
REMARK  Name = 9907331
REMARK  3 active torsions:
REMARK  status: ('A' for Active; 'I' for Inactive)
REMARK    1  A    between atoms: N_3  and  C_19
REMARK    2  A    between atoms: CA_9  and  C_26
REMARK    3  A    between atoms: C_26  and  O_27
REMARK                            x       y       z     vdW  Elec       q    Type
REMARK                         _______ _______ _______ _____ _____    ______ ____
ROOT
ATOM      1 CL   UNL     1      35.335 -21.144 -20.694  0.00  0.00    -0.082 Cl
ATOM      2  O   UNL     1      34.321 -13.063 -24.306  0.00  0.00    -0.270 OA
ATOM      3  N   UNL     1      32.808 -12.670 -22.503  0.00  0.00    -0.255 N 
ATOM      4  N   UNL     1      35.147 -18.051 -24.753  0.00  0.00    -0.325 N 
ATOM      5  C   UNL     1      34.559 -15.722 -23.188  0.00  0.00    -0.018 C 
ATOM      6  C   UNL     1      33.884 -14.705 -22.628  0.00  0.00    +0.030 C 
ATOM      7  C   UNL     1      35.155 -15.595 -24.570  0.00  0.00    +0.057 C 
ATOM      8  C   UNL     1      33.167 -14.709 -21.324  0.00  0.00    +0.053 C 
ATOM      9  CA  UNL     1      34.847 -16.812 -25.441  0.00  0.00    +0.174 C 
ATOM     10  C   UNL     1      32.264 -13.492 -21.433  0.00  0.00    +0.103 C 
ATOM     11  C   UNL     1      34.727 -17.053 -22.552  0.00  0.00    +0.009 C 
ATOM     12  C   UNL     1      33.730 -13.379 -23.286  0.00  0.00    +0.248 C 
ATOM     13  C   UNL     1      35.019 -18.166 -23.373  0.00  0.00    +0.045 C 
ATOM     14  C   UNL     1      34.638 -17.235 -21.161  0.00  0.00    +0.002 C 
ATOM     15  C   UNL     1      35.214 -19.423 -22.776  0.00  0.00    +0.026 C 
ATOM     16  C   UNL     1      34.824 -18.494 -20.590  0.00  0.00    +0.011 C 
ATOM     17  C   UNL     1      35.113 -19.588 -21.396  0.00  0.00    +0.059 C 
ATOM     18  H   UNL     1      35.447 -18.830 -25.275  0.00  0.00    +0.147 HD
ENDROOT
BRANCH   3  19
ATOM     19  C   UNL     1      32.346 -11.340 -22.740  0.00  0.00    +0.054 C 
ATOM     20  C   UNL     1      33.081 -10.475 -23.554  0.00  0.00    +0.015 C 
ATOM     21  C   UNL     1      31.156 -10.896 -22.157  0.00  0.00    +0.015 C 
ATOM     22  C   UNL     1      32.629  -9.175 -23.786  0.00  0.00    +0.001 C 
ATOM     23  C   UNL     1      30.704  -9.596 -22.388  0.00  0.00    +0.001 C 
ATOM     24  C   UNL     1      31.441  -8.737 -23.202  0.00  0.00    +0.000 C 
ENDBRANCH   3  19
BRANCH   9  26
ATOM     25  OXT UNL     1      32.719 -17.857 -25.914  0.00  0.00    -0.248 OA
ATOM     26  C   UNL     1      33.414 -16.852 -25.879  0.00  0.00    +0.332 C 
BRANCH  26  27
ATOM     27  O   UNL     1      32.986 -15.616 -26.236  0.00  0.00    -0.479 OA
ATOM     28  H   UNL     1      32.378 -15.156 -25.692  0.00  0.00    +0.295 HD
ENDBRANCH  26  27
ENDBRANCH   9  26
TORSDOF 3
ENDMDL
MODEL 6
REMARK VINA RESULT:      -7.7      6.450     11.051
REMARK  Name = 9907331
REMARK  3 active torsions:
REMARK  status: ('A' for Active; 'I' for Inactive)
REMARK    1  A    between atoms: N_3  and  C_19
REMARK    2  A    between atoms: CA_9  and  C_26
REMARK    3  A    between atoms: C_26  and  O_27
REMARK                            x       y       z     vdW  Elec       q    Type
REMARK                         _______ _______ _______ _____ _____    ______ ____
ROOT
ATOM      1 CL   UNL     1      38.372 -25.584 -11.342  0.00  0.00    -0.082 Cl
ATOM      2  O   UNL     1      33.414 -23.122 -18.322  0.00  0.00    -0.270 OA
ATOM      3  N   UNL     1      35.121 -21.499 -18.704  0.00  0.00    -0.255 N 
ATOM      4  N   UNL     1      33.838 -24.931 -13.599  0.00  0.00    -0.325 N 
ATOM      5  C   UNL     1      34.976 -23.841 -15.994  0.00  0.00    -0.018 C 
ATOM      6  C   UNL     1      35.351 -22.960 -16.935  0.00  0.00    +0.030 C 
ATOM      7  C   UNL     1      33.593 -24.448 -16.001  0.00  0.00    +0.057 C 
ATOM      8  C   UNL     1      36.636 -22.213 -17.009  0.00  0.00    +0.053 C 
ATOM      9  CA  UNL     1      32.946 -24.417 -14.618  0.00  0.00    +0.174 C 
ATOM     10  C   UNL     1      36.317 -21.091 -17.984  0.00  0.00    +0.103 C 
ATOM     11  C   UNL     1      35.833 -24.246 -14.851  0.00  0.00    +0.009 C 
ATOM     12  C   UNL     1      34.473 -22.570 -18.072  0.00  0.00    +0.248 C 
ATOM     13  C   UNL     1      35.217 -24.781 -13.697  0.00  0.00    +0.045 C 
ATOM     14  C   UNL     1      37.235 -24.146 -14.894  0.00  0.00    +0.002 C 
ATOM     15  C   UNL     1      36.023 -25.199 -12.625  0.00  0.00    +0.026 C 
ATOM     16  C   UNL     1      38.016 -24.558 -13.814  0.00  0.00    +0.011 C 
ATOM     17  C   UNL     1      37.411 -25.084 -12.679  0.00  0.00    +0.059 C 
ATOM     18  H   UNL     1      33.459 -25.397 -12.819  0.00  0.00    +0.147 HD
ENDROOT
BRANCH   3  19
ATOM     19  C   UNL     1      34.658 -20.792 -19.855  0.00  0.00    +0.054 C 
ATOM     20  C   UNL     1      35.568 -20.327 -20.807  0.00  0.00    +0.015 C 
ATOM     21  C   UNL     1      33.291 -20.562 -20.035  0.00  0.00    +0.015 C 
ATOM     22  C   UNL     1      35.116 -19.637 -21.932  0.00  0.00    +0.001 C 
ATOM     23  C   UNL     1      32.838 -19.871 -21.159  0.00  0.00    +0.001 C 
ATOM     24  C   UNL     1      33.751 -19.409 -22.107  0.00  0.00    +0.000 C 
ENDBRANCH   3  19
BRANCH   9  26
ATOM     25  OXT UNL     1      32.215 -22.143 -14.994  0.00  0.00    -0.248 OA
ATOM     26  C   UNL     1      32.522 -23.036 -14.218  0.00  0.00    +0.332 C 
BRANCH  26  27
ATOM     27  O   UNL     1      32.527 -22.904 -12.869  0.00  0.00    -0.479 OA
ATOM     28  H   UNL     1      33.340 -22.872 -12.405  0.00  0.00    +0.295 HD
ENDBRANCH  26  27
ENDBRANCH   9  26
TORSDOF 3
ENDMDL
MODEL 7
REMARK VINA RESULT:      -7.6      4.561      9.174
REMARK  Name = 9907331
REMARK  3 active torsions:
REMARK  status: ('A' for Active; 'I' for Inactive)
REMARK    1  A    between atoms: N_3  and  C_19
REMARK    2  A    between atoms: CA_9  and  C_26
REMARK    3  A    between atoms: C_26  and  O_27
REMARK                            x       y       z     vdW  Elec       q    Type
REMARK                         _______ _______ _______ _____ _____    ______ ____
ROOT
ATOM      1 CL   UNL     1      33.090 -18.397 -20.812  0.00  0.00    -0.082 Cl
ATOM      2  O   UNL     1      33.668 -10.117 -24.046  0.00  0.00    -0.270 OA
ATOM      3  N   UNL     1      31.773  -9.664 -22.670  0.00  0.00    -0.255 N 
ATOM      4  N   UNL     1      34.200 -15.136 -24.581  0.00  0.00    -0.325 N 
ATOM      5  C   UNL     1      33.404 -12.830 -23.074  0.00  0.00    -0.018 C 
ATOM      6  C   UNL     1      32.687 -11.781 -22.643  0.00  0.00    +0.030 C 
ATOM      7  C   UNL     1      34.347 -12.701 -24.248  0.00  0.00    +0.057 C 
ATOM      8  C   UNL     1      31.657 -11.773 -21.568  0.00  0.00    +0.053 C 
ATOM      9  CA  UNL     1      34.184 -13.847 -25.243  0.00  0.00    +0.174 C 
ATOM     10  C   UNL     1      30.908 -10.477 -21.828  0.00  0.00    +0.103 C 
ATOM     11  C   UNL     1      33.299 -14.196 -22.502  0.00  0.00    +0.009 C 
ATOM     12  C   UNL     1      32.810 -10.420 -23.234  0.00  0.00    +0.248 C 
ATOM     13  C   UNL     1      33.709 -15.296 -23.289  0.00  0.00    +0.045 C 
ATOM     14  C   UNL     1      32.838 -14.426 -21.194  0.00  0.00    +0.002 C 
ATOM     15  C   UNL     1      33.646 -16.588 -22.742  0.00  0.00    +0.026 C 
ATOM     16  C   UNL     1      32.773 -15.719 -20.674  0.00  0.00    +0.011 C 
ATOM     17  C   UNL     1      33.177 -16.800 -21.448  0.00  0.00    +0.059 C 
ATOM     18  H   UNL     1      34.566 -15.916 -25.056  0.00  0.00    +0.147 HD
ENDROOT
BRANCH   3  19
ATOM     19  C   UNL     1      31.491  -8.289 -22.932  0.00  0.00    +0.054 C 
ATOM     20  C   UNL     1      31.639  -7.336 -21.920  0.00  0.00    +0.015 C 
ATOM     21  C   UNL     1      31.065  -7.888 -24.201  0.00  0.00    +0.015 C 
ATOM     22  C   UNL     1      31.364  -5.992 -22.176  0.00  0.00    +0.001 C 
ATOM     23  C   UNL     1      30.790  -6.545 -24.458  0.00  0.00    +0.001 C 
ATOM     24  C   UNL     1      30.939  -5.598 -23.445  0.00  0.00    +0.000 C 
ENDBRANCH   3  19
BRANCH   9  26
ATOM     25  OXT UNL     1      32.465 -12.705 -26.501  0.00  0.00    -0.248 OA
ATOM     26  C   UNL     1      32.916 -13.740 -26.034  0.00  0.00    +0.332 C 
BRANCH  26  27
ATOM     27  O   UNL     1      32.326 -14.954 -26.162  0.00  0.00    -0.479 OA
ATOM     28  H   UNL     1      32.748 -15.629 -26.657  0.00  0.00    +0.295 HD
ENDBRANCH  26  27
ENDBRANCH   9  26
TORSDOF 3
ENDMDL
MODEL 8
REMARK VINA RESULT:      -7.3      6.510     11.409
REMARK  Name = 9907331
REMARK  3 active torsions:
REMARK  status: ('A' for Active; 'I' for Inactive)
REMARK    1  A    between atoms: N_3  and  C_19
REMARK    2  A    between atoms: CA_9  and  C_26
REMARK    3  A    between atoms: C_26  and  O_27
REMARK                            x       y       z     vdW  Elec       q    Type
REMARK                         _______ _______ _______ _____ _____    ______ ____
ROOT
ATOM      1 CL   UNL     1      34.668 -14.671 -23.629  0.00  0.00    -0.082 Cl
ATOM      2  O   UNL     1      30.509  -6.819 -22.985  0.00  0.00    -0.270 OA
ATOM      3  N   UNL     1      32.408  -5.948 -24.139  0.00  0.00    -0.255 N 
ATOM      4  N   UNL     1      31.622 -11.414 -21.140  0.00  0.00    -0.325 N 
ATOM      5  C   UNL     1      31.918  -9.344 -23.102  0.00  0.00    -0.018 C 
ATOM      6  C   UNL     1      32.313  -8.210 -23.701  0.00  0.00    +0.030 C 
ATOM      7  C   UNL     1      30.733  -9.359 -22.165  0.00  0.00    +0.057 C 
ATOM      8  C   UNL     1      33.506  -8.017 -24.570  0.00  0.00    +0.053 C 
ATOM      9  CA  UNL     1      31.032 -10.118 -20.874  0.00  0.00    +0.174 C 
ATOM     10  C   UNL     1      33.676  -6.507 -24.580  0.00  0.00    +0.103 C 
ATOM     11  C   UNL     1      32.622 -10.644 -23.244  0.00  0.00    +0.009 C 
ATOM     12  C   UNL     1      31.590  -6.918 -23.544  0.00  0.00    +0.248 C 
ATOM     13  C   UNL     1      32.436 -11.629 -22.247  0.00  0.00    +0.045 C 
ATOM     14  C   UNL     1      33.438 -10.936 -24.351  0.00  0.00    +0.002 C 
ATOM     15  C   UNL     1      33.072 -12.874 -22.391  0.00  0.00    +0.026 C 
ATOM     16  C   UNL     1      34.068 -12.176 -24.468  0.00  0.00    +0.011 C 
ATOM     17  C   UNL     1      33.885 -13.145 -23.490  0.00  0.00    +0.059 C 
ATOM     18  H   UNL     1      31.443 -12.160 -20.523  0.00  0.00    +0.147 HD
ENDROOT
BRANCH   3  19
ATOM     19  C   UNL     1      32.127  -4.551 -24.237  0.00  0.00    +0.054 C 
ATOM     20  C   UNL     1      31.749  -3.829 -23.102  0.00  0.00    +0.015 C 
ATOM     21  C   UNL     1      32.229  -3.899 -25.468  0.00  0.00    +0.015 C 
ATOM     22  C   UNL     1      31.476  -2.464 -23.197  0.00  0.00    +0.001 C 
ATOM     23  C   UNL     1      31.955  -2.534 -25.564  0.00  0.00    +0.001 C 
ATOM     24  C   UNL     1      31.579  -1.818 -24.428  0.00  0.00    +0.000 C 
ENDBRANCH   3  19
BRANCH   9  26
ATOM     25  OXT UNL     1      32.496  -8.299 -20.245  0.00  0.00    -0.248 OA
ATOM     26  C   UNL     1      31.954  -9.359 -19.967  0.00  0.00    +0.332 C 
BRANCH  26  27
ATOM     27  O   UNL     1      32.111 -10.010 -18.789  0.00  0.00    -0.479 OA
ATOM     28  H   UNL     1      32.962 -10.302 -18.526  0.00  0.00    +0.295 HD
ENDBRANCH  26  27
ENDBRANCH   9  26
TORSDOF 3
ENDMDL
