MODEL 1
REMARK VINA RESULT:      -9.1      0.000      0.000
REMARK  Name = 7092657
REMARK  1 active torsions:
REMARK  status: ('A' for Active; 'I' for Inactive)
REMARK    1  A    between atoms: C_7  and  O_22
REMARK                            x       y       z     vdW  Elec       q    Type
REMARK                         _______ _______ _______ _____ _____    ______ ____
ROOT
ATOM      1  O   UNL     1      39.900 -25.922 -14.008  0.00  0.00    -0.291 OA
ATOM      2  C   UNL     1      31.611 -23.715 -14.648  0.00  0.00    +0.023 C 
ATOM      3  C   UNL     1      32.623 -23.641 -15.811  0.00  0.00    +0.002 C 
ATOM      4  C   UNL     1      34.065 -23.399 -15.342  0.00  0.00    +0.000 C 
ATOM      5  C   UNL     1      34.493 -24.570 -14.392  0.00  0.00    +0.004 C 
ATOM      6  C   UNL     1      35.985 -24.411 -13.912  0.00  0.00    +0.019 C 
ATOM      7  C   UNL     1      30.272 -23.843 -15.441  0.00  0.00    +0.088 C 
ATOM      8  C   UNL     1      32.009 -24.902 -13.757  0.00  0.00    +0.002 C 
ATOM      9  C   UNL     1      33.459 -24.779 -13.250  0.00  0.00    +0.000 C 
ATOM     10  C   UNL     1      31.991 -22.637 -16.771  0.00  0.00    +0.002 C 
ATOM     11  C   UNL     1      35.022 -23.260 -16.534  0.00  0.00    +0.000 C 
ATOM     12  C   UNL     1      36.873 -24.310 -15.194  0.00  0.00    +0.011 C 
ATOM     13  C   UNL     1      30.475 -22.874 -16.636  0.00  0.00    +0.027 C 
ATOM     14  C   UNL     1      36.479 -23.140 -16.098  0.00  0.00    +0.001 C 
ATOM     15  C   UNL     1      31.573 -22.426 -13.776  0.00  0.00    +0.002 C 
ATOM     16  C   UNL     1      36.148 -23.185 -12.981  0.00  0.00    +0.004 C 
ATOM     17  C   UNL     1      29.930 -25.250 -15.945  0.00  0.00    +0.029 C 
ATOM     18  C   UNL     1      36.472 -25.618 -13.120  0.00  0.00    -0.024 C 
ATOM     19  C   UNL     1      38.368 -24.292 -14.871  0.00  0.00    +0.069 C 
ATOM     20  C   UNL     1      37.712 -26.122 -13.178  0.00  0.00    +0.033 C 
ATOM     21  C   UNL     1      38.748 -25.491 -14.031  0.00  0.00    +0.173 C 
ENDROOT
BRANCH   7  22
ATOM     22  O   UNL     1      29.157 -23.403 -14.670  0.00  0.00    -0.387 OA
ATOM     23  H   UNL     1      28.736 -24.165 -14.243  0.00  0.00    +0.210 HD
ENDBRANCH   7  22
TORSDOF 1
ENDMDL
MODEL 2
REMARK VINA RESULT:      -8.6      3.204      6.434
REMARK  Name = 7092657
REMARK  1 active torsions:
REMARK  status: ('A' for Active; 'I' for Inactive)
REMARK    1  A    between atoms: C_7  and  O_22
REMARK                            x       y       z     vdW  Elec       q    Type
REMARK                         _______ _______ _______ _____ _____    ______ ____
ROOT
ATOM      1  O   UNL     1      33.426 -19.347 -21.611  0.00  0.00    -0.291 OA
ATOM      2  C   UNL     1      35.438 -24.255 -14.839  0.00  0.00    +0.023 C 
ATOM      3  C   UNL     1      36.361 -23.168 -15.431  0.00  0.00    +0.002 C 
ATOM      4  C   UNL     1      36.143 -22.944 -16.934  0.00  0.00    +0.000 C 
ATOM      5  C   UNL     1      34.657 -22.509 -17.172  0.00  0.00    +0.004 C 
ATOM      6  C   UNL     1      34.376 -22.212 -18.694  0.00  0.00    +0.019 C 
ATOM      7  C   UNL     1      35.976 -24.321 -13.375  0.00  0.00    +0.088 C 
ATOM      8  C   UNL     1      33.987 -23.788 -15.028  0.00  0.00    +0.002 C 
ATOM      9  C   UNL     1      33.663 -23.502 -16.507  0.00  0.00    +0.000 C 
ATOM     10  C   UNL     1      37.750 -23.578 -14.949  0.00  0.00    +0.002 C 
ATOM     11  C   UNL     1      37.131 -21.910 -17.491  0.00  0.00    +0.000 C 
ATOM     12  C   UNL     1      35.408 -21.131 -19.150  0.00  0.00    +0.011 C 
ATOM     13  C   UNL     1      37.512 -24.190 -13.555  0.00  0.00    +0.027 C 
ATOM     14  C   UNL     1      36.860 -21.578 -18.955  0.00  0.00    +0.001 C 
ATOM     15  C   UNL     1      35.608 -25.647 -15.514  0.00  0.00    +0.002 C 
ATOM     16  C   UNL     1      34.457 -23.504 -19.542  0.00  0.00    +0.004 C 
ATOM     17  C   UNL     1      35.454 -23.236 -12.425  0.00  0.00    +0.029 C 
ATOM     18  C   UNL     1      32.985 -21.634 -18.926  0.00  0.00    -0.024 C 
ATOM     19  C   UNL     1      35.157 -20.647 -20.579  0.00  0.00    +0.069 C 
ATOM     20  C   UNL     1      32.689 -20.694 -19.833  0.00  0.00    +0.033 C 
ATOM     21  C   UNL     1      33.736 -20.151 -20.733  0.00  0.00    +0.173 C 
ENDROOT
BRANCH   7  22
ATOM     22  O   UNL     1      35.686 -25.575 -12.761  0.00  0.00    -0.387 OA
ATOM     23  H   UNL     1      36.243 -25.688 -11.976  0.00  0.00    +0.210 HD
ENDBRANCH   7  22
TORSDOF 1
ENDMDL
MODEL 3
REMARK VINA RESULT:      -7.7      1.323      6.533
REMARK  Name = 7092657
REMARK  1 active torsions:
REMARK  status: ('A' for Active; 'I' for Inactive)
REMARK    1  A    between atoms: C_7  and  O_22
REMARK                            x       y       z     vdW  Elec       q    Type
REMARK                         _______ _______ _______ _____ _____    ______ ____
ROOT
ATOM      1  O   UNL     1      28.089 -22.027 -16.090  0.00  0.00    -0.291 OA
ATOM      2  C   UNL     1      35.963 -24.438 -13.604  0.00  0.00    +0.023 C 
ATOM      3  C   UNL     1      35.674 -23.527 -14.816  0.00  0.00    +0.002 C 
ATOM      4  C   UNL     1      34.307 -23.797 -15.461  0.00  0.00    +0.000 C 
ATOM      5  C   UNL     1      33.186 -23.561 -14.392  0.00  0.00    +0.004 C 
ATOM      6  C   UNL     1      31.749 -23.772 -15.003  0.00  0.00    +0.019 C 
ATOM      7  C   UNL     1      37.425 -24.010 -13.264  0.00  0.00    +0.088 C 
ATOM      8  C   UNL     1      34.889 -24.156 -12.541  0.00  0.00    +0.002 C 
ATOM      9  C   UNL     1      33.466 -24.366 -13.092  0.00  0.00    +0.000 C 
ATOM     10  C   UNL     1      36.927 -23.671 -15.675  0.00  0.00    +0.002 C 
ATOM     11  C   UNL     1      34.096 -22.921 -16.704  0.00  0.00    +0.000 C 
ATOM     12  C   UNL     1      31.628 -22.817 -16.235  0.00  0.00    +0.011 C 
ATOM     13  C   UNL     1      38.075 -23.834 -14.663  0.00  0.00    +0.027 C 
ATOM     14  C   UNL     1      32.700 -23.079 -17.296  0.00  0.00    +0.001 C 
ATOM     15  C   UNL     1      35.937 -25.957 -13.948  0.00  0.00    +0.002 C 
ATOM     16  C   UNL     1      31.510 -25.255 -15.378  0.00  0.00    +0.004 C 
ATOM     17  C   UNL     1      37.567 -22.722 -12.443  0.00  0.00    +0.029 C 
ATOM     18  C   UNL     1      30.641 -23.393 -14.028  0.00  0.00    -0.024 C 
ATOM     19  C   UNL     1      30.224 -22.820 -16.842  0.00  0.00    +0.069 C 
ATOM     20  C   UNL     1      29.489 -22.803 -14.370  0.00  0.00    +0.033 C 
ATOM     21  C   UNL     1      29.186 -22.496 -15.790  0.00  0.00    +0.173 C 
ENDROOT
BRANCH   7  22
ATOM     22  O   UNL     1      38.123 -25.028 -12.551  0.00  0.00    -0.387 OA
ATOM     23  H   UNL     1      37.713 -25.888 -12.730  0.00  0.00    +0.210 HD
ENDBRANCH   7  22
TORSDOF 1
ENDMDL
MODEL 4
REMARK VINA RESULT:      -7.7     19.968     22.300
REMARK  Name = 7092657
REMARK  1 active torsions:
REMARK  status: ('A' for Active; 'I' for Inactive)
REMARK    1  A    between atoms: C_7  and  O_22
REMARK                            x       y       z     vdW  Elec       q    Type
REMARK                         _______ _______ _______ _____ _____    ______ ____
ROOT
ATOM      1  O   UNL     1      32.281  -7.809 -19.725  0.00  0.00    -0.291 OA
ATOM      2  C   UNL     1      33.560  -4.083 -27.371  0.00  0.00    +0.023 C 
ATOM      3  C   UNL     1      32.939  -3.372 -26.150  0.00  0.00    +0.002 C 
ATOM      4  C   UNL     1      32.194  -4.330 -25.209  0.00  0.00    +0.000 C 
ATOM      5  C   UNL     1      33.199  -5.412 -24.688  0.00  0.00    +0.004 C 
ATOM      6  C   UNL     1      32.510  -6.402 -23.673  0.00  0.00    +0.019 C 
ATOM      7  C   UNL     1      34.120  -2.858 -28.162  0.00  0.00    +0.088 C 
ATOM      8  C   UNL     1      34.585  -5.101 -26.847  0.00  0.00    +0.002 C 
ATOM      9  C   UNL     1      33.949  -6.101 -25.862  0.00  0.00    +0.000 C 
ATOM     10  C   UNL     1      32.166  -2.211 -26.769  0.00  0.00    +0.002 C 
ATOM     11  C   UNL     1      31.531  -3.570 -24.052  0.00  0.00    +0.000 C 
ATOM     12  C   UNL     1      31.899  -5.534 -22.526  0.00  0.00    +0.011 C 
ATOM     13  C   UNL     1      33.011  -1.787 -27.985  0.00  0.00    +0.027 C 
ATOM     14  C   UNL     1      30.886  -4.506 -23.036  0.00  0.00    +0.001 C 
ATOM     15  C   UNL     1      32.517  -4.832 -28.251  0.00  0.00    +0.002 C 
ATOM     16  C   UNL     1      31.450  -7.282 -24.379  0.00  0.00    +0.004 C 
ATOM     17  C   UNL     1      35.471  -2.316 -27.678  0.00  0.00    +0.029 C 
ATOM     18  C   UNL     1      33.505  -7.362 -23.032  0.00  0.00    -0.024 C 
ATOM     19  C   UNL     1      31.317  -6.384 -21.395  0.00  0.00    +0.069 C 
ATOM     20  C   UNL     1      33.451  -7.783 -21.761  0.00  0.00    +0.033 C 
ATOM     21  C   UNL     1      32.354  -7.348 -20.863  0.00  0.00    +0.173 C 
ENDROOT
BRANCH   7  22
ATOM     22  O   UNL     1      34.269  -3.148 -29.550  0.00  0.00    -0.387 OA
ATOM     23  H   UNL     1      33.474  -2.866 -30.027  0.00  0.00    +0.210 HD
ENDBRANCH   7  22
TORSDOF 1
ENDMDL
MODEL 5
REMARK VINA RESULT:      -7.6     10.365     13.002
REMARK  Name = 7092657
REMARK  1 active torsions:
REMARK  status: ('A' for Active; 'I' for Inactive)
REMARK    1  A    between atoms: C_7  and  O_22
REMARK                            x       y       z     vdW  Elec       q    Type
REMARK                         _______ _______ _______ _____ _____    ______ ____
ROOT
ATOM      1  O   UNL     1      33.860 -10.696 -25.899  0.00  0.00    -0.291 OA
ATOM      2  C   UNL     1      34.700 -18.042 -21.504  0.00  0.00    +0.023 C 
ATOM      3  C   UNL     1      34.925 -17.908 -23.026  0.00  0.00    +0.002 C 
ATOM      4  C   UNL     1      34.087 -16.790 -23.663  0.00  0.00    +0.000 C 
ATOM      5  C   UNL     1      34.464 -15.427 -22.989  0.00  0.00    +0.004 C 
ATOM      6  C   UNL     1      33.675 -14.224 -23.633  0.00  0.00    +0.019 C 
ATOM      7  C   UNL     1      35.573 -19.299 -21.195  0.00  0.00    +0.088 C 
ATOM      8  C   UNL     1      35.127 -16.718 -20.851  0.00  0.00    +0.002 C 
ATOM      9  C   UNL     1      34.367 -15.515 -21.440  0.00  0.00    +0.000 C 
ATOM     10  C   UNL     1      34.748 -19.334 -23.539  0.00  0.00    +0.002 C 
ATOM     11  C   UNL     1      34.288 -16.743 -25.184  0.00  0.00    +0.000 C 
ATOM     12  C   UNL     1      33.971 -14.248 -25.167  0.00  0.00    +0.011 C 
ATOM     13  C   UNL     1      35.305 -20.224 -22.412  0.00  0.00    +0.027 C 
ATOM     14  C   UNL     1      33.562 -15.567 -25.829  0.00  0.00    +0.001 C 
ATOM     15  C   UNL     1      33.220 -18.335 -21.119  0.00  0.00    +0.002 C 
ATOM     16  C   UNL     1      32.162 -14.313 -23.320  0.00  0.00    +0.004 C 
ATOM     17  C   UNL     1      37.078 -19.041 -21.040  0.00  0.00    +0.029 C 
ATOM     18  C   UNL     1      34.142 -12.873 -23.105  0.00  0.00    -0.024 C 
ATOM     19  C   UNL     1      33.374 -13.044 -25.898  0.00  0.00    +0.069 C 
ATOM     20  C   UNL     1      34.235 -11.756 -23.837  0.00  0.00    +0.033 C 
ATOM     21  C   UNL     1      33.842 -11.751 -25.268  0.00  0.00    +0.173 C 
ENDROOT
BRANCH   7  22
ATOM     22  O   UNL     1      35.148 -19.960 -20.006  0.00  0.00    -0.387 OA
ATOM     23  H   UNL     1      35.728 -20.716 -19.830  0.00  0.00    +0.210 HD
ENDBRANCH   7  22
TORSDOF 1
ENDMDL
MODEL 6
REMARK VINA RESULT:      -6.8     13.367     15.677
REMARK  Name = 7092657
REMARK  1 active torsions:
REMARK  status: ('A' for Active; 'I' for Inactive)
REMARK    1  A    between atoms: C_7  and  O_22
REMARK                            x       y       z     vdW  Elec       q    Type
REMARK                         _______ _______ _______ _____ _____    ______ ____
ROOT
ATOM      1  O   UNL     1      34.162 -17.224 -21.374  0.00  0.00    -0.291 OA
ATOM      2  C   UNL     1      33.068  -9.023 -23.725  0.00  0.00    +0.023 C 
ATOM      3  C   UNL     1      32.805  -9.563 -22.303  0.00  0.00    +0.002 C 
ATOM      4  C   UNL     1      32.392 -11.042 -22.286  0.00  0.00    +0.000 C 
ATOM      5  C   UNL     1      33.537 -11.895 -22.931  0.00  0.00    +0.004 C 
ATOM      6  C   UNL     1      33.200 -13.435 -22.900  0.00  0.00    +0.019 C 
ATOM      7  C   UNL     1      33.339  -7.517 -23.415  0.00  0.00    +0.088 C 
ATOM      8  C   UNL     1      34.230  -9.831 -24.324  0.00  0.00    +0.002 C 
ATOM      9  C   UNL     1      33.936 -11.344 -24.329  0.00  0.00    +0.000 C 
ATOM     10  C   UNL     1      31.853  -8.533 -21.702  0.00  0.00    +0.002 C 
ATOM     11  C   UNL     1      32.071 -11.513 -20.861  0.00  0.00    +0.000 C 
ATOM     12  C   UNL     1      32.921 -13.814 -21.410  0.00  0.00    +0.011 C 
ATOM     13  C   UNL     1      32.298  -7.191 -22.312  0.00  0.00    +0.027 C 
ATOM     14  C   UNL     1      31.774 -13.007 -20.797  0.00  0.00    +0.001 C 
ATOM     15  C   UNL     1      31.837  -9.141 -24.671  0.00  0.00    +0.002 C 
ATOM     16  C   UNL     1      32.007 -13.767 -23.829  0.00  0.00    +0.004 C 
ATOM     17  C   UNL     1      34.756  -7.183 -22.930  0.00  0.00    +0.029 C 
ATOM     18  C   UNL     1      34.365 -14.294 -23.375  0.00  0.00    -0.024 C 
ATOM     19  C   UNL     1      32.715 -15.318 -21.218  0.00  0.00    +0.069 C 
ATOM     20  C   UNL     1      34.693 -15.488 -22.863  0.00  0.00    +0.033 C 
ATOM     21  C   UNL     1      33.889 -16.093 -21.773  0.00  0.00    +0.173 C 
ENDROOT
BRANCH   7  22
ATOM     22  O   UNL     1      33.090  -6.690 -24.549  0.00  0.00    -0.387 OA
ATOM     23  H   UNL     1      32.511  -7.157 -25.170  0.00  0.00    +0.210 HD
ENDBRANCH   7  22
TORSDOF 1
ENDMDL
MODEL 7
REMARK VINA RESULT:      -6.7     19.460     21.777
REMARK  Name = 7092657
REMARK  1 active torsions:
REMARK  status: ('A' for Active; 'I' for Inactive)
REMARK    1  A    between atoms: C_7  and  O_22
REMARK                            x       y       z     vdW  Elec       q    Type
REMARK                         _______ _______ _______ _____ _____    ______ ____
ROOT
ATOM      1  O   UNL     1      31.468 -10.213 -21.662  0.00  0.00    -0.291 OA
ATOM      2  C   UNL     1      33.021  -3.648 -26.998  0.00  0.00    +0.023 C 
ATOM      3  C   UNL     1      33.938  -4.880 -26.844  0.00  0.00    +0.002 C 
ATOM      4  C   UNL     1      33.870  -5.513 -25.447  0.00  0.00    +0.000 C 
ATOM      5  C   UNL     1      32.395  -5.961 -25.164  0.00  0.00    +0.004 C 
ATOM      6  C   UNL     1      32.263  -6.667 -23.762  0.00  0.00    +0.019 C 
ATOM      7  C   UNL     1      33.401  -3.184 -28.439  0.00  0.00    +0.088 C 
ATOM      8  C   UNL     1      31.573  -4.113 -26.774  0.00  0.00    +0.002 C 
ATOM      9  C   UNL     1      31.394  -4.796 -25.405  0.00  0.00    +0.000 C 
ATOM     10  C   UNL     1      35.288  -4.385 -27.355  0.00  0.00    +0.002 C 
ATOM     11  C   UNL     1      34.851  -6.686 -25.319  0.00  0.00    +0.000 C 
ATOM     12  C   UNL     1      33.274  -7.858 -23.749  0.00  0.00    +0.011 C 
ATOM     13  C   UNL     1      34.938  -3.400 -28.486  0.00  0.00    +0.027 C 
ATOM     14  C   UNL     1      34.719  -7.411 -23.984  0.00  0.00    +0.001 C 
ATOM     15  C   UNL     1      33.341  -2.507 -25.988  0.00  0.00    +0.002 C 
ATOM     16  C   UNL     1      32.508  -5.669 -22.605  0.00  0.00    +0.004 C 
ATOM     17  C   UNL     1      32.719  -3.945 -29.583  0.00  0.00    +0.029 C 
ATOM     18  C   UNL     1      30.874  -7.253 -23.535  0.00  0.00    -0.024 C 
ATOM     19  C   UNL     1      33.150  -8.719 -22.491  0.00  0.00    +0.069 C 
ATOM     20  C   UNL     1      30.623  -8.403 -22.897  0.00  0.00    +0.033 C 
ATOM     21  C   UNL     1      31.728  -9.203 -22.313  0.00  0.00    +0.173 C 
ENDROOT
BRANCH   7  22
ATOM     22  O   UNL     1      33.119  -1.802 -28.643  0.00  0.00    -0.387 OA
ATOM     23  H   UNL     1      32.312  -1.562 -28.163  0.00  0.00    +0.210 HD
ENDBRANCH   7  22
TORSDOF 1
ENDMDL
