MODEL 1
REMARK VINA RESULT:      -9.5      0.000      0.000
REMARK  Name = 66414
REMARK  3 active torsions:
REMARK  status: ('A' for Active; 'I' for Inactive)
REMARK    1  A    between atoms: C_5  and  O_19
REMARK    2  A    between atoms: C_17  and  O_21
REMARK    3  A    between atoms: C_18  and  O_23
REMARK                            x       y       z     vdW  Elec       q    Type
REMARK                         _______ _______ _______ _____ _____    ______ ____
ROOT
ATOM      1  C   UNL     1      34.401 -18.950 -21.616  0.00  0.00    +0.025 C 
ATOM      2  C   UNL     1      35.621 -19.836 -21.295  0.00  0.00    +0.003 C 
ATOM      3  C   UNL     1      35.541 -20.442 -19.894  0.00  0.00    +0.004 C 
ATOM      4  C   UNL     1      34.276 -21.349 -19.814  0.00  0.00    +0.022 C 
ATOM      5  C   UNL     1      34.813 -18.458 -23.017  0.00  0.00    +0.110 C 
ATOM      6  C   UNL     1      33.148 -19.835 -21.586  0.00  0.00    +0.003 C 
ATOM      7  C   UNL     1      36.810 -18.950 -21.659  0.00  0.00    +0.003 C 
ATOM      8  C   UNL     1      33.000 -20.572 -20.241  0.00  0.00    +0.004 C 
ATOM      9  C   UNL     1      36.316 -18.147 -22.876  0.00  0.00    +0.029 C 
ATOM     10  C   UNL     1      36.774 -21.277 -19.543  0.00  0.00    +0.005 C 
ATOM     11  C   UNL     1      34.201 -17.746 -20.661  0.00  0.00    +0.002 C 
ATOM     12  C   UNL     1      34.183 -22.052 -18.463  0.00  0.00    -0.023 C 
ATOM     13  C   UNL     1      36.695 -21.730 -18.088  0.00  0.00    +0.026 C 
ATOM     14  C   UNL     1      35.342 -22.260 -17.683  0.00  0.00    -0.023 C 
ATOM     15  C   UNL     1      32.967 -22.588 -18.003  0.00  0.00    +0.035 C 
ATOM     16  C   UNL     1      35.247 -22.940 -16.455  0.00  0.00    +0.035 C 
ATOM     17  C   UNL     1      32.889 -23.270 -16.787  0.00  0.00    +0.172 C 
ATOM     18  C   UNL     1      34.027 -23.442 -16.010  0.00  0.00    +0.167 C 
ENDROOT
BRANCH   5  19
ATOM     19  O   UNL     1      34.080 -17.327 -23.445  0.00  0.00    -0.384 OA
ATOM     20  H   UNL     1      33.246 -17.277 -22.951  0.00  0.00    +0.210 HD
ENDBRANCH   5  19
BRANCH  17  21
ATOM     21  O   UNL     1      31.688 -23.766 -16.375  0.00  0.00    -0.468 OA
ATOM     22  C   UNL     1      30.574 -22.876 -16.410  0.00  0.00    +0.253 C 
ENDBRANCH  17  21
BRANCH  18  23
ATOM     23  O   UNL     1      33.964 -24.101 -14.821  0.00  0.00    -0.503 OA
ATOM     24  H   UNL     1      33.513 -23.715 -14.096  0.00  0.00    +0.292 HD
ENDBRANCH  18  23
TORSDOF 3
ENDMDL
MODEL 2
REMARK VINA RESULT:      -8.6      4.460      7.505
REMARK  Name = 66414
REMARK  3 active torsions:
REMARK  status: ('A' for Active; 'I' for Inactive)
REMARK    1  A    between atoms: C_5  and  O_19
REMARK    2  A    between atoms: C_17  and  O_21
REMARK    3  A    between atoms: C_18  and  O_23
REMARK                            x       y       z     vdW  Elec       q    Type
REMARK                         _______ _______ _______ _____ _____    ______ ____
ROOT
ATOM      1  C   UNL     1      37.032 -25.145 -13.641  0.00  0.00    +0.025 C 
ATOM      2  C   UNL     1      37.074 -23.986 -14.658  0.00  0.00    +0.003 C 
ATOM      3  C   UNL     1      35.774 -23.870 -15.454  0.00  0.00    +0.004 C 
ATOM      4  C   UNL     1      34.607 -23.576 -14.463  0.00  0.00    +0.022 C 
ATOM      5  C   UNL     1      38.462 -25.033 -13.078  0.00  0.00    +0.110 C 
ATOM      6  C   UNL     1      35.917 -24.852 -12.630  0.00  0.00    +0.003 C 
ATOM      7  C   UNL     1      38.388 -24.213 -15.401  0.00  0.00    +0.003 C 
ATOM      8  C   UNL     1      34.558 -24.630 -13.324  0.00  0.00    +0.004 C 
ATOM      9  C   UNL     1      39.333 -24.773 -14.322  0.00  0.00    +0.029 C 
ATOM     10  C   UNL     1      35.826 -22.759 -16.505  0.00  0.00    +0.005 C 
ATOM     11  C   UNL     1      36.806 -26.547 -14.262  0.00  0.00    +0.002 C 
ATOM     12  C   UNL     1      33.291 -23.365 -15.206  0.00  0.00    -0.023 C 
ATOM     13  C   UNL     1      34.559 -22.792 -17.355  0.00  0.00    +0.026 C 
ATOM     14  C   UNL     1      33.289 -22.954 -16.558  0.00  0.00    -0.023 C 
ATOM     15  C   UNL     1      32.055 -23.485 -14.546  0.00  0.00    +0.035 C 
ATOM     16  C   UNL     1      32.068 -22.731 -17.219  0.00  0.00    +0.035 C 
ATOM     17  C   UNL     1      30.851 -23.249 -15.213  0.00  0.00    +0.172 C 
ATOM     18  C   UNL     1      30.857 -22.877 -16.551  0.00  0.00    +0.167 C 
ENDROOT
BRANCH   5  19
ATOM     19  O   UNL     1      38.875 -26.193 -12.382  0.00  0.00    -0.384 OA
ATOM     20  H   UNL     1      38.268 -26.923 -12.582  0.00  0.00    +0.210 HD
ENDBRANCH   5  19
BRANCH  17  21
ATOM     21  O   UNL     1      29.675 -23.385 -14.536  0.00  0.00    -0.468 OA
ATOM     22  C   UNL     1      29.048 -24.665 -14.578  0.00  0.00    +0.253 C 
ENDBRANCH  17  21
BRANCH  18  23
ATOM     23  O   UNL     1      29.690 -22.650 -17.214  0.00  0.00    -0.503 OA
ATOM     24  H   UNL     1      29.675 -22.655 -18.151  0.00  0.00    +0.292 HD
ENDBRANCH  18  23
TORSDOF 3
ENDMDL
MODEL 3
REMARK VINA RESULT:      -8.5      7.796     12.207
REMARK  Name = 66414
REMARK  3 active torsions:
REMARK  status: ('A' for Active; 'I' for Inactive)
REMARK    1  A    between atoms: C_5  and  O_19
REMARK    2  A    between atoms: C_17  and  O_21
REMARK    3  A    between atoms: C_18  and  O_23
REMARK                            x       y       z     vdW  Elec       q    Type
REMARK                         _______ _______ _______ _____ _____    ______ ____
ROOT
ATOM      1  C   UNL     1      33.159 -14.036 -22.273  0.00  0.00    +0.025 C 
ATOM      2  C   UNL     1      32.209 -13.550 -21.160  0.00  0.00    +0.003 C 
ATOM      3  C   UNL     1      32.372 -12.058 -20.873  0.00  0.00    +0.004 C 
ATOM      4  C   UNL     1      32.019 -11.261 -22.166  0.00  0.00    +0.022 C 
ATOM      5  C   UNL     1      32.803 -15.536 -22.266  0.00  0.00    +0.110 C 
ATOM      6  C   UNL     1      32.798 -13.295 -23.565  0.00  0.00    +0.003 C 
ATOM      7  C   UNL     1      32.435 -14.556 -20.034  0.00  0.00    +0.003 C 
ATOM      8  C   UNL     1      32.845 -11.765 -23.380  0.00  0.00    +0.004 C 
ATOM      9  C   UNL     1      32.690 -15.885 -20.769  0.00  0.00    +0.029 C 
ATOM     10  C   UNL     1      31.475 -11.576 -19.732  0.00  0.00    +0.005 C 
ATOM     11  C   UNL     1      34.667 -13.840 -21.973  0.00  0.00    +0.002 C 
ATOM     12  C   UNL     1      32.082  -9.755 -21.922  0.00  0.00    -0.023 C 
ATOM     13  C   UNL     1      31.791 -10.119 -19.404  0.00  0.00    +0.026 C 
ATOM     14  C   UNL     1      31.930  -9.234 -20.618  0.00  0.00    -0.023 C 
ATOM     15  C   UNL     1      32.201  -8.849 -22.991  0.00  0.00    +0.035 C 
ATOM     16  C   UNL     1      31.955  -7.843 -20.413  0.00  0.00    +0.035 C 
ATOM     17  C   UNL     1      32.215  -7.469 -22.773  0.00  0.00    +0.172 C 
ATOM     18  C   UNL     1      32.097  -6.966 -21.484  0.00  0.00    +0.167 C 
ENDROOT
BRANCH   5  19
ATOM     19  O   UNL     1      33.767 -16.337 -22.920  0.00  0.00    -0.384 OA
ATOM     20  H   UNL     1      34.135 -15.849 -23.674  0.00  0.00    +0.210 HD
ENDBRANCH   5  19
BRANCH  17  21
ATOM     21  O   UNL     1      32.341  -6.627 -23.837  0.00  0.00    -0.468 OA
ATOM     22  C   UNL     1      33.633  -6.523 -24.431  0.00  0.00    +0.253 C 
ENDBRANCH  17  21
BRANCH  18  23
ATOM     23  O   UNL     1      32.113  -5.624 -21.258  0.00  0.00    -0.503 OA
ATOM     24  H   UNL     1      32.374  -5.293 -20.421  0.00  0.00    +0.292 HD
ENDBRANCH  18  23
TORSDOF 3
ENDMDL
MODEL 4
REMARK VINA RESULT:      -8.4      8.884     12.246
REMARK  Name = 66414
REMARK  3 active torsions:
REMARK  status: ('A' for Active; 'I' for Inactive)
REMARK    1  A    between atoms: C_5  and  O_19
REMARK    2  A    between atoms: C_17  and  O_21
REMARK    3  A    between atoms: C_18  and  O_23
REMARK                            x       y       z     vdW  Elec       q    Type
REMARK                         _______ _______ _______ _____ _____    ______ ____
ROOT
ATOM      1  C   UNL     1      31.925  -7.023 -23.448  0.00  0.00    +0.025 C 
ATOM      2  C   UNL     1      32.133  -7.430 -21.975  0.00  0.00    +0.003 C 
ATOM      3  C   UNL     1      31.822  -8.907 -21.736  0.00  0.00    +0.004 C 
ATOM      4  C   UNL     1      32.796  -9.768 -22.597  0.00  0.00    +0.022 C 
ATOM      5  C   UNL     1      32.244  -5.519 -23.337  0.00  0.00    +0.110 C 
ATOM      6  C   UNL     1      32.906  -7.828 -24.308  0.00  0.00    +0.003 C 
ATOM      7  C   UNL     1      31.358  -6.368 -21.200  0.00  0.00    +0.003 C 
ATOM      8  C   UNL     1      32.747  -9.345 -24.091  0.00  0.00    +0.004 C 
ATOM      9  C   UNL     1      31.550  -5.086 -22.031  0.00  0.00    +0.029 C 
ATOM     10  C   UNL     1      31.970  -9.309 -20.268  0.00  0.00    +0.005 C 
ATOM     11  C   UNL     1      30.485  -7.229 -23.983  0.00  0.00    +0.002 C 
ATOM     12  C   UNL     1      32.592 -11.258 -22.340  0.00  0.00    -0.023 C 
ATOM     13  C   UNL     1      31.509 -10.751 -20.076  0.00  0.00    +0.026 C 
ATOM     14  C   UNL     1      32.022 -11.704 -21.127  0.00  0.00    -0.023 C 
ATOM     15  C   UNL     1      33.045 -12.223 -23.257  0.00  0.00    +0.035 C 
ATOM     16  C   UNL     1      31.873 -13.082 -20.889  0.00  0.00    +0.035 C 
ATOM     17  C   UNL     1      32.899 -13.589 -23.002  0.00  0.00    +0.172 C 
ATOM     18  C   UNL     1      32.309 -14.019 -21.822  0.00  0.00    +0.167 C 
ENDROOT
BRANCH   5  19
ATOM     19  O   UNL     1      31.785  -4.772 -24.447  0.00  0.00    -0.384 OA
ATOM     20  H   UNL     1      31.240  -4.032 -24.136  0.00  0.00    +0.210 HD
ENDBRANCH   5  19
BRANCH  17  21
ATOM     21  O   UNL     1      33.345 -14.491 -23.922  0.00  0.00    -0.468 OA
ATOM     22  C   UNL     1      33.015 -14.241 -25.287  0.00  0.00    +0.253 C 
ENDBRANCH  17  21
BRANCH  18  23
ATOM     23  O   UNL     1      32.156 -15.347 -21.564  0.00  0.00    -0.503 OA
ATOM     24  H   UNL     1      32.211 -15.662 -20.683  0.00  0.00    +0.292 HD
ENDBRANCH  18  23
TORSDOF 3
ENDMDL
MODEL 5
REMARK VINA RESULT:      -8.2      2.700      4.946
REMARK  Name = 66414
REMARK  3 active torsions:
REMARK  status: ('A' for Active; 'I' for Inactive)
REMARK    1  A    between atoms: C_5  and  O_19
REMARK    2  A    between atoms: C_17  and  O_21
REMARK    3  A    between atoms: C_18  and  O_23
REMARK                            x       y       z     vdW  Elec       q    Type
REMARK                         _______ _______ _______ _____ _____    ______ ____
ROOT
ATOM      1  C   UNL     1      35.414 -21.307 -19.501  0.00  0.00    +0.025 C 
ATOM      2  C   UNL     1      34.314 -21.598 -18.460  0.00  0.00    +0.003 C 
ATOM      3  C   UNL     1      34.678 -22.772 -17.550  0.00  0.00    +0.004 C 
ATOM      4  C   UNL     1      35.976 -22.411 -16.765  0.00  0.00    +0.022 C 
ATOM      5  C   UNL     1      34.729 -20.160 -20.270  0.00  0.00    +0.110 C 
ATOM      6  C   UNL     1      36.689 -20.907 -18.749  0.00  0.00    +0.003 C 
ATOM      7  C   UNL     1      33.040 -21.669 -19.297  0.00  0.00    +0.003 C 
ATOM      8  C   UNL     1      37.115 -21.983 -17.731  0.00  0.00    +0.004 C 
ATOM      9  C   UNL     1      33.265 -20.624 -20.406  0.00  0.00    +0.029 C 
ATOM     10  C   UNL     1      33.570 -23.106 -16.550  0.00  0.00    +0.005 C 
ATOM     11  C   UNL     1      35.731 -22.484 -20.458  0.00  0.00    +0.002 C 
ATOM     12  C   UNL     1      36.347 -23.511 -15.774  0.00  0.00    -0.023 C 
ATOM     13  C   UNL     1      33.935 -24.369 -15.775  0.00  0.00    +0.026 C 
ATOM     14  C   UNL     1      35.362 -24.398 -15.287  0.00  0.00    -0.023 C 
ATOM     15  C   UNL     1      37.650 -23.613 -15.256  0.00  0.00    +0.035 C 
ATOM     16  C   UNL     1      35.713 -25.384 -14.348  0.00  0.00    +0.035 C 
ATOM     17  C   UNL     1      37.981 -24.592 -14.316  0.00  0.00    +0.172 C 
ATOM     18  C   UNL     1      37.014 -25.481 -13.865  0.00  0.00    +0.167 C 
ENDROOT
BRANCH   5  19
ATOM     19  O   UNL     1      35.319 -19.910 -21.531  0.00  0.00    -0.384 OA
ATOM     20  H   UNL     1      35.147 -18.992 -21.792  0.00  0.00    +0.210 HD
ENDBRANCH   5  19
BRANCH  17  21
ATOM     21  O   UNL     1      39.259 -24.661 -13.845  0.00  0.00    -0.468 OA
ATOM     22  C   UNL     1      40.194 -25.411 -14.618  0.00  0.00    +0.253 C 
ENDBRANCH  17  21
BRANCH  18  23
ATOM     23  O   UNL     1      37.325 -26.442 -12.953  0.00  0.00    -0.503 OA
ATOM     24  H   UNL     1      37.052 -27.327 -13.094  0.00  0.00    +0.292 HD
ENDBRANCH  18  23
TORSDOF 3
ENDMDL
MODEL 6
REMARK VINA RESULT:      -8.2      8.100     11.376
REMARK  Name = 66414
REMARK  3 active torsions:
REMARK  status: ('A' for Active; 'I' for Inactive)
REMARK    1  A    between atoms: C_5  and  O_19
REMARK    2  A    between atoms: C_17  and  O_21
REMARK    3  A    between atoms: C_18  and  O_23
REMARK                            x       y       z     vdW  Elec       q    Type
REMARK                         _______ _______ _______ _____ _____    ______ ____
ROOT
ATOM      1  C   UNL     1      32.204  -7.891 -21.889  0.00  0.00    +0.025 C 
ATOM      2  C   UNL     1      32.441  -8.340 -23.345  0.00  0.00    +0.003 C 
ATOM      3  C   UNL     1      33.085  -9.725 -23.425  0.00  0.00    +0.004 C 
ATOM      4  C   UNL     1      32.123 -10.761 -22.769  0.00  0.00    +0.022 C 
ATOM      5  C   UNL     1      31.631  -6.485 -22.154  0.00  0.00    +0.110 C 
ATOM      6  C   UNL     1      31.224  -8.875 -21.240  0.00  0.00    +0.003 C 
ATOM      7  C   UNL     1      33.154  -7.147 -23.975  0.00  0.00    +0.003 C 
ATOM      8  C   UNL     1      31.727 -10.329 -21.331  0.00  0.00    +0.004 C 
ATOM      9  C   UNL     1      32.519  -5.927 -23.283  0.00  0.00    +0.029 C 
ATOM     10  C   UNL     1      33.376 -10.156 -24.863  0.00  0.00    +0.005 C 
ATOM     11  C   UNL     1      33.486  -7.796 -21.022  0.00  0.00    +0.002 C 
ATOM     12  C   UNL     1      32.672 -12.180 -22.890  0.00  0.00    -0.023 C 
ATOM     13  C   UNL     1      34.145 -11.474 -24.862  0.00  0.00    +0.026 C 
ATOM     14  C   UNL     1      33.593 -12.507 -23.910  0.00  0.00    -0.023 C 
ATOM     15  C   UNL     1      32.212 -13.212 -22.054  0.00  0.00    +0.035 C 
ATOM     16  C   UNL     1      34.065 -13.826 -24.031  0.00  0.00    +0.035 C 
ATOM     17  C   UNL     1      32.682 -14.521 -22.192  0.00  0.00    +0.172 C 
ATOM     18  C   UNL     1      33.611 -14.827 -23.177  0.00  0.00    +0.167 C 
ENDROOT
BRANCH   5  19
ATOM     19  O   UNL     1      31.654  -5.654 -21.009  0.00  0.00    -0.384 OA
ATOM     20  H   UNL     1      32.425  -5.876 -20.464  0.00  0.00    +0.210 HD
ENDBRANCH   5  19
BRANCH  17  21
ATOM     21  O   UNL     1      32.215 -15.489 -21.354  0.00  0.00    -0.468 OA
ATOM     22  C   UNL     1      32.444 -15.304 -19.959  0.00  0.00    +0.253 C 
ENDBRANCH  17  21
BRANCH  18  23
ATOM     23  O   UNL     1      34.081 -16.097 -23.319  0.00  0.00    -0.503 OA
ATOM     24  H   UNL     1      34.987 -16.280 -23.170  0.00  0.00    +0.292 HD
ENDBRANCH  18  23
TORSDOF 3
ENDMDL
MODEL 7
REMARK VINA RESULT:      -8.2      3.153      7.537
REMARK  Name = 66414
REMARK  3 active torsions:
REMARK  status: ('A' for Active; 'I' for Inactive)
REMARK    1  A    between atoms: C_5  and  O_19
REMARK    2  A    between atoms: C_17  and  O_21
REMARK    3  A    between atoms: C_18  and  O_23
REMARK                            x       y       z     vdW  Elec       q    Type
REMARK                         _______ _______ _______ _____ _____    ______ ____
ROOT
ATOM      1  C   UNL     1      37.001 -25.307 -13.610  0.00  0.00    +0.025 C 
ATOM      2  C   UNL     1      37.613 -24.050 -14.261  0.00  0.00    +0.003 C 
ATOM      3  C   UNL     1      36.921 -23.686 -15.575  0.00  0.00    +0.004 C 
ATOM      4  C   UNL     1      35.423 -23.375 -15.281  0.00  0.00    +0.022 C 
ATOM      5  C   UNL     1      37.934 -25.434 -12.390  0.00  0.00    +0.110 C 
ATOM      6  C   UNL     1      35.536 -25.005 -13.272  0.00  0.00    +0.003 C 
ATOM      7  C   UNL     1      39.110 -24.341 -14.260  0.00  0.00    +0.003 C 
ATOM      8  C   UNL     1      34.746 -24.543 -14.513  0.00  0.00    +0.004 C 
ATOM      9  C   UNL     1      39.335 -25.134 -12.959  0.00  0.00    +0.029 C 
ATOM     10  C   UNL     1      37.556 -22.474 -16.258  0.00  0.00    +0.005 C 
ATOM     11  C   UNL     1      37.073 -26.589 -14.478  0.00  0.00    +0.002 C 
ATOM     12  C   UNL     1      34.693 -22.923 -16.543  0.00  0.00    -0.023 C 
ATOM     13  C   UNL     1      36.916 -22.255 -17.625  0.00  0.00    +0.026 C 
ATOM     14  C   UNL     1      35.411 -22.358 -17.621  0.00  0.00    -0.023 C 
ATOM     15  C   UNL     1      33.291 -22.972 -16.630  0.00  0.00    +0.035 C 
ATOM     16  C   UNL     1      34.721 -21.914 -18.764  0.00  0.00    +0.035 C 
ATOM     17  C   UNL     1      32.619 -22.518 -17.767  0.00  0.00    +0.172 C 
ATOM     18  C   UNL     1      33.334 -21.994 -18.836  0.00  0.00    +0.167 C 
ENDROOT
BRANCH   5  19
ATOM     19  O   UNL     1      37.877 -26.708 -11.779  0.00  0.00    -0.384 OA
ATOM     20  H   UNL     1      38.773 -26.991 -11.537  0.00  0.00    +0.210 HD
ENDBRANCH   5  19
BRANCH  17  21
ATOM     21  O   UNL     1      31.258 -22.591 -17.813  0.00  0.00    -0.468 OA
ATOM     22  C   UNL     1      30.579 -22.789 -16.575  0.00  0.00    +0.253 C 
ENDBRANCH  17  21
BRANCH  18  23
ATOM     23  O   UNL     1      32.692 -21.552 -19.953  0.00  0.00    -0.503 OA
ATOM     24  H   UNL     1      32.131 -20.803 -19.905  0.00  0.00    +0.292 HD
ENDBRANCH  18  23
TORSDOF 3
ENDMDL
MODEL 8
REMARK VINA RESULT:      -8.0      2.290      7.275
REMARK  Name = 66414
REMARK  3 active torsions:
REMARK  status: ('A' for Active; 'I' for Inactive)
REMARK    1  A    between atoms: C_5  and  O_19
REMARK    2  A    between atoms: C_17  and  O_21
REMARK    3  A    between atoms: C_18  and  O_23
REMARK                            x       y       z     vdW  Elec       q    Type
REMARK                         _______ _______ _______ _____ _____    ______ ____
ROOT
ATOM      1  C   UNL     1      37.050 -23.383 -14.918  0.00  0.00    +0.025 C 
ATOM      2  C   UNL     1      35.777 -24.072 -15.450  0.00  0.00    +0.003 C 
ATOM      3  C   UNL     1      34.952 -23.147 -16.345  0.00  0.00    +0.004 C 
ATOM      4  C   UNL     1      35.815 -22.748 -17.580  0.00  0.00    +0.022 C 
ATOM      5  C   UNL     1      37.595 -24.520 -14.031  0.00  0.00    +0.110 C 
ATOM      6  C   UNL     1      37.934 -23.021 -16.117  0.00  0.00    +0.003 C 
ATOM      7  C   UNL     1      35.140 -24.661 -14.195  0.00  0.00    +0.003 C 
ATOM      8  C   UNL     1      37.180 -22.150 -17.142  0.00  0.00    +0.004 C 
ATOM      9  C   UNL     1      36.342 -25.077 -13.327  0.00  0.00    +0.029 C 
ATOM     10  C   UNL     1      33.658 -23.801 -16.833  0.00  0.00    +0.005 C 
ATOM     11  C   UNL     1      36.794 -22.112 -14.067  0.00  0.00    +0.002 C 
ATOM     12  C   UNL     1      35.018 -21.888 -18.558  0.00  0.00    -0.023 C 
ATOM     13  C   UNL     1      32.819 -22.781 -17.597  0.00  0.00    +0.026 C 
ATOM     14  C   UNL     1      33.606 -21.950 -18.579  0.00  0.00    -0.023 C 
ATOM     15  C   UNL     1      35.663 -21.088 -19.516  0.00  0.00    +0.035 C 
ATOM     16  C   UNL     1      32.887 -21.179 -19.509  0.00  0.00    +0.035 C 
ATOM     17  C   UNL     1      34.935 -20.335 -20.441  0.00  0.00    +0.172 C 
ATOM     18  C   UNL     1      33.547 -20.376 -20.434  0.00  0.00    +0.167 C 
ENDROOT
BRANCH   5  19
ATOM     19  O   UNL     1      38.567 -24.080 -13.102  0.00  0.00    -0.384 OA
ATOM     20  H   UNL     1      38.488 -23.120 -12.983  0.00  0.00    +0.210 HD
ENDBRANCH   5  19
BRANCH  17  21
ATOM     21  O   UNL     1      35.601 -19.565 -21.347  0.00  0.00    -0.468 OA
ATOM     22  C   UNL     1      35.789 -18.191 -21.017  0.00  0.00    +0.253 C 
ENDBRANCH  17  21
BRANCH  18  23
ATOM     23  O   UNL     1      32.826 -19.643 -21.326  0.00  0.00    -0.503 OA
ATOM     24  H   UNL     1      33.261 -19.191 -22.021  0.00  0.00    +0.292 HD
ENDBRANCH  18  23
TORSDOF 3
ENDMDL
MODEL 9
REMARK VINA RESULT:      -7.8      4.718      8.935
REMARK  Name = 66414
REMARK  3 active torsions:
REMARK  status: ('A' for Active; 'I' for Inactive)
REMARK    1  A    between atoms: C_5  and  O_19
REMARK    2  A    between atoms: C_17  and  O_21
REMARK    3  A    between atoms: C_18  and  O_23
REMARK                            x       y       z     vdW  Elec       q    Type
REMARK                         _______ _______ _______ _____ _____    ______ ____
ROOT
ATOM      1  C   UNL     1      34.857 -17.647 -21.537  0.00  0.00    +0.025 C 
ATOM      2  C   UNL     1      35.040 -16.760 -22.785  0.00  0.00    +0.003 C 
ATOM      3  C   UNL     1      33.948 -15.696 -22.901  0.00  0.00    +0.004 C 
ATOM      4  C   UNL     1      34.025 -14.765 -21.653  0.00  0.00    +0.022 C 
ATOM      5  C   UNL     1      36.034 -18.619 -21.749  0.00  0.00    +0.110 C 
ATOM      6  C   UNL     1      34.973 -16.755 -20.296  0.00  0.00    +0.003 C 
ATOM      7  C   UNL     1      35.223 -17.768 -23.916  0.00  0.00    +0.003 C 
ATOM      8  C   UNL     1      33.971 -15.585 -20.335  0.00  0.00    +0.004 C 
ATOM      9  C   UNL     1      35.997 -18.927 -23.259  0.00  0.00    +0.029 C 
ATOM     10  C   UNL     1      34.087 -14.846 -24.165  0.00  0.00    +0.005 C 
ATOM     11  C   UNL     1      33.518 -18.427 -21.485  0.00  0.00    +0.002 C 
ATOM     12  C   UNL     1      33.012 -13.627 -21.749  0.00  0.00    -0.023 C 
ATOM     13  C   UNL     1      32.892 -13.906 -24.291  0.00  0.00    +0.026 C 
ATOM     14  C   UNL     1      32.521 -13.208 -23.006  0.00  0.00    -0.023 C 
ATOM     15  C   UNL     1      32.612 -12.911 -20.606  0.00  0.00    +0.035 C 
ATOM     16  C   UNL     1      31.615 -12.136 -23.081  0.00  0.00    +0.035 C 
ATOM     17  C   UNL     1      31.718 -11.841 -20.698  0.00  0.00    +0.172 C 
ATOM     18  C   UNL     1      31.216 -11.457 -21.934  0.00  0.00    +0.167 C 
ENDROOT
BRANCH   5  19
ATOM     19  O   UNL     1      35.928 -19.795 -20.971  0.00  0.00    -0.384 OA
ATOM     20  H   UNL     1      36.612 -19.790 -20.283  0.00  0.00    +0.210 HD
ENDBRANCH   5  19
BRANCH  17  21
ATOM     21  O   UNL     1      31.350 -11.180 -19.564  0.00  0.00    -0.468 OA
ATOM     22  C   UNL     1      32.085 -10.003 -19.233  0.00  0.00    +0.253 C 
ENDBRANCH  17  21
BRANCH  18  23
ATOM     23  O   UNL     1      30.340 -10.419 -22.036  0.00  0.00    -0.503 OA
ATOM     24  H   UNL     1      30.299  -9.918 -22.827  0.00  0.00    +0.292 HD
ENDBRANCH  18  23
TORSDOF 3
ENDMDL
