MODEL 1
REMARK VINA RESULT:      -6.0      0.000      0.000
REMARK  Name = 92092
REMARK  10 active torsions:
REMARK  status: ('A' for Active; 'I' for Inactive)
REMARK    1  A    between atoms: C_1  and  O_2
REMARK    2  A    between atoms: C_1  and  C_4
REMARK    3  A    between atoms: C_1  and  C_10
REMARK    4  A    between atoms: C_4  and  O_5
REMARK    5  A    between atoms: C_4  and  C_7
REMARK    6  A    between atoms: C_7  and  O_8
REMARK    7  A    between atoms: C_10  and  O_11
REMARK    8  A    between atoms: C_10  and  C_14
REMARK    9  A    between atoms: C_14  and  C_15
REMARK   10  A    between atoms: C_15  and  O_16
REMARK                            x       y       z     vdW  Elec       q    Type
REMARK                         _______ _______ _______ _____ _____    ______ ____
ROOT
ATOM      1  C   UNL     1      37.836 -24.925 -13.913  0.00  0.00    +0.174 C 
ENDROOT
BRANCH   1   2
ATOM      2  O   UNL     1      38.108 -23.569 -14.255  0.00  0.00    -0.379 OA
ATOM      3  H   UNL     1      37.445 -23.257 -14.891  0.00  0.00    +0.211 HD
ENDBRANCH   1   2
BRANCH   1   4
ATOM      4  C   UNL     1      38.821 -25.842 -14.661  0.00  0.00    +0.169 C 
BRANCH   4   5
ATOM      5  O   UNL     1      38.353 -27.191 -14.626  0.00  0.00    -0.379 OA
ATOM      6  H   UNL     1      38.670 -27.622 -13.818  0.00  0.00    +0.211 HD
ENDBRANCH   4   5
BRANCH   4   7
ATOM      7  C   UNL     1      40.215 -25.810 -14.034  0.00  0.00    +0.169 C 
BRANCH   7   8
ATOM      8  O   UNL     1      40.973 -24.776 -14.653  0.00  0.00    -0.379 OA
ATOM      9  H   UNL     1      41.610 -24.416 -14.016  0.00  0.00    +0.211 HD
ENDBRANCH   7   8
ENDBRANCH   4   7
ENDBRANCH   1   4
BRANCH   1  10
ATOM     10  C   UNL     1      37.791 -25.097 -12.387  0.00  0.00    +0.200 C 
BRANCH  10  11
ATOM     11  O   UNL     1      37.145 -26.330 -12.095  0.00  0.00    -0.375 OA
ATOM     12  H   UNL     1      37.037 -26.420 -11.136  0.00  0.00    +0.211 HD
ENDBRANCH  10  11
BRANCH  10  14
ATOM     13  O   UNL     1      37.666 -22.987 -11.222  0.00  0.00    -0.291 OA
ATOM     14  C   UNL     1      37.069 -23.989 -11.621  0.00  0.00    +0.209 C 
BRANCH  14  15
ATOM     15  C   UNL     1      35.578 -24.159 -11.404  0.00  0.00    +0.205 C 
BRANCH  15  16
ATOM     16  O   UNL     1      35.335 -25.022 -10.312  0.00  0.00    -0.375 OA
ATOM     17  H   UNL     1      34.546 -25.558 -10.493  0.00  0.00    +0.211 HD
ENDBRANCH  15  16
ENDBRANCH  14  15
ENDBRANCH  10  14
ENDBRANCH   1  10
TORSDOF 10
ENDMDL
MODEL 2
REMARK VINA RESULT:      -5.8      0.832      4.954
REMARK  Name = 92092
REMARK  10 active torsions:
REMARK  status: ('A' for Active; 'I' for Inactive)
REMARK    1  A    between atoms: C_1  and  O_2
REMARK    2  A    between atoms: C_1  and  C_4
REMARK    3  A    between atoms: C_1  and  C_10
REMARK    4  A    between atoms: C_4  and  O_5
REMARK    5  A    between atoms: C_4  and  C_7
REMARK    6  A    between atoms: C_7  and  O_8
REMARK    7  A    between atoms: C_10  and  O_11
REMARK    8  A    between atoms: C_10  and  C_14
REMARK    9  A    between atoms: C_14  and  C_15
REMARK   10  A    between atoms: C_15  and  O_16
REMARK                            x       y       z     vdW  Elec       q    Type
REMARK                         _______ _______ _______ _____ _____    ______ ____
ROOT
ATOM      1  C   UNL     1      37.054 -25.007 -12.807  0.00  0.00    +0.174 C 
ENDROOT
BRANCH   1   2
ATOM      2  O   UNL     1      37.047 -26.132 -11.931  0.00  0.00    -0.379 OA
ATOM      3  H   UNL     1      37.097 -25.825 -11.012  0.00  0.00    +0.211 HD
ENDBRANCH   1   2
BRANCH   1   4
ATOM      4  C   UNL     1      36.547 -23.770 -12.044  0.00  0.00    +0.169 C 
BRANCH   4   5
ATOM      5  O   UNL     1      37.642 -23.099 -11.420  0.00  0.00    -0.379 OA
ATOM      6  H   UNL     1      37.304 -22.442 -10.793  0.00  0.00    +0.211 HD
ENDBRANCH   4   5
BRANCH   4   7
ATOM      7  C   UNL     1      35.541 -24.146 -10.955  0.00  0.00    +0.169 C 
BRANCH   7   8
ATOM      8  O   UNL     1      36.213 -24.172  -9.700  0.00  0.00    -0.379 OA
ATOM      9  H   UNL     1      37.070 -24.614  -9.801  0.00  0.00    +0.211 HD
ENDBRANCH   7   8
ENDBRANCH   4   7
ENDBRANCH   1   4
BRANCH   1  10
ATOM     10  C   UNL     1      38.427 -24.860 -13.481  0.00  0.00    +0.200 C 
BRANCH  10  11
ATOM     11  O   UNL     1      38.351 -23.793 -14.419  0.00  0.00    -0.375 OA
ATOM     12  H   UNL     1      38.686 -22.980 -14.011  0.00  0.00    +0.211 HD
ENDBRANCH  10  11
BRANCH  10  14
ATOM     13  O   UNL     1      38.205 -27.068 -14.429  0.00  0.00    -0.291 OA
ATOM     14  C   UNL     1      38.937 -26.100 -14.213  0.00  0.00    +0.209 C 
BRANCH  14  15
ATOM     15  C   UNL     1      40.376 -26.075 -14.693  0.00  0.00    +0.205 C 
BRANCH  15  16
ATOM     16  O   UNL     1      40.428 -25.778 -16.073  0.00  0.00    -0.375 OA
ATOM     17  H   UNL     1      40.754 -24.872 -16.197  0.00  0.00    +0.211 HD
ENDBRANCH  15  16
ENDBRANCH  14  15
ENDBRANCH  10  14
ENDBRANCH   1  10
TORSDOF 10
ENDMDL
MODEL 3
REMARK VINA RESULT:      -5.7      1.694      2.765
REMARK  Name = 92092
REMARK  10 active torsions:
REMARK  status: ('A' for Active; 'I' for Inactive)
REMARK    1  A    between atoms: C_1  and  O_2
REMARK    2  A    between atoms: C_1  and  C_4
REMARK    3  A    between atoms: C_1  and  C_10
REMARK    4  A    between atoms: C_4  and  O_5
REMARK    5  A    between atoms: C_4  and  C_7
REMARK    6  A    between atoms: C_7  and  O_8
REMARK    7  A    between atoms: C_10  and  O_11
REMARK    8  A    between atoms: C_10  and  C_14
REMARK    9  A    between atoms: C_14  and  C_15
REMARK   10  A    between atoms: C_15  and  O_16
REMARK                            x       y       z     vdW  Elec       q    Type
REMARK                         _______ _______ _______ _____ _____    ______ ____
ROOT
ATOM      1  C   UNL     1      37.960 -25.911 -14.185  0.00  0.00    +0.174 C 
ENDROOT
BRANCH   1   2
ATOM      2  O   UNL     1      39.016 -26.770 -14.609  0.00  0.00    -0.379 OA
ATOM      3  H   UNL     1      38.816 -27.682 -14.344  0.00  0.00    +0.211 HD
ENDBRANCH   1   2
BRANCH   1   4
ATOM      4  C   UNL     1      36.638 -26.384 -14.817  0.00  0.00    +0.169 C 
BRANCH   4   5
ATOM      5  O   UNL     1      36.902 -27.063 -16.045  0.00  0.00    -0.379 OA
ATOM      6  H   UNL     1      37.423 -26.489 -16.626  0.00  0.00    +0.211 HD
ENDBRANCH   4   5
BRANCH   4   7
ATOM      7  C   UNL     1      35.702 -25.213 -15.117  0.00  0.00    +0.169 C 
BRANCH   7   8
ATOM      8  O   UNL     1      34.699 -25.157 -14.107  0.00  0.00    -0.379 OA
ATOM      9  H   UNL     1      35.101 -24.884 -13.268  0.00  0.00    +0.211 HD
ENDBRANCH   7   8
ENDBRANCH   4   7
ENDBRANCH   1   4
BRANCH   1  10
ATOM     10  C   UNL     1      37.959 -25.777 -12.654  0.00  0.00    +0.200 C 
BRANCH  10  11
ATOM     11  O   UNL     1      36.791 -26.415 -12.152  0.00  0.00    -0.375 OA
ATOM     12  H   UNL     1      36.429 -25.894 -11.418  0.00  0.00    +0.211 HD
ENDBRANCH  10  11
BRANCH  10  14
ATOM     13  O   UNL     1      39.020 -23.675 -12.125  0.00  0.00    -0.291 OA
ATOM     14  C   UNL     1      37.987 -24.346 -12.119  0.00  0.00    +0.209 C 
BRANCH  14  15
ATOM     15  C   UNL     1      36.677 -23.774 -11.611  0.00  0.00    +0.205 C 
BRANCH  15  16
ATOM     16  O   UNL     1      36.485 -24.115 -10.253  0.00  0.00    -0.375 OA
ATOM     17  H   UNL     1      37.013 -23.522  -9.694  0.00  0.00    +0.211 HD
ENDBRANCH  15  16
ENDBRANCH  14  15
ENDBRANCH  10  14
ENDBRANCH   1  10
TORSDOF 10
ENDMDL
MODEL 4
REMARK VINA RESULT:      -5.6      1.994      4.976
REMARK  Name = 92092
REMARK  10 active torsions:
REMARK  status: ('A' for Active; 'I' for Inactive)
REMARK    1  A    between atoms: C_1  and  O_2
REMARK    2  A    between atoms: C_1  and  C_4
REMARK    3  A    between atoms: C_1  and  C_10
REMARK    4  A    between atoms: C_4  and  O_5
REMARK    5  A    between atoms: C_4  and  C_7
REMARK    6  A    between atoms: C_7  and  O_8
REMARK    7  A    between atoms: C_10  and  O_11
REMARK    8  A    between atoms: C_10  and  C_14
REMARK    9  A    between atoms: C_14  and  C_15
REMARK   10  A    between atoms: C_15  and  O_16
REMARK                            x       y       z     vdW  Elec       q    Type
REMARK                         _______ _______ _______ _____ _____    ______ ____
ROOT
ATOM      1  C   UNL     1      36.529 -24.509 -14.891  0.00  0.00    +0.174 C 
ENDROOT
BRANCH   1   2
ATOM      2  O   UNL     1      36.264 -25.757 -15.525  0.00  0.00    -0.379 OA
ATOM      3  H   UNL     1      35.431 -25.698 -16.019  0.00  0.00    +0.211 HD
ENDBRANCH   1   2
BRANCH   1   4
ATOM      4  C   UNL     1      35.595 -24.350 -13.677  0.00  0.00    +0.169 C 
BRANCH   4   5
ATOM      5  O   UNL     1      35.768 -25.449 -12.783  0.00  0.00    -0.379 OA
ATOM      6  H   UNL     1      35.346 -26.238 -13.155  0.00  0.00    +0.211 HD
ENDBRANCH   4   5
BRANCH   4   7
ATOM      7  C   UNL     1      34.124 -24.307 -14.094  0.00  0.00    +0.169 C 
BRANCH   7   8
ATOM      8  O   UNL     1      33.334 -24.855 -13.043  0.00  0.00    -0.379 OA
ATOM      9  H   UNL     1      32.617 -25.387 -13.422  0.00  0.00    +0.211 HD
ENDBRANCH   7   8
ENDBRANCH   4   7
ENDBRANCH   1   4
BRANCH   1  10
ATOM     10  C   UNL     1      38.031 -24.360 -14.603  0.00  0.00    +0.200 C 
BRANCH  10  11
ATOM     11  O   UNL     1      38.635 -23.701 -15.709  0.00  0.00    -0.375 OA
ATOM     12  H   UNL     1      37.965 -23.181 -16.181  0.00  0.00    +0.211 HD
ENDBRANCH  10  11
BRANCH  10  14
ATOM     13  O   UNL     1      38.220 -26.662 -13.906  0.00  0.00    -0.291 OA
ATOM     14  C   UNL     1      38.786 -25.664 -14.356  0.00  0.00    +0.209 C 
BRANCH  14  15
ATOM     15  C   UNL     1      40.258 -25.690 -14.723  0.00  0.00    +0.205 C 
BRANCH  15  16
ATOM     16  O   UNL     1      40.415 -25.942 -16.104  0.00  0.00    -0.375 OA
ATOM     17  H   UNL     1      41.216 -25.496 -16.425  0.00  0.00    +0.211 HD
ENDBRANCH  15  16
ENDBRANCH  14  15
ENDBRANCH  10  14
ENDBRANCH   1  10
TORSDOF 10
ENDMDL
MODEL 5
REMARK VINA RESULT:      -5.5      1.372      2.454
REMARK  Name = 92092
REMARK  10 active torsions:
REMARK  status: ('A' for Active; 'I' for Inactive)
REMARK    1  A    between atoms: C_1  and  O_2
REMARK    2  A    between atoms: C_1  and  C_4
REMARK    3  A    between atoms: C_1  and  C_10
REMARK    4  A    between atoms: C_4  and  O_5
REMARK    5  A    between atoms: C_4  and  C_7
REMARK    6  A    between atoms: C_7  and  O_8
REMARK    7  A    between atoms: C_10  and  O_11
REMARK    8  A    between atoms: C_10  and  C_14
REMARK    9  A    between atoms: C_14  and  C_15
REMARK   10  A    between atoms: C_15  and  O_16
REMARK                            x       y       z     vdW  Elec       q    Type
REMARK                         _______ _______ _______ _____ _____    ______ ____
ROOT
ATOM      1  C   UNL     1      38.026 -25.447 -13.141  0.00  0.00    +0.174 C 
ENDROOT
BRANCH   1   2
ATOM      2  O   UNL     1      38.062 -25.904 -11.791  0.00  0.00    -0.379 OA
ATOM      3  H   UNL     1      37.416 -25.407 -11.265  0.00  0.00    +0.211 HD
ENDBRANCH   1   2
BRANCH   1   4
ATOM      4  C   UNL     1      37.617 -26.614 -14.058  0.00  0.00    +0.169 C 
BRANCH   4   5
ATOM      5  O   UNL     1      38.769 -27.144 -14.714  0.00  0.00    -0.379 OA
ATOM      6  H   UNL     1      39.208 -26.440 -15.216  0.00  0.00    +0.211 HD
ENDBRANCH   4   5
BRANCH   4   7
ATOM      7  C   UNL     1      36.624 -26.171 -15.133  0.00  0.00    +0.169 C 
BRANCH   7   8
ATOM      8  O   UNL     1      36.666 -27.103 -16.209  0.00  0.00    -0.379 OA
ATOM      9  H   UNL     1      36.791 -27.998 -15.857  0.00  0.00    +0.211 HD
ENDBRANCH   7   8
ENDBRANCH   4   7
ENDBRANCH   1   4
BRANCH   1  10
ATOM     10  C   UNL     1      37.171 -24.176 -13.256  0.00  0.00    +0.200 C 
BRANCH  10  11
ATOM     11  O   UNL     1      37.937 -23.182 -13.926  0.00  0.00    -0.375 OA
ATOM     12  H   UNL     1      37.650 -22.303 -13.635  0.00  0.00    +0.211 HD
ENDBRANCH  10  11
BRANCH  10  14
ATOM     13  O   UNL     1      37.384 -22.820 -11.271  0.00  0.00    -0.291 OA
ATOM     14  C   UNL     1      36.684 -23.589 -11.933  0.00  0.00    +0.209 C 
BRANCH  14  15
ATOM     15  C   UNL     1      35.284 -23.965 -11.485  0.00  0.00    +0.205 C 
BRANCH  15  16
ATOM     16  O   UNL     1      35.327 -25.088 -10.628  0.00  0.00    -0.375 OA
ATOM     17  H   UNL     1      34.423 -25.393 -10.450  0.00  0.00    +0.211 HD
ENDBRANCH  15  16
ENDBRANCH  14  15
ENDBRANCH  10  14
ENDBRANCH   1  10
TORSDOF 10
ENDMDL
MODEL 6
REMARK VINA RESULT:      -5.3      2.500      3.950
REMARK  Name = 92092
REMARK  10 active torsions:
REMARK  status: ('A' for Active; 'I' for Inactive)
REMARK    1  A    between atoms: C_1  and  O_2
REMARK    2  A    between atoms: C_1  and  C_4
REMARK    3  A    between atoms: C_1  and  C_10
REMARK    4  A    between atoms: C_4  and  O_5
REMARK    5  A    between atoms: C_4  and  C_7
REMARK    6  A    between atoms: C_7  and  O_8
REMARK    7  A    between atoms: C_10  and  O_11
REMARK    8  A    between atoms: C_10  and  C_14
REMARK    9  A    between atoms: C_14  and  C_15
REMARK   10  A    between atoms: C_15  and  O_16
REMARK                            x       y       z     vdW  Elec       q    Type
REMARK                         _______ _______ _______ _____ _____    ______ ____
ROOT
ATOM      1  C   UNL     1      37.132 -23.738 -15.120  0.00  0.00    +0.174 C 
ENDROOT
BRANCH   1   2
ATOM      2  O   UNL     1      38.428 -23.617 -15.701  0.00  0.00    -0.379 OA
ATOM      3  H   UNL     1      38.908 -22.892 -15.270  0.00  0.00    +0.211 HD
ENDBRANCH   1   2
BRANCH   1   4
ATOM      4  C   UNL     1      36.140 -22.866 -15.912  0.00  0.00    +0.169 C 
BRANCH   4   5
ATOM      5  O   UNL     1      35.109 -23.683 -16.466  0.00  0.00    -0.379 OA
ATOM      6  H   UNL     1      35.004 -23.478 -17.407  0.00  0.00    +0.211 HD
ENDBRANCH   4   5
BRANCH   4   7
ATOM      7  C   UNL     1      36.825 -22.127 -17.062  0.00  0.00    +0.169 C 
BRANCH   7   8
ATOM      8  O   UNL     1      37.484 -20.977 -16.541  0.00  0.00    -0.379 OA
ATOM      9  H   UNL     1      38.205 -21.255 -15.955  0.00  0.00    +0.211 HD
ENDBRANCH   7   8
ENDBRANCH   4   7
ENDBRANCH   1   4
BRANCH   1  10
ATOM     10  C   UNL     1      36.746 -25.217 -14.967  0.00  0.00    +0.200 C 
BRANCH  10  11
ATOM     11  O   UNL     1      35.491 -25.284 -14.302  0.00  0.00    -0.375 OA
ATOM     12  H   UNL     1      34.969 -26.015 -14.670  0.00  0.00    +0.211 HD
ENDBRANCH  10  11
BRANCH  10  14
ATOM     13  O   UNL     1      38.425 -26.938 -14.753  0.00  0.00    -0.291 OA
ATOM     14  C   UNL     1      37.741 -26.079 -14.192  0.00  0.00    +0.209 C 
BRANCH  14  15
ATOM     15  C   UNL     1      37.878 -25.808 -12.706  0.00  0.00    +0.205 C 
BRANCH  15  16
ATOM     16  O   UNL     1      36.847 -26.457 -11.991  0.00  0.00    -0.375 OA
ATOM     17  H   UNL     1      35.991 -26.255 -12.402  0.00  0.00    +0.211 HD
ENDBRANCH  15  16
ENDBRANCH  14  15
ENDBRANCH  10  14
ENDBRANCH   1  10
TORSDOF 10
ENDMDL
MODEL 7
REMARK VINA RESULT:      -5.3      2.157      4.392
REMARK  Name = 92092
REMARK  10 active torsions:
REMARK  status: ('A' for Active; 'I' for Inactive)
REMARK    1  A    between atoms: C_1  and  O_2
REMARK    2  A    between atoms: C_1  and  C_4
REMARK    3  A    between atoms: C_1  and  C_10
REMARK    4  A    between atoms: C_4  and  O_5
REMARK    5  A    between atoms: C_4  and  C_7
REMARK    6  A    between atoms: C_7  and  O_8
REMARK    7  A    between atoms: C_10  and  O_11
REMARK    8  A    between atoms: C_10  and  C_14
REMARK    9  A    between atoms: C_14  and  C_15
REMARK   10  A    between atoms: C_15  and  O_16
REMARK                            x       y       z     vdW  Elec       q    Type
REMARK                         _______ _______ _______ _____ _____    ______ ____
ROOT
ATOM      1  C   UNL     1      37.554 -23.788 -14.445  0.00  0.00    +0.174 C 
ENDROOT
BRANCH   1   2
ATOM      2  O   UNL     1      38.320 -23.665 -15.641  0.00  0.00    -0.379 OA
ATOM      3  H   UNL     1      38.381 -24.530 -16.076  0.00  0.00    +0.211 HD
ENDBRANCH   1   2
BRANCH   1   4
ATOM      4  C   UNL     1      36.081 -24.043 -14.812  0.00  0.00    +0.169 C 
BRANCH   4   5
ATOM      5  O   UNL     1      35.983 -25.176 -15.674  0.00  0.00    -0.379 OA
ATOM      6  H   UNL     1      36.724 -25.173 -16.298  0.00  0.00    +0.211 HD
ENDBRANCH   4   5
BRANCH   4   7
ATOM      7  C   UNL     1      35.460 -22.846 -15.533  0.00  0.00    +0.169 C 
BRANCH   7   8
ATOM      8  O   UNL     1      35.892 -22.854 -16.890  0.00  0.00    -0.379 OA
ATOM      9  H   UNL     1      35.944 -21.942 -17.218  0.00  0.00    +0.211 HD
ENDBRANCH   7   8
ENDBRANCH   4   7
ENDBRANCH   1   4
BRANCH   1  10
ATOM     10  C   UNL     1      38.195 -24.816 -13.500  0.00  0.00    +0.200 C 
BRANCH  10  11
ATOM     11  O   UNL     1      39.082 -24.128 -12.627  0.00  0.00    -0.375 OA
ATOM     12  H   UNL     1      39.996 -24.263 -12.921  0.00  0.00    +0.211 HD
ENDBRANCH  10  11
BRANCH  10  14
ATOM     13  O   UNL     1      38.406 -26.820 -14.828  0.00  0.00    -0.291 OA
ATOM     14  C   UNL     1      38.975 -25.939 -14.181  0.00  0.00    +0.209 C 
BRANCH  14  15
ATOM     15  C   UNL     1      40.487 -25.903 -14.056  0.00  0.00    +0.205 C 
BRANCH  15  16
ATOM     16  O   UNL     1      41.005 -24.749 -14.685  0.00  0.00    -0.375 OA
ATOM     17  H   UNL     1      40.416 -24.484 -15.409  0.00  0.00    +0.211 HD
ENDBRANCH  15  16
ENDBRANCH  14  15
ENDBRANCH  10  14
ENDBRANCH   1  10
TORSDOF 10
ENDMDL
MODEL 8
REMARK VINA RESULT:      -5.2      2.244      3.141
REMARK  Name = 92092
REMARK  10 active torsions:
REMARK  status: ('A' for Active; 'I' for Inactive)
REMARK    1  A    between atoms: C_1  and  O_2
REMARK    2  A    between atoms: C_1  and  C_4
REMARK    3  A    between atoms: C_1  and  C_10
REMARK    4  A    between atoms: C_4  and  O_5
REMARK    5  A    between atoms: C_4  and  C_7
REMARK    6  A    between atoms: C_7  and  O_8
REMARK    7  A    between atoms: C_10  and  O_11
REMARK    8  A    between atoms: C_10  and  C_14
REMARK    9  A    between atoms: C_14  and  C_15
REMARK   10  A    between atoms: C_15  and  O_16
REMARK                            x       y       z     vdW  Elec       q    Type
REMARK                         _______ _______ _______ _____ _____    ______ ____
ROOT
ATOM      1  C   UNL     1      37.871 -25.823 -14.236  0.00  0.00    +0.174 C 
ENDROOT
BRANCH   1   2
ATOM      2  O   UNL     1      38.145 -26.139 -15.598  0.00  0.00    -0.379 OA
ATOM      3  H   UNL     1      37.973 -25.361 -16.151  0.00  0.00    +0.211 HD
ENDBRANCH   1   2
BRANCH   1   4
ATOM      4  C   UNL     1      39.196 -25.539 -13.506  0.00  0.00    +0.169 C 
BRANCH   4   5
ATOM      5  O   UNL     1      39.107 -24.301 -12.801  0.00  0.00    -0.379 OA
ATOM      6  H   UNL     1      38.893 -24.473 -11.871  0.00  0.00    +0.211 HD
ENDBRANCH   4   5
BRANCH   4   7
ATOM      7  C   UNL     1      40.372 -25.444 -14.479  0.00  0.00    +0.169 C 
BRANCH   7   8
ATOM      8  O   UNL     1      40.968 -26.732 -14.606  0.00  0.00    -0.379 OA
ATOM      9  H   UNL     1      41.880 -26.699 -14.277  0.00  0.00    +0.211 HD
ENDBRANCH   7   8
ENDBRANCH   4   7
ENDBRANCH   1   4
BRANCH   1  10
ATOM     10  C   UNL     1      36.807 -24.718 -14.144  0.00  0.00    +0.200 C 
BRANCH  10  11
ATOM     11  O   UNL     1      35.526 -25.320 -14.281  0.00  0.00    -0.375 OA
ATOM     12  H   UNL     1      35.004 -24.824 -14.932  0.00  0.00    +0.211 HD
ENDBRANCH  10  11
BRANCH  10  14
ATOM     13  O   UNL     1      38.019 -23.166 -15.538  0.00  0.00    -0.291 OA
ATOM     14  C   UNL     1      36.923 -23.605 -15.183  0.00  0.00    +0.209 C 
BRANCH  14  15
ATOM     15  C   UNL     1      35.632 -23.087 -15.787  0.00  0.00    +0.205 C 
BRANCH  15  16
ATOM     16  O   UNL     1      34.809 -22.529 -14.782  0.00  0.00    -0.375 OA
ATOM     17  H   UNL     1      34.585 -23.214 -14.132  0.00  0.00    +0.211 HD
ENDBRANCH  15  16
ENDBRANCH  14  15
ENDBRANCH  10  14
ENDBRANCH   1  10
TORSDOF 10
ENDMDL
MODEL 9
REMARK VINA RESULT:      -5.0     12.338     13.938
REMARK  Name = 92092
REMARK  10 active torsions:
REMARK  status: ('A' for Active; 'I' for Inactive)
REMARK    1  A    between atoms: C_1  and  O_2
REMARK    2  A    between atoms: C_1  and  C_4
REMARK    3  A    between atoms: C_1  and  C_10
REMARK    4  A    between atoms: C_4  and  O_5
REMARK    5  A    between atoms: C_4  and  C_7
REMARK    6  A    between atoms: C_7  and  O_8
REMARK    7  A    between atoms: C_10  and  O_11
REMARK    8  A    between atoms: C_10  and  C_14
REMARK    9  A    between atoms: C_14  and  C_15
REMARK   10  A    between atoms: C_15  and  O_16
REMARK                            x       y       z     vdW  Elec       q    Type
REMARK                         _______ _______ _______ _____ _____    ______ ____
ROOT
ATOM      1  C   UNL     1      34.952 -17.805 -22.947  0.00  0.00    +0.174 C 
ENDROOT
BRANCH   1   2
ATOM      2  O   UNL     1      36.303 -18.214 -23.140  0.00  0.00    -0.379 OA
ATOM      3  H   UNL     1      36.369 -19.175 -23.023  0.00  0.00    +0.211 HD
ENDBRANCH   1   2
BRANCH   1   4
ATOM      4  C   UNL     1      34.570 -18.001 -21.468  0.00  0.00    +0.169 C 
BRANCH   4   5
ATOM      5  O   UNL     1      35.240 -17.034 -20.660  0.00  0.00    -0.379 OA
ATOM      6  H   UNL     1      34.713 -16.854 -19.867  0.00  0.00    +0.211 HD
ENDBRANCH   4   5
BRANCH   4   7
ATOM      7  C   UNL     1      34.959 -19.391 -20.961  0.00  0.00    +0.169 C 
BRANCH   7   8
ATOM      8  O   UNL     1      36.252 -19.317 -20.368  0.00  0.00    -0.379 OA
ATOM      9  H   UNL     1      36.927 -19.497 -21.042  0.00  0.00    +0.211 HD
ENDBRANCH   7   8
ENDBRANCH   4   7
ENDBRANCH   1   4
BRANCH   1  10
ATOM     10  C   UNL     1      34.732 -16.393 -23.511  0.00  0.00    +0.200 C 
BRANCH  10  11
ATOM     11  O   UNL     1      33.676 -15.780 -22.782  0.00  0.00    -0.375 OA
ATOM     12  H   UNL     1      33.847 -15.867 -21.831  0.00  0.00    +0.211 HD
ENDBRANCH  10  11
BRANCH  10  14
ATOM     13  O   UNL     1      34.824 -17.150 -25.801  0.00  0.00    -0.291 OA
ATOM     14  C   UNL     1      34.384 -16.325 -24.998  0.00  0.00    +0.209 C 
BRANCH  14  15
ATOM     15  C   UNL     1      33.445 -15.218 -25.437  0.00  0.00    +0.205 C 
BRANCH  15  16
ATOM     16  O   UNL     1      33.484 -15.069 -26.842  0.00  0.00    -0.375 OA
ATOM     17  H   UNL     1      34.161 -14.414 -27.078  0.00  0.00    +0.211 HD
ENDBRANCH  15  16
ENDBRANCH  14  15
ENDBRANCH  10  14
ENDBRANCH   1  10
TORSDOF 10
ENDMDL
