MODEL 1
REMARK VINA RESULT:      -7.4      0.000      0.000
REMARK  Name = 5282031
REMARK  2 active torsions:
REMARK  status: ('A' for Active; 'I' for Inactive)
REMARK    1  A    between atoms: C_5  and  O_19
REMARK    2  A    between atoms: C_10  and  C_21
REMARK                            x       y       z     vdW  Elec       q    Type
REMARK                         _______ _______ _______ _____ _____    ______ ____
ROOT
ATOM      1  O   UNL     1      32.607 -12.655 -20.993  0.00  0.00    -0.452 OA
ATOM      2  O   UNL     1      30.429 -11.890 -21.007  0.00  0.00    -0.250 OA
ATOM      3  O   UNL     1      33.158 -11.819 -26.047  0.00  0.00    -0.291 OA
ATOM      4  C   UNL     1      32.124  -9.588 -23.048  0.00  0.00    +0.028 C 
ATOM      5  C   UNL     1      31.789  -9.282 -21.557  0.00  0.00    +0.121 C 
ATOM      6  C   UNL     1      33.642  -9.497 -23.349  0.00  0.00    +0.010 C 
ATOM      7  C   UNL     1      32.263 -10.364 -20.559  0.00  0.00    +0.126 C 
ATOM      8  C   UNL     1      34.061 -10.002 -24.748  0.00  0.00    +0.062 C 
ATOM      9  C   UNL     1      31.344  -8.618 -23.951  0.00  0.00    +0.003 C 
ATOM     10  C   UNL     1      32.228 -13.971 -21.468  0.00  0.00    +0.173 C 
ATOM     11  C   UNL     1      33.272 -14.425 -22.520  0.00  0.00    +0.062 C 
ATOM     12  C   UNL     1      31.632 -11.709 -20.873  0.00  0.00    +0.319 C 
ATOM     13  C   UNL     1      31.921 -10.016 -19.109  0.00  0.00    +0.014 C 
ATOM     14  C   UNL     1      33.699 -11.466 -24.999  0.00  0.00    +0.172 C 
ATOM     15  C   UNL     1      35.560  -9.806 -24.973  0.00  0.00    +0.008 C 
ATOM     16  C   UNL     1      33.192 -13.472 -23.699  0.00  0.00    -0.020 C 
ATOM     17  C   UNL     1      34.027 -12.451 -23.934  0.00  0.00    +0.033 C 
ATOM     18  C   UNL     1      34.684 -14.579 -21.939  0.00  0.00    +0.008 C 
ENDROOT
BRANCH   5  19
ATOM     19  O   UNL     1      32.358  -8.019 -21.213  0.00  0.00    -0.384 OA
ATOM     20  H   UNL     1      33.299  -8.010 -21.453  0.00  0.00    +0.210 HD
ENDBRANCH   5  19
BRANCH  10  21
ATOM     21  C   UNL     1      32.131 -14.899 -20.262  0.00  0.00    +0.044 C 
ATOM     22  C   UNL     1      31.959 -16.345 -20.688  0.00  0.00    +0.004 C 
ENDBRANCH  10  21
TORSDOF 2
ENDMDL
MODEL 2
REMARK VINA RESULT:      -6.5      3.456      6.262
REMARK  Name = 5282031
REMARK  2 active torsions:
REMARK  status: ('A' for Active; 'I' for Inactive)
REMARK    1  A    between atoms: C_5  and  O_19
REMARK    2  A    between atoms: C_10  and  C_21
REMARK                            x       y       z     vdW  Elec       q    Type
REMARK                         _______ _______ _______ _____ _____    ______ ____
ROOT
ATOM      1  O   UNL     1      34.122 -17.606 -24.179  0.00  0.00    -0.452 OA
ATOM      2  O   UNL     1      35.378 -16.411 -25.704  0.00  0.00    -0.250 OA
ATOM      3  O   UNL     1      35.296 -14.364 -20.351  0.00  0.00    -0.291 OA
ATOM      4  C   UNL     1      33.722 -13.916 -23.866  0.00  0.00    +0.028 C 
ATOM      5  C   UNL     1      33.220 -14.385 -25.265  0.00  0.00    +0.121 C 
ATOM      6  C   UNL     1      32.648 -14.082 -22.762  0.00  0.00    +0.010 C 
ATOM      7  C   UNL     1      33.022 -15.913 -25.397  0.00  0.00    +0.126 C 
ATOM      8  C   UNL     1      33.153 -13.845 -21.321  0.00  0.00    +0.062 C 
ATOM      9  C   UNL     1      34.172 -12.449 -23.956  0.00  0.00    +0.003 C 
ATOM     10  C   UNL     1      35.280 -18.304 -23.657  0.00  0.00    +0.173 C 
ATOM     11  C   UNL     1      35.147 -18.377 -22.115  0.00  0.00    +0.062 C 
ATOM     12  C   UNL     1      34.321 -16.655 -25.137  0.00  0.00    +0.319 C 
ATOM     13  C   UNL     1      32.520 -16.324 -26.783  0.00  0.00    +0.014 C 
ATOM     14  C   UNL     1      34.285 -14.787 -20.911  0.00  0.00    +0.172 C 
ATOM     15  C   UNL     1      32.007 -13.962 -20.315  0.00  0.00    +0.008 C 
ATOM     16  C   UNL     1      35.186 -16.959 -21.574  0.00  0.00    -0.020 C 
ATOM     17  C   UNL     1      34.120 -16.235 -21.207  0.00  0.00    +0.033 C 
ATOM     18  C   UNL     1      33.926 -19.185 -21.654  0.00  0.00    +0.008 C 
ENDROOT
BRANCH   5  19
ATOM     19  O   UNL     1      31.998 -13.708 -25.561  0.00  0.00    -0.384 OA
ATOM     20  H   UNL     1      32.114 -12.755 -25.422  0.00  0.00    +0.210 HD
ENDBRANCH   5  19
BRANCH  10  21
ATOM     21  C   UNL     1      35.351 -19.670 -24.330  0.00  0.00    +0.044 C 
ATOM     22  C   UNL     1      34.225 -19.856 -25.330  0.00  0.00    +0.004 C 
ENDBRANCH  10  21
TORSDOF 2
ENDMDL
MODEL 3
REMARK VINA RESULT:      -6.2      2.969      6.222
REMARK  Name = 5282031
REMARK  2 active torsions:
REMARK  status: ('A' for Active; 'I' for Inactive)
REMARK    1  A    between atoms: C_5  and  O_19
REMARK    2  A    between atoms: C_10  and  C_21
REMARK                            x       y       z     vdW  Elec       q    Type
REMARK                         _______ _______ _______ _____ _____    ______ ____
ROOT
ATOM      1  O   UNL     1      32.878 -14.473 -24.475  0.00  0.00    -0.452 OA
ATOM      2  O   UNL     1      34.160 -12.806 -23.523  0.00  0.00    -0.250 OA
ATOM      3  O   UNL     1      36.101 -18.160 -22.873  0.00  0.00    -0.291 OA
ATOM      4  C   UNL     1      34.147 -15.331 -21.080  0.00  0.00    +0.028 C 
ATOM      5  C   UNL     1      33.206 -14.091 -20.995  0.00  0.00    +0.121 C 
ATOM      6  C   UNL     1      33.368 -16.671 -21.079  0.00  0.00    +0.010 C 
ATOM      7  C   UNL     1      32.360 -13.840 -22.264  0.00  0.00    +0.126 C 
ATOM      8  C   UNL     1      34.223 -17.921 -21.383  0.00  0.00    +0.062 C 
ATOM      9  C   UNL     1      35.142 -15.292 -19.909  0.00  0.00    +0.003 C 
ATOM     10  C   UNL     1      33.716 -14.550 -25.654  0.00  0.00    +0.173 C 
ATOM     11  C   UNL     1      33.900 -16.045 -26.023  0.00  0.00    +0.062 C 
ATOM     12  C   UNL     1      33.248 -13.621 -23.477  0.00  0.00    +0.319 C 
ATOM     13  C   UNL     1      31.446 -12.619 -22.130  0.00  0.00    +0.014 C 
ATOM     14  C   UNL     1      34.912 -17.870 -22.747  0.00  0.00    +0.172 C 
ATOM     15  C   UNL     1      33.381 -19.194 -21.289  0.00  0.00    +0.008 C 
ATOM     16  C   UNL     1      34.648 -16.717 -24.885  0.00  0.00    -0.020 C 
ATOM     17  C   UNL     1      34.093 -17.461 -23.920  0.00  0.00    +0.033 C 
ATOM     18  C   UNL     1      32.583 -16.739 -26.397  0.00  0.00    +0.008 C 
ENDROOT
BRANCH   5  19
ATOM     19  O   UNL     1      32.351 -14.246 -19.862  0.00  0.00    -0.384 OA
ATOM     20  H   UNL     1      32.288 -15.186 -19.629  0.00  0.00    +0.210 HD
ENDBRANCH   5  19
BRANCH  10  21
ATOM     21  C   UNL     1      33.058 -13.726 -26.756  0.00  0.00    +0.044 C 
ATOM     22  C   UNL     1      33.780 -12.409 -26.970  0.00  0.00    +0.004 C 
ENDBRANCH  10  21
TORSDOF 2
ENDMDL
MODEL 4
REMARK VINA RESULT:      -6.1     12.292     15.332
REMARK  Name = 5282031
REMARK  2 active torsions:
REMARK  status: ('A' for Active; 'I' for Inactive)
REMARK    1  A    between atoms: C_5  and  O_19
REMARK    2  A    between atoms: C_10  and  C_21
REMARK                            x       y       z     vdW  Elec       q    Type
REMARK                         _______ _______ _______ _____ _____    ______ ____
ROOT
ATOM      1  O   UNL     1      33.699 -23.037 -15.523  0.00  0.00    -0.452 OA
ATOM      2  O   UNL     1      34.624 -24.490 -17.060  0.00  0.00    -0.250 OA
ATOM      3  O   UNL     1      35.758 -25.592 -11.551  0.00  0.00    -0.291 OA
ATOM      4  C   UNL     1      37.222 -23.968 -14.754  0.00  0.00    +0.028 C 
ATOM      5  C   UNL     1      37.160 -23.214 -16.116  0.00  0.00    +0.121 C 
ATOM      6  C   UNL     1      37.258 -23.004 -13.541  0.00  0.00    +0.010 C 
ATOM      7  C   UNL     1      35.822 -22.488 -16.388  0.00  0.00    +0.126 C 
ATOM      8  C   UNL     1      37.097 -23.685 -12.163  0.00  0.00    +0.062 C 
ATOM      9  C   UNL     1      38.454 -24.887 -14.740  0.00  0.00    +0.003 C 
ATOM     10  C   UNL     1      32.587 -23.923 -15.241  0.00  0.00    +0.173 C 
ATOM     11  C   UNL     1      32.332 -23.909 -13.712  0.00  0.00    +0.062 C 
ATOM     12  C   UNL     1      34.661 -23.468 -16.387  0.00  0.00    +0.319 C 
ATOM     13  C   UNL     1      35.813 -21.755 -17.731  0.00  0.00    +0.014 C 
ATOM     14  C   UNL     1      35.782 -24.452 -12.014  0.00  0.00    +0.172 C 
ATOM     15  C   UNL     1      37.216 -22.663 -11.031  0.00  0.00    +0.008 C 
ATOM     16  C   UNL     1      33.560 -24.484 -13.029  0.00  0.00    -0.020 C 
ATOM     17  C   UNL     1      34.532 -23.771 -12.445  0.00  0.00    +0.033 C 
ATOM     18  C   UNL     1      31.915 -22.529 -13.184  0.00  0.00    +0.008 C 
ENDROOT
BRANCH   5  19
ATOM     19  O   UNL     1      38.240 -22.280 -16.169  0.00  0.00    -0.384 OA
ATOM     20  H   UNL     1      38.857 -22.456 -15.440  0.00  0.00    +0.210 HD
ENDBRANCH   5  19
BRANCH  10  21
ATOM     21  C   UNL     1      31.391 -23.457 -16.064  0.00  0.00    +0.044 C 
ATOM     22  C   UNL     1      30.168 -24.315 -15.801  0.00  0.00    +0.004 C 
ENDBRANCH  10  21
TORSDOF 2
ENDMDL
MODEL 5
REMARK VINA RESULT:      -6.0      1.639      4.927
REMARK  Name = 5282031
REMARK  2 active torsions:
REMARK  status: ('A' for Active; 'I' for Inactive)
REMARK    1  A    between atoms: C_5  and  O_19
REMARK    2  A    between atoms: C_10  and  C_21
REMARK                            x       y       z     vdW  Elec       q    Type
REMARK                         _______ _______ _______ _____ _____    ______ ____
ROOT
ATOM      1  O   UNL     1      32.830  -9.193 -21.835  0.00  0.00    -0.452 OA
ATOM      2  O   UNL     1      32.054  -8.500 -23.896  0.00  0.00    -0.250 OA
ATOM      3  O   UNL     1      31.405 -14.068 -22.701  0.00  0.00    -0.291 OA
ATOM      4  C   UNL     1      33.656 -11.546 -24.601  0.00  0.00    +0.028 C 
ATOM      5  C   UNL     1      34.343 -10.170 -24.854  0.00  0.00    +0.121 C 
ATOM      6  C   UNL     1      34.471 -12.453 -23.645  0.00  0.00    +0.010 C 
ATOM      7  C   UNL     1      34.356  -9.225 -23.631  0.00  0.00    +0.126 C 
ATOM      8  C   UNL     1      33.741 -13.733 -23.181  0.00  0.00    +0.062 C 
ATOM      9  C   UNL     1      33.432 -12.254 -25.946  0.00  0.00    +0.003 C 
ATOM     10  C   UNL     1      31.512  -9.139 -21.235  0.00  0.00    +0.173 C 
ATOM     11  C   UNL     1      31.342 -10.381 -20.324  0.00  0.00    +0.062 C 
ATOM     12  C   UNL     1      32.943  -8.918 -23.165  0.00  0.00    +0.319 C 
ATOM     13  C   UNL     1      35.049  -7.892 -23.925  0.00  0.00    +0.014 C 
ATOM     14  C   UNL     1      32.436 -13.452 -22.435  0.00  0.00    +0.172 C 
ATOM     15  C   UNL     1      34.651 -14.592 -22.302  0.00  0.00    +0.008 C 
ATOM     16  C   UNL     1      31.392 -11.617 -21.206  0.00  0.00    -0.020 C 
ATOM     17  C   UNL     1      32.458 -12.412 -21.373  0.00  0.00    +0.033 C 
ATOM     18  C   UNL     1      32.335 -10.411 -19.154  0.00  0.00    +0.008 C 
ENDROOT
BRANCH   5  19
ATOM     19  O   UNL     1      35.679 -10.405 -25.302  0.00  0.00    -0.384 OA
ATOM     20  H   UNL     1      36.287  -9.814 -24.831  0.00  0.00    +0.210 HD
ENDBRANCH   5  19
BRANCH  10  21
ATOM     21  C   UNL     1      31.386  -7.814 -20.490  0.00  0.00    +0.044 C 
ATOM     22  C   UNL     1      32.741  -7.168 -20.271  0.00  0.00    +0.004 C 
ENDBRANCH  10  21
TORSDOF 2
ENDMDL
MODEL 6
REMARK VINA RESULT:      -5.9      1.251      4.208
REMARK  Name = 5282031
REMARK  2 active torsions:
REMARK  status: ('A' for Active; 'I' for Inactive)
REMARK    1  A    between atoms: C_5  and  O_19
REMARK    2  A    between atoms: C_10  and  C_21
REMARK                            x       y       z     vdW  Elec       q    Type
REMARK                         _______ _______ _______ _____ _____    ______ ____
ROOT
ATOM      1  O   UNL     1      32.262 -12.803 -22.217  0.00  0.00    -0.452 OA
ATOM      2  O   UNL     1      34.457 -13.430 -22.565  0.00  0.00    -0.250 OA
ATOM      3  O   UNL     1      33.562  -7.868 -21.510  0.00  0.00    -0.291 OA
ATOM      4  C   UNL     1      34.165 -10.426 -24.362  0.00  0.00    +0.028 C 
ATOM      5  C   UNL     1      34.086 -11.818 -25.058  0.00  0.00    +0.121 C 
ATOM      6  C   UNL     1      32.900  -9.565 -24.607  0.00  0.00    +0.010 C 
ATOM      7  C   UNL     1      33.053 -12.787 -24.438  0.00  0.00    +0.126 C 
ATOM      8  C   UNL     1      32.820  -8.271 -23.766  0.00  0.00    +0.062 C 
ATOM      9  C   UNL     1      35.417  -9.684 -24.855  0.00  0.00    +0.003 C 
ATOM     10  C   UNL     1      32.403 -12.825 -20.775  0.00  0.00    +0.173 C 
ATOM     11  C   UNL     1      31.659 -11.595 -20.196  0.00  0.00    +0.062 C 
ATOM     12  C   UNL     1      33.366 -13.056 -22.976  0.00  0.00    +0.319 C 
ATOM     13  C   UNL     1      33.005 -14.136 -25.160  0.00  0.00    +0.014 C 
ATOM     14  C   UNL     1      32.836  -8.523 -22.258  0.00  0.00    +0.172 C 
ATOM     15  C   UNL     1      31.576  -7.459 -24.130  0.00  0.00    +0.008 C 
ATOM     16  C   UNL     1      32.356 -10.346 -20.704  0.00  0.00    -0.020 C 
ATOM     17  C   UNL     1      31.941  -9.584 -21.725  0.00  0.00    +0.033 C 
ATOM     18  C   UNL     1      30.149 -11.622 -20.470  0.00  0.00    +0.008 C 
ENDROOT
BRANCH   5  19
ATOM     19  O   UNL     1      33.798 -11.619 -26.442  0.00  0.00    -0.384 OA
ATOM     20  H   UNL     1      34.263 -10.829 -26.760  0.00  0.00    +0.210 HD
ENDBRANCH   5  19
BRANCH  10  21
ATOM     21  C   UNL     1      31.867 -14.159 -20.268  0.00  0.00    +0.044 C 
ATOM     22  C   UNL     1      32.944 -15.228 -20.269  0.00  0.00    +0.004 C 
ENDBRANCH  10  21
TORSDOF 2
ENDMDL
MODEL 7
REMARK VINA RESULT:      -5.2      2.116      4.930
REMARK  Name = 5282031
REMARK  2 active torsions:
REMARK  status: ('A' for Active; 'I' for Inactive)
REMARK    1  A    between atoms: C_5  and  O_19
REMARK    2  A    between atoms: C_10  and  C_21
REMARK                            x       y       z     vdW  Elec       q    Type
REMARK                         _______ _______ _______ _____ _____    ______ ____
ROOT
ATOM      1  O   UNL     1      33.369 -15.845 -22.652  0.00  0.00    -0.452 OA
ATOM      2  O   UNL     1      35.429 -15.214 -23.482  0.00  0.00    -0.250 OA
ATOM      3  O   UNL     1      32.845 -11.446 -20.022  0.00  0.00    -0.291 OA
ATOM      4  C   UNL     1      33.503 -12.288 -23.749  0.00  0.00    +0.028 C 
ATOM      5  C   UNL     1      33.757 -13.226 -24.967  0.00  0.00    +0.121 C 
ATOM      6  C   UNL     1      31.995 -12.093 -23.452  0.00  0.00    +0.010 C 
ATOM      7  C   UNL     1      33.401 -14.711 -24.719  0.00  0.00    +0.126 C 
ATOM      8  C   UNL     1      31.681 -11.358 -22.129  0.00  0.00    +0.062 C 
ATOM      9  C   UNL     1      34.174 -10.930 -24.009  0.00  0.00    +0.003 C 
ATOM     10  C   UNL     1      33.927 -16.285 -21.390  0.00  0.00    +0.173 C 
ATOM     11  C   UNL     1      32.978 -15.824 -20.253  0.00  0.00    +0.062 C 
ATOM     12  C   UNL     1      34.209 -15.279 -23.565  0.00  0.00    +0.319 C 
ATOM     13  C   UNL     1      33.658 -15.590 -25.945  0.00  0.00    +0.014 C 
ATOM     14  C   UNL     1      32.236 -12.066 -20.893  0.00  0.00    +0.172 C 
ATOM     15  C   UNL     1      30.175 -11.153 -21.962  0.00  0.00    +0.008 C 
ATOM     16  C   UNL     1      32.965 -14.306 -20.243  0.00  0.00    -0.020 C 
ATOM     17  C   UNL     1      32.011 -13.532 -20.777  0.00  0.00    +0.033 C 
ATOM     18  C   UNL     1      31.583 -16.458 -20.340  0.00  0.00    +0.008 C 
ENDROOT
BRANCH   5  19
ATOM     19  O   UNL     1      33.020 -12.730 -26.085  0.00  0.00    -0.384 OA
ATOM     20  H   UNL     1      33.604 -12.196 -26.647  0.00  0.00    +0.210 HD
ENDBRANCH   5  19
BRANCH  10  21
ATOM     21  C   UNL     1      34.112 -17.797 -21.456  0.00  0.00    +0.044 C 
ATOM     22  C   UNL     1      35.579 -18.180 -21.400  0.00  0.00    +0.004 C 
ENDBRANCH  10  21
TORSDOF 2
ENDMDL
MODEL 8
REMARK VINA RESULT:      -5.2      1.887      5.013
REMARK  Name = 5282031
REMARK  2 active torsions:
REMARK  status: ('A' for Active; 'I' for Inactive)
REMARK    1  A    between atoms: C_5  and  O_19
REMARK    2  A    between atoms: C_10  and  C_21
REMARK                            x       y       z     vdW  Elec       q    Type
REMARK                         _______ _______ _______ _____ _____    ______ ____
ROOT
ATOM      1  O   UNL     1      31.956  -8.923 -22.133  0.00  0.00    -0.452 OA
ATOM      2  O   UNL     1      32.789  -9.936 -20.233  0.00  0.00    -0.250 OA
ATOM      3  O   UNL     1      36.013 -10.390 -24.950  0.00  0.00    -0.291 OA
ATOM      4  C   UNL     1      33.429 -12.284 -22.765  0.00  0.00    +0.028 C 
ATOM      5  C   UNL     1      32.209 -12.415 -21.804  0.00  0.00    +0.121 C 
ATOM      6  C   UNL     1      33.010 -12.236 -24.256  0.00  0.00    +0.010 C 
ATOM      7  C   UNL     1      31.315 -11.155 -21.728  0.00  0.00    +0.126 C 
ATOM      8  C   UNL     1      34.148 -11.887 -25.242  0.00  0.00    +0.062 C 
ATOM      9  C   UNL     1      34.393 -13.457 -22.520  0.00  0.00    +0.003 C 
ATOM     10  C   UNL     1      32.776  -7.741 -21.955  0.00  0.00    +0.173 C 
ATOM     11  C   UNL     1      33.325  -7.319 -23.342  0.00  0.00    +0.062 C 
ATOM     12  C   UNL     1      32.110  -9.951 -21.251  0.00  0.00    +0.319 C 
ATOM     13  C   UNL     1      30.127 -11.334 -20.780  0.00  0.00    +0.014 C 
ATOM     14  C   UNL     1      34.790 -10.526 -24.971  0.00  0.00    +0.172 C 
ATOM     15  C   UNL     1      33.652 -11.934 -26.688  0.00  0.00    +0.008 C 
ATOM     16  C   UNL     1      34.228  -8.431 -23.846  0.00  0.00    -0.020 C 
ATOM     17  C   UNL     1      33.885  -9.369 -24.739  0.00  0.00    +0.033 C 
ATOM     18  C   UNL     1      32.220  -6.919 -24.330  0.00  0.00    +0.008 C 
ENDROOT
BRANCH   5  19
ATOM     19  O   UNL     1      31.430 -13.541 -22.208  0.00  0.00    -0.384 OA
ATOM     20  H   UNL     1      30.754 -13.726 -21.536  0.00  0.00    +0.210 HD
ENDBRANCH   5  19
BRANCH  10  21
ATOM     21  C   UNL     1      31.924  -6.671 -21.283  0.00  0.00    +0.044 C 
ATOM     22  C   UNL     1      32.314  -6.482 -19.829  0.00  0.00    +0.004 C 
ENDBRANCH  10  21
TORSDOF 2
ENDMDL
MODEL 9
REMARK VINA RESULT:      -5.2      1.567      4.656
REMARK  Name = 5282031
REMARK  2 active torsions:
REMARK  status: ('A' for Active; 'I' for Inactive)
REMARK    1  A    between atoms: C_5  and  O_19
REMARK    2  A    between atoms: C_10  and  C_21
REMARK                            x       y       z     vdW  Elec       q    Type
REMARK                         _______ _______ _______ _____ _____    ______ ____
ROOT
ATOM      1  O   UNL     1      33.771 -12.213 -23.882  0.00  0.00    -0.452 OA
ATOM      2  O   UNL     1      31.883 -13.540 -23.832  0.00  0.00    -0.250 OA
ATOM      3  O   UNL     1      31.048  -7.935 -22.973  0.00  0.00    -0.291 OA
ATOM      4  C   UNL     1      31.410 -11.333 -21.140  0.00  0.00    +0.028 C 
ATOM      5  C   UNL     1      31.937 -12.785 -20.937  0.00  0.00    +0.121 C 
ATOM      6  C   UNL     1      32.384 -10.263 -20.585  0.00  0.00    +0.010 C 
ATOM      7  C   UNL     1      33.163 -13.150 -21.806  0.00  0.00    +0.126 C 
ATOM      8  C   UNL     1      32.027  -8.805 -20.951  0.00  0.00    +0.062 C 
ATOM      9  C   UNL     1      30.032 -11.197 -20.472  0.00  0.00    +0.003 C 
ATOM     10  C   UNL     1      33.545 -11.810 -25.255  0.00  0.00    +0.173 C 
ATOM     11  C   UNL     1      33.859 -10.296 -25.374  0.00  0.00    +0.062 C 
ATOM     12  C   UNL     1      32.843 -13.013 -23.285  0.00  0.00    +0.319 C 
ATOM     13  C   UNL     1      33.649 -14.581 -21.566  0.00  0.00    +0.014 C 
ATOM     14  C   UNL     1      31.981  -8.549 -22.458  0.00  0.00    +0.172 C 
ATOM     15  C   UNL     1      33.003  -7.824 -20.300  0.00  0.00    +0.008 C 
ATOM     16  C   UNL     1      32.865  -9.544 -24.507  0.00  0.00    -0.020 C 
ATOM     17  C   UNL     1      33.108  -9.065 -23.280  0.00  0.00    +0.033 C 
ATOM     18  C   UNL     1      35.326  -9.961 -25.074  0.00  0.00    +0.008 C 
ENDROOT
BRANCH   5  19
ATOM     19  O   UNL     1      32.248 -12.968 -19.556  0.00  0.00    -0.384 OA
ATOM     20  H   UNL     1      32.904 -13.676 -19.461  0.00  0.00    +0.210 HD
ENDBRANCH   5  19
BRANCH  10  21
ATOM     21  C   UNL     1      34.410 -12.686 -26.154  0.00  0.00    +0.044 C 
ATOM     22  C   UNL     1      33.599 -13.300 -27.280  0.00  0.00    +0.004 C 
ENDBRANCH  10  21
TORSDOF 2
ENDMDL
