MODEL 1
REMARK VINA RESULT:      -8.5      0.000      0.000
REMARK  Name = 4927
REMARK  3 active torsions:
REMARK  status: ('A' for Active; 'I' for Inactive)
REMARK    1  A    between atoms: N_2  and  C_15
REMARK    2  A    between atoms: C_15  and  C_16
REMARK    3  A    between atoms: C_16  and  N_18
REMARK                            x       y       z     vdW  Elec       q    Type
REMARK                         _______ _______ _______ _____ _____    ______ ____
ROOT
ATOM      1  S   UNL     1      33.617 -10.677 -24.286  0.00  0.00    -0.084 S 
ATOM      2  N   UNL     1      32.751 -13.419 -23.105  0.00  0.00    -0.288 N 
ATOM      3  C   UNL     1      32.384 -12.280 -22.345  0.00  0.00    +0.058 C 
ATOM      4  C   UNL     1      33.052 -13.414 -24.490  0.00  0.00    +0.058 C 
ATOM      5  C   UNL     1      32.699 -10.980 -22.789  0.00  0.00    +0.043 C 
ATOM      6  C   UNL     1      33.433 -12.227 -25.146  0.00  0.00    +0.043 C 
ATOM      7  C   UNL     1      31.659 -12.387 -21.138  0.00  0.00    +0.015 C 
ATOM      8  C   UNL     1      32.951 -14.579 -25.282  0.00  0.00    +0.015 C 
ATOM      9  C   UNL     1      32.326  -9.852 -22.036  0.00  0.00    +0.008 C 
ATOM     10  C   UNL     1      33.722 -12.225 -26.522  0.00  0.00    +0.008 C 
ATOM     11  C   UNL     1      31.286 -11.262 -20.396  0.00  0.00    +0.001 C 
ATOM     12  C   UNL     1      33.234 -14.571 -26.650  0.00  0.00    +0.001 C 
ATOM     13  C   UNL     1      31.623  -9.994 -20.844  0.00  0.00    +0.001 C 
ATOM     14  C   UNL     1      33.624 -13.394 -27.270  0.00  0.00    +0.001 C 
ENDROOT
BRANCH   2  15
ATOM     15  C   UNL     1      32.754 -14.718 -22.417  0.00  0.00    +0.075 C 
BRANCH  15  16
ATOM     16  C   UNL     1      34.177 -15.108 -22.010  0.00  0.00    -0.038 C 
ATOM     17  C   UNL     1      34.445 -14.854 -20.526  0.00  0.00    -0.021 C 
BRANCH  16  18
ATOM     18  N   UNL     1      34.379 -16.532 -22.285  0.00  0.00    +0.387 N 
ATOM     19  C   UNL     1      35.021 -17.184 -21.145  0.00  0.00    -0.101 C 
ATOM     20  C   UNL     1      35.180 -16.709 -23.494  0.00  0.00    -0.101 C 
ATOM     21  H   UNL     1      33.469 -16.966 -22.434  0.00  0.00    -0.080 HD
ENDBRANCH  16  18
ENDBRANCH  15  16
ENDBRANCH   2  15
TORSDOF 3
ENDMDL
MODEL 2
REMARK VINA RESULT:      -8.3     10.796     13.569
REMARK  Name = 4927
REMARK  3 active torsions:
REMARK  status: ('A' for Active; 'I' for Inactive)
REMARK    1  A    between atoms: N_2  and  C_15
REMARK    2  A    between atoms: C_15  and  C_16
REMARK    3  A    between atoms: C_16  and  N_18
REMARK                            x       y       z     vdW  Elec       q    Type
REMARK                         _______ _______ _______ _____ _____    ______ ____
ROOT
ATOM      1  S   UNL     1      33.027 -23.232 -17.787  0.00  0.00    -0.084 S 
ATOM      2  N   UNL     1      34.713 -23.186 -15.175  0.00  0.00    -0.288 N 
ATOM      3  C   UNL     1      35.337 -22.627 -16.319  0.00  0.00    +0.058 C 
ATOM      4  C   UNL     1      33.314 -23.338 -15.002  0.00  0.00    +0.058 C 
ATOM      5  C   UNL     1      34.665 -22.569 -17.556  0.00  0.00    +0.043 C 
ATOM      6  C   UNL     1      32.442 -23.350 -16.108  0.00  0.00    +0.043 C 
ATOM      7  C   UNL     1      36.635 -22.074 -16.269  0.00  0.00    +0.015 C 
ATOM      8  C   UNL     1      32.727 -23.448 -13.722  0.00  0.00    +0.015 C 
ATOM      9  C   UNL     1      35.285 -22.007 -18.687  0.00  0.00    +0.008 C 
ATOM     10  C   UNL     1      31.055 -23.492 -15.930  0.00  0.00    +0.008 C 
ATOM     11  C   UNL     1      37.245 -21.512 -17.394  0.00  0.00    +0.001 C 
ATOM     12  C   UNL     1      31.347 -23.584 -13.550  0.00  0.00    +0.001 C 
ATOM     13  C   UNL     1      36.570 -21.481 -18.605  0.00  0.00    +0.001 C 
ATOM     14  C   UNL     1      30.510 -23.610 -14.656  0.00  0.00    +0.001 C 
ENDROOT
BRANCH   2  15
ATOM     15  C   UNL     1      35.580 -23.575 -14.054  0.00  0.00    +0.075 C 
BRANCH  15  16
ATOM     16  C   UNL     1      35.861 -25.080 -14.089  0.00  0.00    -0.038 C 
ATOM     17  C   UNL     1      37.064 -25.423 -14.968  0.00  0.00    -0.021 C 
BRANCH  16  18
ATOM     18  N   UNL     1      36.128 -25.546 -12.727  0.00  0.00    +0.387 N 
ATOM     19  C   UNL     1      35.715 -24.537 -11.753  0.00  0.00    -0.101 C 
ATOM     20  C   UNL     1      37.545 -25.865 -12.566  0.00  0.00    -0.101 C 
ATOM     21  H   UNL     1      35.585 -26.394 -12.562  0.00  0.00    -0.080 HD
ENDBRANCH  16  18
ENDBRANCH  15  16
ENDBRANCH   2  15
TORSDOF 3
ENDMDL
MODEL 3
REMARK VINA RESULT:      -8.0      3.675      6.074
REMARK  Name = 4927
REMARK  3 active torsions:
REMARK  status: ('A' for Active; 'I' for Inactive)
REMARK    1  A    between atoms: N_2  and  C_15
REMARK    2  A    between atoms: C_15  and  C_16
REMARK    3  A    between atoms: C_16  and  N_18
REMARK                            x       y       z     vdW  Elec       q    Type
REMARK                         _______ _______ _______ _____ _____    ______ ____
ROOT
ATOM      1  S   UNL     1      32.285  -7.384 -20.213  0.00  0.00    -0.084 S 
ATOM      2  N   UNL     1      31.954  -9.125 -22.767  0.00  0.00    -0.288 N 
ATOM      3  C   UNL     1      31.836  -9.814 -21.534  0.00  0.00    +0.058 C 
ATOM      4  C   UNL     1      31.763  -7.731 -22.944  0.00  0.00    +0.058 C 
ATOM      5  C   UNL     1      31.944  -9.130 -20.307  0.00  0.00    +0.043 C 
ATOM      6  C   UNL     1      31.862  -6.841 -21.857  0.00  0.00    +0.043 C 
ATOM      7  C   UNL     1      31.572 -11.200 -21.473  0.00  0.00    +0.015 C 
ATOM      8  C   UNL     1      31.430  -7.176 -24.199  0.00  0.00    +0.015 C 
ATOM      9  C   UNL     1      31.818  -9.817 -19.086  0.00  0.00    +0.008 C 
ATOM     10  C   UNL     1      31.663  -5.461 -22.036  0.00  0.00    +0.008 C 
ATOM     11  C   UNL     1      31.443 -11.877 -20.257  0.00  0.00    +0.001 C 
ATOM     12  C   UNL     1      31.228  -5.804 -24.370  0.00  0.00    +0.001 C 
ATOM     13  C   UNL     1      31.570 -11.185 -19.062  0.00  0.00    +0.001 C 
ATOM     14  C   UNL     1      31.349  -4.944 -23.289  0.00  0.00    +0.001 C 
ENDROOT
BRANCH   2  15
ATOM     15  C   UNL     1      32.229  -9.927 -23.967  0.00  0.00    +0.075 C 
BRANCH  15  16
ATOM     16  C   UNL     1      33.687 -10.395 -23.979  0.00  0.00    -0.038 C 
ATOM     17  C   UNL     1      33.837 -11.805 -24.551  0.00  0.00    -0.021 C 
BRANCH  16  18
ATOM     18  N   UNL     1      34.478  -9.472 -24.794  0.00  0.00    +0.387 N 
ATOM     19  C   UNL     1      35.536 -10.193 -25.499  0.00  0.00    -0.101 C 
ATOM     20  C   UNL     1      35.046  -8.414 -23.960  0.00  0.00    -0.101 C 
ATOM     21  H   UNL     1      33.865  -9.043 -25.487  0.00  0.00    -0.080 HD
ENDBRANCH  16  18
ENDBRANCH  15  16
ENDBRANCH   2  15
TORSDOF 3
ENDMDL
MODEL 4
REMARK VINA RESULT:      -8.0      3.699      6.403
REMARK  Name = 4927
REMARK  3 active torsions:
REMARK  status: ('A' for Active; 'I' for Inactive)
REMARK    1  A    between atoms: N_2  and  C_15
REMARK    2  A    between atoms: C_15  and  C_16
REMARK    3  A    between atoms: C_16  and  N_18
REMARK                            x       y       z     vdW  Elec       q    Type
REMARK                         _______ _______ _______ _____ _____    ______ ____
ROOT
ATOM      1  S   UNL     1      32.115 -11.779 -22.948  0.00  0.00    -0.084 S 
ATOM      2  N   UNL     1      33.008  -8.835 -22.503  0.00  0.00    -0.288 N 
ATOM      3  C   UNL     1      32.355  -9.451 -21.406  0.00  0.00    +0.058 C 
ATOM      4  C   UNL     1      33.664  -9.524 -23.554  0.00  0.00    +0.058 C 
ATOM      5  C   UNL     1      31.924 -10.791 -21.478  0.00  0.00    +0.043 C 
ATOM      6  C   UNL     1      33.364 -10.870 -23.837  0.00  0.00    +0.043 C 
ATOM      7  C   UNL     1      32.138  -8.773 -20.186  0.00  0.00    +0.015 C 
ATOM      8  C   UNL     1      34.668  -8.912 -24.337  0.00  0.00    +0.015 C 
ATOM      9  C   UNL     1      31.283 -11.400 -20.384  0.00  0.00    +0.008 C 
ATOM     10  C   UNL     1      34.023 -11.552 -24.875  0.00  0.00    +0.008 C 
ATOM     11  C   UNL     1      31.505  -9.385 -19.101  0.00  0.00    +0.001 C 
ATOM     12  C   UNL     1      35.324  -9.596 -25.363  0.00  0.00    +0.001 C 
ATOM     13  C   UNL     1      31.074 -10.699 -19.201  0.00  0.00    +0.001 C 
ATOM     14  C   UNL     1      34.999 -10.916 -25.636  0.00  0.00    +0.001 C 
ENDROOT
BRANCH   2  15
ATOM     15  C   UNL     1      33.069  -7.367 -22.515  0.00  0.00    +0.075 C 
BRANCH  15  16
ATOM     16  C   UNL     1      32.097  -6.797 -23.553  0.00  0.00    -0.038 C 
ATOM     17  C   UNL     1      30.835  -7.648 -23.692  0.00  0.00    -0.021 C 
BRANCH  16  18
ATOM     18  N   UNL     1      31.709  -5.444 -23.151  0.00  0.00    +0.387 N 
ATOM     19  C   UNL     1      30.731  -5.497 -22.065  0.00  0.00    -0.101 C 
ATOM     20  C   UNL     1      31.168  -4.708 -24.292  0.00  0.00    -0.101 C 
ATOM     21  H   UNL     1      32.538  -4.955 -22.814  0.00  0.00    -0.080 HD
ENDBRANCH  16  18
ENDBRANCH  15  16
ENDBRANCH   2  15
TORSDOF 3
ENDMDL
MODEL 5
REMARK VINA RESULT:      -7.5      1.913      5.041
REMARK  Name = 4927
REMARK  3 active torsions:
REMARK  status: ('A' for Active; 'I' for Inactive)
REMARK    1  A    between atoms: N_2  and  C_15
REMARK    2  A    between atoms: C_15  and  C_16
REMARK    3  A    between atoms: C_16  and  N_18
REMARK                            x       y       z     vdW  Elec       q    Type
REMARK                         _______ _______ _______ _____ _____    ______ ____
ROOT
ATOM      1  S   UNL     1      33.362 -16.254 -25.978  0.00  0.00    -0.084 S 
ATOM      2  N   UNL     1      34.154 -14.703 -23.402  0.00  0.00    -0.288 N 
ATOM      3  C   UNL     1      34.516 -16.074 -23.430  0.00  0.00    +0.058 C 
ATOM      4  C   UNL     1      33.893 -13.905 -24.544  0.00  0.00    +0.058 C 
ATOM      5  C   UNL     1      34.232 -16.876 -24.553  0.00  0.00    +0.043 C 
ATOM      6  C   UNL     1      33.549 -14.493 -25.777  0.00  0.00    +0.043 C 
ATOM      7  C   UNL     1      35.204 -16.689 -22.361  0.00  0.00    +0.015 C 
ATOM      8  C   UNL     1      34.001 -12.497 -24.513  0.00  0.00    +0.015 C 
ATOM      9  C   UNL     1      34.600 -18.234 -24.579  0.00  0.00    +0.008 C 
ATOM     10  C   UNL     1      33.300 -13.697 -26.909  0.00  0.00    +0.008 C 
ATOM     11  C   UNL     1      35.571 -18.037 -22.394  0.00  0.00    +0.001 C 
ATOM     12  C   UNL     1      33.757 -11.712 -25.643  0.00  0.00    +0.001 C 
ATOM     13  C   UNL     1      35.266 -18.811 -23.503  0.00  0.00    +0.001 C 
ATOM     14  C   UNL     1      33.402 -12.312 -26.841  0.00  0.00    +0.001 C 
ENDROOT
BRANCH   2  15
ATOM     15  C   UNL     1      34.113 -14.042 -22.091  0.00  0.00    +0.075 C 
BRANCH  15  16
ATOM     16  C   UNL     1      32.671 -13.936 -21.587  0.00  0.00    -0.038 C 
ATOM     17  C   UNL     1      32.434 -14.777 -20.332  0.00  0.00    -0.021 C 
BRANCH  16  18
ATOM     18  N   UNL     1      32.376 -12.536 -21.275  0.00  0.00    +0.387 N 
ATOM     19  C   UNL     1      31.898 -12.411 -19.899  0.00  0.00    -0.101 C 
ATOM     20  C   UNL     1      31.388 -12.003 -22.211  0.00  0.00    -0.101 C 
ATOM     21  H   UNL     1      33.235 -11.995 -21.369  0.00  0.00    -0.080 HD
ENDBRANCH  16  18
ENDBRANCH  15  16
ENDBRANCH   2  15
TORSDOF 3
ENDMDL
MODEL 6
REMARK VINA RESULT:      -7.3      1.850      4.779
REMARK  Name = 4927
REMARK  3 active torsions:
REMARK  status: ('A' for Active; 'I' for Inactive)
REMARK    1  A    between atoms: N_2  and  C_15
REMARK    2  A    between atoms: C_15  and  C_16
REMARK    3  A    between atoms: C_16  and  N_18
REMARK                            x       y       z     vdW  Elec       q    Type
REMARK                         _______ _______ _______ _____ _____    ______ ____
ROOT
ATOM      1  S   UNL     1      32.676  -8.308 -22.424  0.00  0.00    -0.084 S 
ATOM      2  N   UNL     1      32.681 -11.393 -22.812  0.00  0.00    -0.288 N 
ATOM      3  C   UNL     1      33.520 -10.662 -23.691  0.00  0.00    +0.058 C 
ATOM      4  C   UNL     1      32.219 -10.932 -21.554  0.00  0.00    +0.058 C 
ATOM      5  C   UNL     1      33.621  -9.259 -23.597  0.00  0.00    +0.043 C 
ATOM      6  C   UNL     1      32.192  -9.557 -21.249  0.00  0.00    +0.043 C 
ATOM      7  C   UNL     1      34.316 -11.298 -24.669  0.00  0.00    +0.015 C 
ATOM      8  C   UNL     1      31.802 -11.822 -20.539  0.00  0.00    +0.015 C 
ATOM      9  C   UNL     1      34.461  -8.539 -24.466  0.00  0.00    +0.008 C 
ATOM     10  C   UNL     1      31.742  -9.106 -19.996  0.00  0.00    +0.008 C 
ATOM     11  C   UNL     1      35.152 -10.578 -25.526  0.00  0.00    +0.001 C 
ATOM     12  C   UNL     1      31.360 -11.368 -19.293  0.00  0.00    +0.001 C 
ATOM     13  C   UNL     1      35.222  -9.196 -25.427  0.00  0.00    +0.001 C 
ATOM     14  C   UNL     1      31.326 -10.009 -19.022  0.00  0.00    +0.001 C 
ENDROOT
BRANCH   2  15
ATOM     15  C   UNL     1      32.317 -12.761 -23.207  0.00  0.00    +0.075 C 
BRANCH  15  16
ATOM     16  C   UNL     1      33.289 -13.774 -22.595  0.00  0.00    -0.038 C 
ATOM     17  C   UNL     1      32.566 -14.865 -21.805  0.00  0.00    -0.021 C 
BRANCH  16  18
ATOM     18  N   UNL     1      34.059 -14.404 -23.668  0.00  0.00    +0.387 N 
ATOM     19  C   UNL     1      33.191 -14.716 -24.802  0.00  0.00    -0.101 C 
ATOM     20  C   UNL     1      34.719 -15.614 -23.180  0.00  0.00    -0.101 C 
ATOM     21  H   UNL     1      34.776 -13.750 -23.982  0.00  0.00    -0.080 HD
ENDBRANCH  16  18
ENDBRANCH  15  16
ENDBRANCH   2  15
TORSDOF 3
ENDMDL
MODEL 7
REMARK VINA RESULT:      -7.0      2.196      6.181
REMARK  Name = 4927
REMARK  3 active torsions:
REMARK  status: ('A' for Active; 'I' for Inactive)
REMARK    1  A    between atoms: N_2  and  C_15
REMARK    2  A    between atoms: C_15  and  C_16
REMARK    3  A    between atoms: C_16  and  N_18
REMARK                            x       y       z     vdW  Elec       q    Type
REMARK                         _______ _______ _______ _____ _____    ______ ____
ROOT
ATOM      1  S   UNL     1      33.495 -14.597 -21.928  0.00  0.00    -0.084 S 
ATOM      2  N   UNL     1      32.895 -12.095 -23.672  0.00  0.00    -0.288 N 
ATOM      3  C   UNL     1      33.164 -13.290 -24.385  0.00  0.00    +0.058 C 
ATOM      4  C   UNL     1      32.448 -12.029 -22.328  0.00  0.00    +0.058 C 
ATOM      5  C   UNL     1      33.426 -14.496 -23.705  0.00  0.00    +0.043 C 
ATOM      6  C   UNL     1      32.639 -13.110 -21.446  0.00  0.00    +0.043 C 
ATOM      7  C   UNL     1      33.145 -13.341 -25.796  0.00  0.00    +0.015 C 
ATOM      8  C   UNL     1      31.763 -10.902 -21.823  0.00  0.00    +0.015 C 
ATOM      9  C   UNL     1      33.684 -15.682 -24.417  0.00  0.00    +0.008 C 
ATOM     10  C   UNL     1      32.187 -13.043 -20.117  0.00  0.00    +0.008 C 
ATOM     11  C   UNL     1      33.397 -14.523 -26.498  0.00  0.00    +0.001 C 
ATOM     12  C   UNL     1      31.310 -10.843 -20.502  0.00  0.00    +0.001 C 
ATOM     13  C   UNL     1      33.671 -15.694 -25.807  0.00  0.00    +0.001 C 
ATOM     14  C   UNL     1      31.526 -11.913 -19.646  0.00  0.00    +0.001 C 
ENDROOT
BRANCH   2  15
ATOM     15  C   UNL     1      33.025 -10.827 -24.404  0.00  0.00    +0.075 C 
BRANCH  15  16
ATOM     16  C   UNL     1      34.284 -10.076 -23.961  0.00  0.00    -0.038 C 
ATOM     17  C   UNL     1      35.252  -9.835 -25.119  0.00  0.00    -0.021 C 
BRANCH  16  18
ATOM     18  N   UNL     1      33.894  -8.782 -23.399  0.00  0.00    +0.387 N 
ATOM     19  C   UNL     1      32.622  -8.342 -23.970  0.00  0.00    -0.101 C 
ATOM     20  C   UNL     1      34.936  -7.786 -23.640  0.00  0.00    -0.101 C 
ATOM     21  H   UNL     1      33.775  -8.888 -22.392  0.00  0.00    -0.080 HD
ENDBRANCH  16  18
ENDBRANCH  15  16
ENDBRANCH   2  15
TORSDOF 3
ENDMDL
MODEL 8
REMARK VINA RESULT:      -6.9      2.886      5.663
REMARK  Name = 4927
REMARK  3 active torsions:
REMARK  status: ('A' for Active; 'I' for Inactive)
REMARK    1  A    between atoms: N_2  and  C_15
REMARK    2  A    between atoms: C_15  and  C_16
REMARK    3  A    between atoms: C_16  and  N_18
REMARK                            x       y       z     vdW  Elec       q    Type
REMARK                         _______ _______ _______ _____ _____    ______ ____
ROOT
ATOM      1  S   UNL     1      31.993 -12.893 -21.996  0.00  0.00    -0.084 S 
ATOM      2  N   UNL     1      32.414  -9.958 -22.928  0.00  0.00    -0.288 N 
ATOM      3  C   UNL     1      32.089 -10.127 -21.559  0.00  0.00    +0.058 C 
ATOM      4  C   UNL     1      32.982 -10.954 -23.761  0.00  0.00    +0.058 C 
ATOM      5  C   UNL     1      31.897 -11.411 -21.012  0.00  0.00    +0.043 C 
ATOM      6  C   UNL     1      32.879 -12.320 -23.432  0.00  0.00    +0.043 C 
ATOM      7  C   UNL     1      31.978  -9.031 -20.675  0.00  0.00    +0.015 C 
ATOM      8  C   UNL     1      33.703 -10.630 -24.931  0.00  0.00    +0.015 C 
ATOM      9  C   UNL     1      31.583 -11.574 -19.651  0.00  0.00    +0.008 C 
ATOM     10  C   UNL     1      33.452 -13.305 -24.257  0.00  0.00    +0.008 C 
ATOM     11  C   UNL     1      31.670  -9.199 -19.322  0.00  0.00    +0.001 C 
ATOM     12  C   UNL     1      34.275 -11.612 -25.744  0.00  0.00    +0.001 C 
ATOM     13  C   UNL     1      31.469 -10.472 -18.810  0.00  0.00    +0.001 C 
ATOM     14  C   UNL     1      34.146 -12.951 -25.409  0.00  0.00    +0.001 C 
ENDROOT
BRANCH   2  15
ATOM     15  C   UNL     1      32.209  -8.625 -23.512  0.00  0.00    +0.075 C 
BRANCH  15  16
ATOM     16  C   UNL     1      33.106  -7.592 -22.824  0.00  0.00    -0.038 C 
ATOM     17  C   UNL     1      34.552  -7.664 -23.314  0.00  0.00    -0.021 C 
BRANCH  16  18
ATOM     18  N   UNL     1      32.585  -6.251 -23.096  0.00  0.00    +0.387 N 
ATOM     19  C   UNL     1      31.911  -5.718 -21.913  0.00  0.00    -0.101 C 
ATOM     20  C   UNL     1      31.671  -6.281 -24.236  0.00  0.00    -0.101 C 
ATOM     21  H   UNL     1      33.367  -5.639 -23.325  0.00  0.00    -0.080 HD
ENDBRANCH  16  18
ENDBRANCH  15  16
ENDBRANCH   2  15
TORSDOF 3
ENDMDL
MODEL 9
REMARK VINA RESULT:      -6.8      1.921      5.898
REMARK  Name = 4927
REMARK  3 active torsions:
REMARK  status: ('A' for Active; 'I' for Inactive)
REMARK    1  A    between atoms: N_2  and  C_15
REMARK    2  A    between atoms: C_15  and  C_16
REMARK    3  A    between atoms: C_16  and  N_18
REMARK                            x       y       z     vdW  Elec       q    Type
REMARK                         _______ _______ _______ _____ _____    ______ ____
ROOT
ATOM      1  S   UNL     1      34.196 -14.888 -21.064  0.00  0.00    -0.084 S 
ATOM      2  N   UNL     1      33.048 -13.535 -23.616  0.00  0.00    -0.288 N 
ATOM      3  C   UNL     1      33.622 -14.817 -23.806  0.00  0.00    +0.058 C 
ATOM      4  C   UNL     1      32.561 -13.033 -22.382  0.00  0.00    +0.058 C 
ATOM      5  C   UNL     1      34.154 -15.541 -22.721  0.00  0.00    +0.043 C 
ATOM      6  C   UNL     1      32.988 -13.581 -21.157  0.00  0.00    +0.043 C 
ATOM      7  C   UNL     1      33.656 -15.442 -25.072  0.00  0.00    +0.015 C 
ATOM      8  C   UNL     1      31.606 -11.995 -22.322  0.00  0.00    +0.015 C 
ATOM      9  C   UNL     1      34.716 -16.817 -22.913  0.00  0.00    +0.008 C 
ATOM     10  C   UNL     1      32.496 -13.086 -19.937  0.00  0.00    +0.008 C 
ATOM     11  C   UNL     1      34.210 -16.712 -25.256  0.00  0.00    +0.001 C 
ATOM     12  C   UNL     1      31.116 -11.510 -21.106  0.00  0.00    +0.001 C 
ATOM     13  C   UNL     1      34.744 -17.398 -24.175  0.00  0.00    +0.001 C 
ATOM     14  C   UNL     1      31.565 -12.053 -19.912  0.00  0.00    +0.001 C 
ENDROOT
BRANCH   2  15
ATOM     15  C   UNL     1      32.882 -12.686 -24.803  0.00  0.00    +0.075 C 
BRANCH  15  16
ATOM     16  C   UNL     1      34.246 -12.268 -25.361  0.00  0.00    -0.038 C 
ATOM     17  C   UNL     1      34.221 -12.092 -26.879  0.00  0.00    -0.021 C 
BRANCH  16  18
ATOM     18  N   UNL     1      34.644 -11.000 -24.748  0.00  0.00    +0.387 N 
ATOM     19  C   UNL     1      33.465 -10.199 -24.424  0.00  0.00    -0.101 C 
ATOM     20  C   UNL     1      35.537 -10.261 -25.638  0.00  0.00    -0.101 C 
ATOM     21  H   UNL     1      35.145 -11.200 -23.882  0.00  0.00    -0.080 HD
ENDBRANCH  16  18
ENDBRANCH  15  16
ENDBRANCH   2  15
TORSDOF 3
ENDMDL
