MODEL 1
REMARK VINA RESULT:      -7.7      0.000      0.000
REMARK  Name = 4168
REMARK  8 active torsions:
REMARK  status: ('A' for Active; 'I' for Inactive)
REMARK    1  A    between atoms: N_2  and  C_17
REMARK    2  A    between atoms: C_3  and  C_6
REMARK    3  A    between atoms: C_7  and  O_15
REMARK    4  A    between atoms: C_10  and  N_12
REMARK    5  A    between atoms: C_17  and  C_18
REMARK    6  A    between atoms: C_18  and  N_19
REMARK    7  A    between atoms: N_19  and  C_21
REMARK    8  A    between atoms: N_19  and  C_23
REMARK                            x       y       z     vdW  Elec       q    Type
REMARK                         _______ _______ _______ _____ _____    ______ ____
ROOT
ATOM      1  O   UNL     1      33.993 -23.539 -19.645  0.00  0.00    -0.270 OA
ATOM      2  N   UNL     1      35.332 -21.792 -18.912  0.00  0.00    -0.303 N 
ATOM      3  C   UNL     1      34.391 -22.802 -18.746  0.00  0.00    +0.249 C 
ATOM      4  H   UNL     1      35.587 -21.252 -18.129  0.00  0.00    +0.150 HD
ENDROOT
BRANCH   3   6
ATOM      5 CL   UNL     1      30.198 -23.056 -15.782  0.00  0.00    -0.081 Cl
ATOM      6  C   UNL     1      33.832 -22.958 -17.379  0.00  0.00    +0.088 C 
ATOM      7  C   UNL     1      34.683 -23.113 -16.304  0.00  0.00    +0.144 C 
ATOM      8  C   UNL     1      32.460 -22.940 -17.231  0.00  0.00    +0.020 C 
ATOM      9  C   UNL     1      34.140 -23.257 -15.027  0.00  0.00    +0.052 C 
ATOM     10  C   UNL     1      32.756 -23.242 -14.853  0.00  0.00    +0.055 C 
ATOM     11  C   UNL     1      31.916 -23.082 -15.955  0.00  0.00    +0.071 C 
BRANCH  10  12
ATOM     12  N   UNL     1      32.235 -23.388 -13.547  0.00  0.00    -0.356 N 
ATOM     13  H   UNL     1      32.470 -24.180 -13.010  0.00  0.00    +0.142 HD
ATOM     14  H   UNL     1      31.638 -22.701 -13.175  0.00  0.00    +0.142 HD
ENDBRANCH  10  12
BRANCH   7  15
ATOM     15  O   UNL     1      36.038 -23.129 -16.454  0.00  0.00    -0.471 OA
ATOM     16  C   UNL     1      36.807 -23.586 -15.344  0.00  0.00    +0.252 C 
ENDBRANCH   7  15
ENDBRANCH   3   6
BRANCH   2  17
ATOM     17  C   UNL     1      35.944 -21.502 -20.180  0.00  0.00    +0.067 C 
BRANCH  17  18
ATOM     18  C   UNL     1      35.913 -20.011 -20.478  0.00  0.00    -0.056 C 
BRANCH  18  19
ATOM     19  N   UNL     1      34.941 -19.724 -21.532  0.00  0.00    +0.388 N 
ATOM     20  H   UNL     1      34.638 -20.608 -21.942  0.00  0.00    -0.080 HD
BRANCH  19  21
ATOM     21  C   UNL     1      33.770 -19.046 -20.978  0.00  0.00    -0.077 C 
ATOM     22  C   UNL     1      32.690 -20.042 -20.592  0.00  0.00    -0.025 C 
ENDBRANCH  19  21
BRANCH  19  23
ATOM     23  C   UNL     1      35.553 -18.912 -22.584  0.00  0.00    -0.077 C 
ATOM     24  C   UNL     1      34.870 -19.139 -23.921  0.00  0.00    -0.025 C 
ENDBRANCH  19  23
ENDBRANCH  18  19
ENDBRANCH  17  18
ENDBRANCH   2  17
TORSDOF 8
ENDMDL
MODEL 2
REMARK VINA RESULT:      -7.5      3.265      7.147
REMARK  Name = 4168
REMARK  8 active torsions:
REMARK  status: ('A' for Active; 'I' for Inactive)
REMARK    1  A    between atoms: N_2  and  C_17
REMARK    2  A    between atoms: C_3  and  C_6
REMARK    3  A    between atoms: C_7  and  O_15
REMARK    4  A    between atoms: C_10  and  N_12
REMARK    5  A    between atoms: C_17  and  C_18
REMARK    6  A    between atoms: C_18  and  N_19
REMARK    7  A    between atoms: N_19  and  C_21
REMARK    8  A    between atoms: N_19  and  C_23
REMARK                            x       y       z     vdW  Elec       q    Type
REMARK                         _______ _______ _______ _____ _____    ______ ____
ROOT
ATOM      1  O   UNL     1      38.046 -22.964 -15.750  0.00  0.00    -0.270 OA
ATOM      2  N   UNL     1      36.312 -23.060 -14.212  0.00  0.00    -0.303 N 
ATOM      3  C   UNL     1      36.846 -22.933 -15.489  0.00  0.00    +0.249 C 
ATOM      4  H   UNL     1      35.334 -23.021 -14.103  0.00  0.00    +0.150 HD
ENDROOT
BRANCH   3   6
ATOM      5 CL   UNL     1      35.908 -20.909 -20.121  0.00  0.00    -0.081 Cl
ATOM      6  C   UNL     1      35.870 -22.722 -16.589  0.00  0.00    +0.088 C 
ATOM      7  C   UNL     1      34.592 -23.231 -16.478  0.00  0.00    +0.144 C 
ATOM      8  C   UNL     1      36.283 -22.012 -17.698  0.00  0.00    +0.020 C 
ATOM      9  C   UNL     1      33.689 -23.022 -17.521  0.00  0.00    +0.052 C 
ATOM     10  C   UNL     1      34.083 -22.307 -18.652  0.00  0.00    +0.055 C 
ATOM     11  C   UNL     1      35.381 -21.801 -18.740  0.00  0.00    +0.071 C 
BRANCH  10  12
ATOM     12  N   UNL     1      33.146 -22.110 -19.691  0.00  0.00    -0.356 N 
ATOM     13  H   UNL     1      32.761 -22.886 -20.159  0.00  0.00    +0.142 HD
ATOM     14  H   UNL     1      32.880 -21.198 -19.947  0.00  0.00    +0.142 HD
ENDBRANCH  10  12
BRANCH   7  15
ATOM     15  O   UNL     1      34.188 -23.931 -15.381  0.00  0.00    -0.471 OA
ATOM     16  C   UNL     1      32.881 -23.656 -14.883  0.00  0.00    +0.252 C 
ENDBRANCH   7  15
ENDBRANCH   3   6
BRANCH   2  17
ATOM     17  C   UNL     1      37.128 -23.244 -13.043  0.00  0.00    +0.067 C 
BRANCH  17  18
ATOM     18  C   UNL     1      37.341 -24.721 -12.747  0.00  0.00    -0.056 C 
BRANCH  18  19
ATOM     19  N   UNL     1      38.080 -25.357 -13.836  0.00  0.00    +0.388 N 
ATOM     20  H   UNL     1      37.988 -24.777 -14.670  0.00  0.00    -0.080 HD
BRANCH  19  21
ATOM     21  C   UNL     1      39.500 -25.461 -13.499  0.00  0.00    -0.077 C 
ATOM     22  C   UNL     1      40.324 -25.853 -14.713  0.00  0.00    -0.025 C 
ENDBRANCH  19  21
BRANCH  19  23
ATOM     23  C   UNL     1      37.524 -26.678 -14.127  0.00  0.00    -0.077 C 
ATOM     24  C   UNL     1      36.560 -26.623 -15.299  0.00  0.00    -0.025 C 
ENDBRANCH  19  23
ENDBRANCH  18  19
ENDBRANCH  17  18
ENDBRANCH   2  17
TORSDOF 8
ENDMDL
MODEL 3
REMARK VINA RESULT:      -7.5      7.761     10.440
REMARK  Name = 4168
REMARK  8 active torsions:
REMARK  status: ('A' for Active; 'I' for Inactive)
REMARK    1  A    between atoms: N_2  and  C_17
REMARK    2  A    between atoms: C_3  and  C_6
REMARK    3  A    between atoms: C_7  and  O_15
REMARK    4  A    between atoms: C_10  and  N_12
REMARK    5  A    between atoms: C_17  and  C_18
REMARK    6  A    between atoms: C_18  and  N_19
REMARK    7  A    between atoms: N_19  and  C_21
REMARK    8  A    between atoms: N_19  and  C_23
REMARK                            x       y       z     vdW  Elec       q    Type
REMARK                         _______ _______ _______ _____ _____    ______ ____
ROOT
ATOM      1  O   UNL     1      32.736 -14.126 -24.910  0.00  0.00    -0.270 OA
ATOM      2  N   UNL     1      34.231 -12.642 -23.940  0.00  0.00    -0.303 N 
ATOM      3  C   UNL     1      33.634 -13.886 -24.107  0.00  0.00    +0.249 C 
ATOM      4  H   UNL     1      34.945 -12.548 -23.267  0.00  0.00    +0.150 HD
ENDROOT
BRANCH   3   6
ATOM      5 CL   UNL     1      35.595 -18.624 -23.731  0.00  0.00    -0.081 Cl
ATOM      6  C   UNL     1      34.123 -14.972 -23.219  0.00  0.00    +0.088 C 
ATOM      7  C   UNL     1      34.114 -14.794 -21.850  0.00  0.00    +0.144 C 
ATOM      8  C   UNL     1      34.574 -16.137 -23.804  0.00  0.00    +0.020 C 
ATOM      9  C   UNL     1      34.576 -15.826 -21.033  0.00  0.00    +0.052 C 
ATOM     10  C   UNL     1      35.037 -17.013 -21.601  0.00  0.00    +0.055 C 
ATOM     11  C   UNL     1      35.035 -17.169 -22.988  0.00  0.00    +0.071 C 
BRANCH  10  12
ATOM     12  N   UNL     1      35.498 -18.040 -20.747  0.00  0.00    -0.356 N 
ATOM     13  H   UNL     1      36.017 -18.791 -21.117  0.00  0.00    +0.142 HD
ATOM     14  H   UNL     1      35.300 -18.006 -19.784  0.00  0.00    +0.142 HD
ENDBRANCH  10  12
BRANCH   7  15
ATOM     15  O   UNL     1      33.666 -13.642 -21.276  0.00  0.00    -0.471 OA
ATOM     16  C   UNL     1      32.380 -13.681 -20.664  0.00  0.00    +0.252 C 
ENDBRANCH   7  15
ENDBRANCH   3   6
BRANCH   2  17
ATOM     17  C   UNL     1      33.850 -11.488 -24.706  0.00  0.00    +0.067 C 
BRANCH  17  18
ATOM     18  C   UNL     1      34.180 -10.201 -23.966  0.00  0.00    -0.056 C 
BRANCH  18  19
ATOM     19  N   UNL     1      32.960  -9.443 -23.695  0.00  0.00    +0.388 N 
ATOM     20  H   UNL     1      32.398  -9.420 -24.546  0.00  0.00    -0.080 HD
BRANCH  19  21
ATOM     21  C   UNL     1      32.178 -10.091 -22.642  0.00  0.00    -0.077 C 
ATOM     22  C   UNL     1      32.055  -9.198 -21.420  0.00  0.00    -0.025 C 
ENDBRANCH  19  21
BRANCH  19  23
ATOM     23  C   UNL     1      33.286  -8.068 -23.317  0.00  0.00    -0.077 C 
ATOM     24  C   UNL     1      34.760  -7.773 -23.534  0.00  0.00    -0.025 C 
ENDBRANCH  19  23
ENDBRANCH  18  19
ENDBRANCH  17  18
ENDBRANCH   2  17
TORSDOF 8
ENDMDL
MODEL 4
REMARK VINA RESULT:      -7.4      6.405      9.873
REMARK  Name = 4168
REMARK  8 active torsions:
REMARK  status: ('A' for Active; 'I' for Inactive)
REMARK    1  A    between atoms: N_2  and  C_17
REMARK    2  A    between atoms: C_3  and  C_6
REMARK    3  A    between atoms: C_7  and  O_15
REMARK    4  A    between atoms: C_10  and  N_12
REMARK    5  A    between atoms: C_17  and  C_18
REMARK    6  A    between atoms: C_18  and  N_19
REMARK    7  A    between atoms: N_19  and  C_21
REMARK    8  A    between atoms: N_19  and  C_23
REMARK                            x       y       z     vdW  Elec       q    Type
REMARK                         _______ _______ _______ _____ _____    ______ ____
ROOT
ATOM      1  O   UNL     1      32.133 -15.923 -20.939  0.00  0.00    -0.270 OA
ATOM      2  N   UNL     1      34.383 -15.417 -21.190  0.00  0.00    -0.303 N 
ATOM      3  C   UNL     1      33.025 -15.119 -21.200  0.00  0.00    +0.249 C 
ATOM      4  H   UNL     1      35.024 -14.703 -21.415  0.00  0.00    +0.150 HD
ENDROOT
BRANCH   3   6
ATOM      5 CL   UNL     1      30.768 -10.705 -19.840  0.00  0.00    -0.081 Cl
ATOM      6  C   UNL     1      32.662 -13.730 -21.580  0.00  0.00    +0.088 C 
ATOM      7  C   UNL     1      33.010 -13.247 -22.825  0.00  0.00    +0.144 C 
ATOM      8  C   UNL     1      31.978 -12.962 -20.660  0.00  0.00    +0.020 C 
ATOM      9  C   UNL     1      32.659 -11.940 -23.164  0.00  0.00    +0.052 C 
ATOM     10  C   UNL     1      31.968 -11.144 -22.251  0.00  0.00    +0.055 C 
ATOM     11  C   UNL     1      31.626 -11.656 -20.998  0.00  0.00    +0.071 C 
BRANCH  10  12
ATOM     12  N   UNL     1      31.625  -9.825 -22.624  0.00  0.00    -0.356 N 
ATOM     13  H   UNL     1      31.146  -9.244 -21.989  0.00  0.00    +0.142 HD
ATOM     14  H   UNL     1      31.864  -9.487 -23.516  0.00  0.00    +0.142 HD
ENDBRANCH  10  12
BRANCH   7  15
ATOM     15  O   UNL     1      33.684 -14.009 -23.731  0.00  0.00    -0.471 OA
ATOM     16  C   UNL     1      33.073 -14.192 -25.006  0.00  0.00    +0.252 C 
ENDBRANCH   7  15
ENDBRANCH   3   6
BRANCH   2  17
ATOM     17  C   UNL     1      34.890 -16.722 -20.867  0.00  0.00    +0.067 C 
BRANCH  17  18
ATOM     18  C   UNL     1      35.381 -17.446 -22.112  0.00  0.00    -0.056 C 
BRANCH  18  19
ATOM     19  N   UNL     1      34.480 -18.548 -22.447  0.00  0.00    +0.388 N 
ATOM     20  H   UNL     1      33.522 -18.199 -22.429  0.00  0.00    -0.080 HD
BRANCH  19  21
ATOM     21  C   UNL     1      34.764 -19.049 -23.792  0.00  0.00    -0.077 C 
ATOM     22  C   UNL     1      34.621 -17.949 -24.830  0.00  0.00    -0.025 C 
ENDBRANCH  19  21
BRANCH  19  23
ATOM     23  C   UNL     1      34.601 -19.624 -21.464  0.00  0.00    -0.077 C 
ATOM     24  C   UNL     1      33.261 -19.935 -20.822  0.00  0.00    -0.025 C 
ENDBRANCH  19  23
ENDBRANCH  18  19
ENDBRANCH  17  18
ENDBRANCH   2  17
TORSDOF 8
ENDMDL
MODEL 5
REMARK VINA RESULT:      -7.4      1.924      3.233
REMARK  Name = 4168
REMARK  8 active torsions:
REMARK  status: ('A' for Active; 'I' for Inactive)
REMARK    1  A    between atoms: N_2  and  C_17
REMARK    2  A    between atoms: C_3  and  C_6
REMARK    3  A    between atoms: C_7  and  O_15
REMARK    4  A    between atoms: C_10  and  N_12
REMARK    5  A    between atoms: C_17  and  C_18
REMARK    6  A    between atoms: C_18  and  N_19
REMARK    7  A    between atoms: N_19  and  C_21
REMARK    8  A    between atoms: N_19  and  C_23
REMARK                            x       y       z     vdW  Elec       q    Type
REMARK                         _______ _______ _______ _____ _____    ______ ____
ROOT
ATOM      1  O   UNL     1      33.864 -23.432 -19.561  0.00  0.00    -0.270 OA
ATOM      2  N   UNL     1      32.908 -21.372 -19.089  0.00  0.00    -0.303 N 
ATOM      3  C   UNL     1      33.444 -22.609 -18.751  0.00  0.00    +0.249 C 
ATOM      4  H   UNL     1      32.597 -20.780 -18.367  0.00  0.00    +0.150 HD
ENDROOT
BRANCH   3   6
ATOM      5 CL   UNL     1      36.294 -23.752 -14.627  0.00  0.00    -0.081 Cl
ATOM      6  C   UNL     1      33.475 -22.935 -17.302  0.00  0.00    +0.088 C 
ATOM      7  C   UNL     1      32.296 -23.006 -16.590  0.00  0.00    +0.144 C 
ATOM      8  C   UNL     1      34.703 -23.160 -16.712  0.00  0.00    +0.020 C 
ATOM      9  C   UNL     1      32.345 -23.315 -15.230  0.00  0.00    +0.052 C 
ATOM     10  C   UNL     1      33.573 -23.547 -14.612  0.00  0.00    +0.055 C 
ATOM     11  C   UNL     1      34.753 -23.470 -15.353  0.00  0.00    +0.071 C 
BRANCH  10  12
ATOM     12  N   UNL     1      33.591 -23.858 -13.234  0.00  0.00    -0.356 N 
ATOM     13  H   UNL     1      34.370 -23.611 -12.684  0.00  0.00    +0.142 HD
ATOM     14  H   UNL     1      32.827 -24.323 -12.824  0.00  0.00    +0.142 HD
ENDBRANCH  10  12
BRANCH   7  15
ATOM     15  O   UNL     1      31.085 -22.785 -17.177  0.00  0.00    -0.471 OA
ATOM     16  C   UNL     1      29.927 -22.996 -16.372  0.00  0.00    +0.252 C 
ENDBRANCH   7  15
ENDBRANCH   3   6
BRANCH   2  17
ATOM     17  C   UNL     1      32.787 -20.923 -20.449  0.00  0.00    +0.067 C 
BRANCH  17  18
ATOM     18  C   UNL     1      33.524 -19.610 -20.664  0.00  0.00    -0.056 C 
BRANCH  18  19
ATOM     19  N   UNL     1      34.692 -19.816 -21.518  0.00  0.00    +0.388 N 
ATOM     20  H   UNL     1      34.740 -20.804 -21.766  0.00  0.00    -0.080 HD
BRANCH  19  21
ATOM     21  C   UNL     1      34.570 -19.035 -22.749  0.00  0.00    -0.077 C 
ATOM     22  C   UNL     1      35.851 -18.276 -23.047  0.00  0.00    -0.025 C 
ENDBRANCH  19  21
BRANCH  19  23
ATOM     23  C   UNL     1      35.917 -19.456 -20.803  0.00  0.00    -0.077 C 
ATOM     24  C   UNL     1      36.444 -20.627 -19.993  0.00  0.00    -0.025 C 
ENDBRANCH  19  23
ENDBRANCH  18  19
ENDBRANCH  17  18
ENDBRANCH   2  17
TORSDOF 8
ENDMDL
MODEL 6
REMARK VINA RESULT:      -7.4      8.991     12.336
REMARK  Name = 4168
REMARK  8 active torsions:
REMARK  status: ('A' for Active; 'I' for Inactive)
REMARK    1  A    between atoms: N_2  and  C_17
REMARK    2  A    between atoms: C_3  and  C_6
REMARK    3  A    between atoms: C_7  and  O_15
REMARK    4  A    between atoms: C_10  and  N_12
REMARK    5  A    between atoms: C_17  and  C_18
REMARK    6  A    between atoms: C_18  and  N_19
REMARK    7  A    between atoms: N_19  and  C_21
REMARK    8  A    between atoms: N_19  and  C_23
REMARK                            x       y       z     vdW  Elec       q    Type
REMARK                         _______ _______ _______ _____ _____    ______ ____
ROOT
ATOM      1  O   UNL     1      33.821 -12.110 -25.602  0.00  0.00    -0.270 OA
ATOM      2  N   UNL     1      33.818 -13.147 -23.527  0.00  0.00    -0.303 N 
ATOM      3  C   UNL     1      33.700 -12.056 -24.380  0.00  0.00    +0.249 C 
ATOM      4  H   UNL     1      33.705 -13.003 -22.559  0.00  0.00    +0.150 HD
ENDROOT
BRANCH   3   6
ATOM      5 CL   UNL     1      34.944  -7.083 -23.993  0.00  0.00    -0.081 Cl
ATOM      6  C   UNL     1      33.432 -10.746 -23.735  0.00  0.00    +0.088 C 
ATOM      7  C   UNL     1      32.435 -10.639 -22.787  0.00  0.00    +0.144 C 
ATOM      8  C   UNL     1      34.204  -9.665 -24.111  0.00  0.00    +0.020 C 
ATOM      9  C   UNL     1      32.198  -9.400 -22.192  0.00  0.00    +0.052 C 
ATOM     10  C   UNL     1      32.966  -8.294 -22.555  0.00  0.00    +0.055 C 
ATOM     11  C   UNL     1      33.970  -8.427 -23.516  0.00  0.00    +0.071 C 
BRANCH  10  12
ATOM     12  N   UNL     1      32.704  -7.052 -21.933  0.00  0.00    -0.356 N 
ATOM     13  H   UNL     1      33.319  -6.295 -22.070  0.00  0.00    +0.142 HD
ATOM     14  H   UNL     1      31.909  -6.944 -21.364  0.00  0.00    +0.142 HD
ENDBRANCH  10  12
BRANCH   7  15
ATOM     15  O   UNL     1      31.675 -11.709 -22.417  0.00  0.00    -0.471 OA
ATOM     16  C   UNL     1      31.439 -11.884 -21.022  0.00  0.00    +0.252 C 
ENDBRANCH   7  15
ENDBRANCH   3   6
BRANCH   2  17
ATOM     17  C   UNL     1      34.100 -14.475 -23.998  0.00  0.00    +0.067 C 
BRANCH  17  18
ATOM     18  C   UNL     1      34.602 -15.365 -22.870  0.00  0.00    -0.056 C 
BRANCH  18  19
ATOM     19  N   UNL     1      35.313 -16.521 -23.413  0.00  0.00    +0.388 N 
ATOM     20  H   UNL     1      36.259 -16.232 -23.661  0.00  0.00    -0.080 HD
BRANCH  19  21
ATOM     21  C   UNL     1      35.402 -17.584 -22.412  0.00  0.00    -0.077 C 
ATOM     22  C   UNL     1      34.943 -17.094 -21.049  0.00  0.00    -0.025 C 
ENDBRANCH  19  21
BRANCH  19  23
ATOM     23  C   UNL     1      34.646 -17.010 -24.620  0.00  0.00    -0.077 C 
ATOM     24  C   UNL     1      34.569 -18.527 -24.629  0.00  0.00    -0.025 C 
ENDBRANCH  19  23
ENDBRANCH  18  19
ENDBRANCH  17  18
ENDBRANCH   2  17
TORSDOF 8
ENDMDL
MODEL 7
REMARK VINA RESULT:      -7.4      3.154      6.573
REMARK  Name = 4168
REMARK  8 active torsions:
REMARK  status: ('A' for Active; 'I' for Inactive)
REMARK    1  A    between atoms: N_2  and  C_17
REMARK    2  A    between atoms: C_3  and  C_6
REMARK    3  A    between atoms: C_7  and  O_15
REMARK    4  A    between atoms: C_10  and  N_12
REMARK    5  A    between atoms: C_17  and  C_18
REMARK    6  A    between atoms: C_18  and  N_19
REMARK    7  A    between atoms: N_19  and  C_21
REMARK    8  A    between atoms: N_19  and  C_23
REMARK                            x       y       z     vdW  Elec       q    Type
REMARK                         _______ _______ _______ _____ _____    ______ ____
ROOT
ATOM      1  O   UNL     1      35.514 -25.352 -15.466  0.00  0.00    -0.270 OA
ATOM      2  N   UNL     1      36.135 -23.130 -15.230  0.00  0.00    -0.303 N 
ATOM      3  C   UNL     1      35.234 -24.156 -15.491  0.00  0.00    +0.249 C 
ATOM      4  H   UNL     1      35.816 -22.199 -15.276  0.00  0.00    +0.150 HD
ENDROOT
BRANCH   3   6
ATOM      5 CL   UNL     1      30.314 -23.795 -14.045  0.00  0.00    -0.081 Cl
ATOM      6  C   UNL     1      33.853 -23.741 -15.845  0.00  0.00    +0.088 C 
ATOM      7  C   UNL     1      33.600 -23.184 -17.082  0.00  0.00    +0.144 C 
ATOM      8  C   UNL     1      32.857 -23.931 -14.909  0.00  0.00    +0.020 C 
ATOM      9  C   UNL     1      32.296 -22.800 -17.396  0.00  0.00    +0.052 C 
ATOM     10  C   UNL     1      31.273 -22.983 -16.467  0.00  0.00    +0.055 C 
ATOM     11  C   UNL     1      31.553 -23.549 -15.222  0.00  0.00    +0.071 C 
BRANCH  10  12
ATOM     12  N   UNL     1      29.962 -22.586 -16.814  0.00  0.00    -0.356 N 
ATOM     13  H   UNL     1      29.302 -22.398 -16.108  0.00  0.00    +0.142 HD
ATOM     14  H   UNL     1      29.708 -22.500 -17.761  0.00  0.00    +0.142 HD
ENDBRANCH  10  12
BRANCH   7  15
ATOM     15  O   UNL     1      34.587 -22.998 -18.004  0.00  0.00    -0.471 OA
ATOM     16  C   UNL     1      34.210 -22.411 -19.247  0.00  0.00    +0.252 C 
ENDBRANCH   7  15
ENDBRANCH   3   6
BRANCH   2  17
ATOM     17  C   UNL     1      37.513 -23.371 -14.898  0.00  0.00    +0.067 C 
BRANCH  17  18
ATOM     18  C   UNL     1      37.692 -23.575 -13.402  0.00  0.00    -0.056 C 
BRANCH  18  19
ATOM     19  N   UNL     1      38.309 -24.873 -13.136  0.00  0.00    +0.388 N 
ATOM     20  H   UNL     1      39.087 -24.735 -12.491  0.00  0.00    -0.080 HD
BRANCH  19  21
ATOM     21  C   UNL     1      37.346 -25.780 -12.511  0.00  0.00    -0.077 C 
ATOM     22  C   UNL     1      36.177 -25.014 -11.916  0.00  0.00    -0.025 C 
ENDBRANCH  19  21
BRANCH  19  23
ATOM     23  C   UNL     1      38.830 -25.454 -14.373  0.00  0.00    -0.077 C 
ATOM     24  C   UNL     1      40.317 -25.745 -14.260  0.00  0.00    -0.025 C 
ENDBRANCH  19  23
ENDBRANCH  18  19
ENDBRANCH  17  18
ENDBRANCH   2  17
TORSDOF 8
ENDMDL
MODEL 8
REMARK VINA RESULT:      -7.3      3.433      6.987
REMARK  Name = 4168
REMARK  8 active torsions:
REMARK  status: ('A' for Active; 'I' for Inactive)
REMARK    1  A    between atoms: N_2  and  C_17
REMARK    2  A    between atoms: C_3  and  C_6
REMARK    3  A    between atoms: C_7  and  O_15
REMARK    4  A    between atoms: C_10  and  N_12
REMARK    5  A    between atoms: C_17  and  C_18
REMARK    6  A    between atoms: C_18  and  N_19
REMARK    7  A    between atoms: N_19  and  C_21
REMARK    8  A    between atoms: N_19  and  C_23
REMARK                            x       y       z     vdW  Elec       q    Type
REMARK                         _______ _______ _______ _____ _____    ______ ____
ROOT
ATOM      1  O   UNL     1      36.237 -23.452 -15.089  0.00  0.00    -0.270 OA
ATOM      2  N   UNL     1      35.608 -25.684 -15.084  0.00  0.00    -0.303 N 
ATOM      3  C   UNL     1      35.375 -24.319 -15.203  0.00  0.00    +0.249 C 
ATOM      4  H   UNL     1      34.849 -26.303 -15.192  0.00  0.00    +0.150 HD
ENDROOT
BRANCH   3   6
ATOM      5 CL   UNL     1      30.579 -23.910 -13.394  0.00  0.00    -0.081 Cl
ATOM      6  C   UNL     1      33.969 -23.915 -15.463  0.00  0.00    +0.088 C 
ATOM      7  C   UNL     1      33.621 -23.399 -16.694  0.00  0.00    +0.144 C 
ATOM      8  C   UNL     1      33.048 -24.075 -14.447  0.00  0.00    +0.020 C 
ATOM      9  C   UNL     1      32.295 -23.026 -16.919  0.00  0.00    +0.052 C 
ATOM     10  C   UNL     1      31.347 -23.178 -15.908  0.00  0.00    +0.055 C 
ATOM     11  C   UNL     1      31.723 -23.703 -14.671  0.00  0.00    +0.071 C 
BRANCH  10  12
ATOM     12  N   UNL     1      30.012 -22.793 -16.167  0.00  0.00    -0.356 N 
ATOM     13  H   UNL     1      29.681 -21.921 -15.848  0.00  0.00    +0.142 HD
ATOM     14  H   UNL     1      29.413 -23.395 -16.663  0.00  0.00    +0.142 HD
ENDBRANCH  10  12
BRANCH   7  15
ATOM     15  O   UNL     1      34.533 -23.244 -17.695  0.00  0.00    -0.471 OA
ATOM     16  C   UNL     1      34.147 -22.435 -18.803  0.00  0.00    +0.252 C 
ENDBRANCH   7  15
ENDBRANCH   3   6
BRANCH   2  17
ATOM     17  C   UNL     1      36.909 -26.229 -14.809  0.00  0.00    +0.067 C 
BRANCH  17  18
ATOM     18  C   UNL     1      37.197 -26.242 -13.315  0.00  0.00    -0.056 C 
BRANCH  18  19
ATOM     19  N   UNL     1      38.470 -25.579 -13.037  0.00  0.00    +0.388 N 
ATOM     20  H   UNL     1      39.056 -26.218 -12.500  0.00  0.00    -0.080 HD
BRANCH  19  21
ATOM     21  C   UNL     1      39.161 -25.254 -14.285  0.00  0.00    -0.077 C 
ATOM     22  C   UNL     1      40.544 -25.882 -14.325  0.00  0.00    -0.025 C 
ENDBRANCH  19  21
BRANCH  19  23
ATOM     23  C   UNL     1      38.253 -24.370 -12.243  0.00  0.00    -0.077 C 
ATOM     24  C   UNL     1      36.837 -24.317 -11.697  0.00  0.00    -0.025 C 
ENDBRANCH  19  23
ENDBRANCH  18  19
ENDBRANCH  17  18
ENDBRANCH   2  17
TORSDOF 8
ENDMDL
MODEL 9
REMARK VINA RESULT:      -7.3      6.097      9.548
REMARK  Name = 4168
REMARK  8 active torsions:
REMARK  status: ('A' for Active; 'I' for Inactive)
REMARK    1  A    between atoms: N_2  and  C_17
REMARK    2  A    between atoms: C_3  and  C_6
REMARK    3  A    between atoms: C_7  and  O_15
REMARK    4  A    between atoms: C_10  and  N_12
REMARK    5  A    between atoms: C_17  and  C_18
REMARK    6  A    between atoms: C_18  and  N_19
REMARK    7  A    between atoms: N_19  and  C_21
REMARK    8  A    between atoms: N_19  and  C_23
REMARK                            x       y       z     vdW  Elec       q    Type
REMARK                         _______ _______ _______ _____ _____    ______ ____
ROOT
ATOM      1  O   UNL     1      33.947 -16.532 -24.606  0.00  0.00    -0.270 OA
ATOM      2  N   UNL     1      34.746 -16.591 -22.429  0.00  0.00    -0.303 N 
ATOM      3  C   UNL     1      34.094 -16.003 -23.507  0.00  0.00    +0.249 C 
ATOM      4  H   UNL     1      34.814 -16.086 -21.586  0.00  0.00    +0.150 HD
ENDROOT
BRANCH   3   6
ATOM      5 CL   UNL     1      34.143 -11.069 -24.951  0.00  0.00    -0.081 Cl
ATOM      6  C   UNL     1      33.574 -14.629 -23.287  0.00  0.00    +0.088 C 
ATOM      7  C   UNL     1      32.660 -14.395 -22.281  0.00  0.00    +0.144 C 
ATOM      8  C   UNL     1      34.034 -13.620 -24.109  0.00  0.00    +0.020 C 
ATOM      9  C   UNL     1      32.183 -13.098 -22.089  0.00  0.00    +0.052 C 
ATOM     10  C   UNL     1      32.633 -12.062 -22.907  0.00  0.00    +0.055 C 
ATOM     11  C   UNL     1      33.559 -12.323 -23.918  0.00  0.00    +0.071 C 
BRANCH  10  12
ATOM     12  N   UNL     1      32.133 -10.758 -22.688  0.00  0.00    -0.356 N 
ATOM     13  H   UNL     1      31.175 -10.623 -22.503  0.00  0.00    +0.142 HD
ATOM     14  H   UNL     1      32.742  -9.986 -22.720  0.00  0.00    +0.142 HD
ENDBRANCH  10  12
BRANCH   7  15
ATOM     15  O   UNL     1      32.209 -15.394 -21.469  0.00  0.00    -0.471 OA
ATOM     16  C   UNL     1      32.479 -15.267 -20.076  0.00  0.00    +0.252 C 
ENDBRANCH   7  15
ENDBRANCH   3   6
BRANCH   2  17
ATOM     17  C   UNL     1      35.324 -17.905 -22.494  0.00  0.00    +0.067 C 
BRANCH  17  18
ATOM     18  C   UNL     1      35.917 -18.314 -21.154  0.00  0.00    -0.056 C 
BRANCH  18  19
ATOM     19  N   UNL     1      35.178 -19.445 -20.595  0.00  0.00    +0.388 N 
ATOM     20  H   UNL     1      34.909 -19.214 -19.639  0.00  0.00    -0.080 HD
BRANCH  19  21
ATOM     21  C   UNL     1      33.963 -19.696 -21.370  0.00  0.00    -0.077 C 
ATOM     22  C   UNL     1      32.805 -20.080 -20.465  0.00  0.00    -0.025 C 
ENDBRANCH  19  21
BRANCH  19  23
ATOM     23  C   UNL     1      36.021 -20.640 -20.564  0.00  0.00    -0.077 C 
ATOM     24  C   UNL     1      35.954 -21.325 -19.210  0.00  0.00    -0.025 C 
ENDBRANCH  19  23
ENDBRANCH  18  19
ENDBRANCH  17  18
ENDBRANCH   2  17
TORSDOF 8
ENDMDL
