MODEL 1
REMARK VINA RESULT:      -7.6      0.000      0.000
REMARK  Name = 11644726
REMARK  6 active torsions:
REMARK  status: ('A' for Active; 'I' for Inactive)
REMARK    1  A    between atoms: C_1  and  O_2
REMARK    2  A    between atoms: C_1  and  C_4
REMARK    3  A    between atoms: C_1  and  C_12
REMARK    4  A    between atoms: C_4  and  N_6
REMARK    5  A    between atoms: C_12  and  N_13
REMARK    6  A    between atoms: C_16  and  N_21
REMARK                            x       y       z     vdW  Elec       q    Type
REMARK                         _______ _______ _______ _____ _____    ______ ____
ROOT
ATOM      1  C   UNL     1      34.660 -24.126 -14.403  0.00  0.00    +0.110 C 
ENDROOT
BRANCH   1   2
ATOM      2  O   UNL     1      34.995 -25.516 -14.425  0.00  0.00    -0.385 OA
ATOM      3  H   UNL     1      34.395 -25.983 -15.027  0.00  0.00    +0.210 HD
ENDBRANCH   1   2
BRANCH   1   4
ATOM      4  C   UNL     1      33.319 -23.975 -13.677  0.00  0.00    -0.045 C 
BRANCH   4   6
ATOM      5  O   UNL     1      29.411 -24.119 -15.201  0.00  0.00    -0.358 OA
ATOM      6  N   UNL     1      32.183 -24.224 -14.562  0.00  0.00    +0.392 N 
ATOM      7  C   UNL     1      31.212 -25.124 -13.923  0.00  0.00    -0.045 C 
ATOM      8  C   UNL     1      31.529 -22.963 -14.939  0.00  0.00    -0.045 C 
ATOM      9  C   UNL     1      30.031 -25.360 -14.861  0.00  0.00    +0.119 C 
ATOM     10  C   UNL     1      30.338 -23.249 -15.851  0.00  0.00    +0.119 C 
ATOM     11  H   UNL     1      32.536 -24.673 -15.407  0.00  0.00    -0.079 HD
ENDBRANCH   4   6
ENDBRANCH   1   4
BRANCH   1  12
ATOM     12  C   UNL     1      35.796 -23.371 -13.701  0.00  0.00    +0.125 C 
BRANCH  12  13
ATOM     13  N   UNL     1      37.117 -23.867 -14.092  0.00  0.00    -0.254 N 
ATOM     14  N   UNL     1      38.943 -24.138 -15.296  0.00  0.00    -0.230 NA
ATOM     15  C   UNL     1      37.778 -23.532 -15.229  0.00  0.00    +0.114 C 
ATOM     16  C   UNL     1      37.883 -24.730 -13.382  0.00  0.00    +0.218 C 
ATOM     17  C   UNL     1      39.014 -24.887 -14.148  0.00  0.00    +0.140 C 
ATOM     18  C   UNL     1      37.224 -22.602 -16.233  0.00  0.00    +0.069 C 
BRANCH  16  21
ATOM     19  O   UNL     1      36.944 -26.412 -12.114  0.00  0.00    -0.125 OA
ATOM     20  O   UNL     1      37.760 -24.656 -11.080  0.00  0.00    -0.125 OA
ATOM     21  N   UNL     1      37.516 -25.285 -12.151  0.00  0.00    +0.074 N 
ENDBRANCH  16  21
ENDBRANCH  12  13
ENDBRANCH   1  12
TORSDOF 6
ENDMDL
MODEL 2
REMARK VINA RESULT:      -7.6      1.616      1.837
REMARK  Name = 11644726
REMARK  6 active torsions:
REMARK  status: ('A' for Active; 'I' for Inactive)
REMARK    1  A    between atoms: C_1  and  O_2
REMARK    2  A    between atoms: C_1  and  C_4
REMARK    3  A    between atoms: C_1  and  C_12
REMARK    4  A    between atoms: C_4  and  N_6
REMARK    5  A    between atoms: C_12  and  N_13
REMARK    6  A    between atoms: C_16  and  N_21
REMARK                            x       y       z     vdW  Elec       q    Type
REMARK                         _______ _______ _______ _____ _____    ______ ____
ROOT
ATOM      1  C   UNL     1      34.355 -24.582 -13.401  0.00  0.00    +0.110 C 
ENDROOT
BRANCH   1   2
ATOM      2  O   UNL     1      34.561 -24.910 -12.024  0.00  0.00    -0.385 OA
ATOM      3  H   UNL     1      33.974 -24.369 -11.472  0.00  0.00    +0.210 HD
ENDBRANCH   1   2
BRANCH   1   4
ATOM      4  C   UNL     1      33.154 -23.634 -13.486  0.00  0.00    -0.045 C 
BRANCH   4   6
ATOM      5  O   UNL     1      29.483 -24.308 -15.405  0.00  0.00    -0.358 OA
ATOM      6  N   UNL     1      32.154 -24.098 -14.446  0.00  0.00    +0.392 N 
ATOM      7  C   UNL     1      31.169 -24.972 -13.792  0.00  0.00    -0.045 C 
ATOM      8  C   UNL     1      31.475 -22.962 -15.083  0.00  0.00    -0.045 C 
ATOM      9  C   UNL     1      30.131 -25.434 -14.811  0.00  0.00    +0.119 C 
ATOM     10  C   UNL     1      30.428 -23.471 -16.070  0.00  0.00    +0.119 C 
ATOM     11  H   UNL     1      32.637 -24.635 -15.166  0.00  0.00    -0.079 HD
ENDBRANCH   4   6
ENDBRANCH   1   4
BRANCH   1  12
ATOM     12  C   UNL     1      35.644 -23.946 -13.939  0.00  0.00    +0.125 C 
BRANCH  12  13
ATOM     13  N   UNL     1      36.832 -24.735 -13.609  0.00  0.00    -0.254 N 
ATOM     14  N   UNL     1      38.338 -26.340 -13.728  0.00  0.00    -0.230 NA
ATOM     15  C   UNL     1      37.233 -25.860 -14.253  0.00  0.00    +0.114 C 
ATOM     16  C   UNL     1      37.714 -24.465 -12.617  0.00  0.00    +0.218 C 
ATOM     17  C   UNL     1      38.643 -25.475 -12.707  0.00  0.00    +0.140 C 
ATOM     18  C   UNL     1      36.493 -26.435 -15.395  0.00  0.00    +0.069 C 
BRANCH  16  21
ATOM     19  O   UNL     1      36.857 -23.443 -10.736  0.00  0.00    -0.125 OA
ATOM     20  O   UNL     1      38.287 -22.326 -11.972  0.00  0.00    -0.125 OA
ATOM     21  N   UNL     1      37.615 -23.375 -11.746  0.00  0.00    +0.074 N 
ENDBRANCH  16  21
ENDBRANCH  12  13
ENDBRANCH   1  12
TORSDOF 6
ENDMDL
MODEL 3
REMARK VINA RESULT:      -7.6     10.299     12.286
REMARK  Name = 11644726
REMARK  6 active torsions:
REMARK  status: ('A' for Active; 'I' for Inactive)
REMARK    1  A    between atoms: C_1  and  O_2
REMARK    2  A    between atoms: C_1  and  C_4
REMARK    3  A    between atoms: C_1  and  C_12
REMARK    4  A    between atoms: C_4  and  N_6
REMARK    5  A    between atoms: C_12  and  N_13
REMARK    6  A    between atoms: C_16  and  N_21
REMARK                            x       y       z     vdW  Elec       q    Type
REMARK                         _______ _______ _______ _____ _____    ______ ____
ROOT
ATOM      1  C   UNL     1      34.818 -17.929 -22.991  0.00  0.00    +0.110 C 
ENDROOT
BRANCH   1   2
ATOM      2  O   UNL     1      34.809 -18.784 -24.136  0.00  0.00    -0.385 OA
ATOM      3  H   UNL     1      35.625 -18.653 -24.644  0.00  0.00    +0.210 HD
ENDBRANCH   1   2
BRANCH   1   4
ATOM      4  C   UNL     1      35.706 -18.577 -21.924  0.00  0.00    -0.045 C 
BRANCH   4   6
ATOM      5  O   UNL     1      34.018 -21.323 -19.236  0.00  0.00    -0.358 OA
ATOM      6  N   UNL     1      35.106 -19.791 -21.374  0.00  0.00    +0.392 N 
ATOM      7  C   UNL     1      35.962 -20.366 -20.326  0.00  0.00    -0.045 C 
ATOM      8  C   UNL     1      33.768 -19.515 -20.835  0.00  0.00    -0.045 C 
ATOM      9  C   UNL     1      35.312 -21.624 -19.759  0.00  0.00    +0.119 C 
ATOM     10  C   UNL     1      33.169 -20.793 -20.253  0.00  0.00    +0.119 C 
ATOM     11  H   UNL     1      35.019 -20.469 -22.131  0.00  0.00    -0.079 HD
ENDBRANCH   4   6
ENDBRANCH   1   4
BRANCH   1  12
ATOM     12  C   UNL     1      35.334 -16.551 -23.427  0.00  0.00    +0.125 C 
BRANCH  12  13
ATOM     13  N   UNL     1      34.284 -15.531 -23.403  0.00  0.00    -0.254 N 
ATOM     14  N   UNL     1      32.949 -13.967 -22.610  0.00  0.00    -0.230 NA
ATOM     15  C   UNL     1      33.919 -14.805 -22.316  0.00  0.00    +0.114 C 
ATOM     16  C   UNL     1      33.519 -15.153 -24.456  0.00  0.00    +0.218 C 
ATOM     17  C   UNL     1      32.694 -14.180 -23.941  0.00  0.00    +0.140 C 
ATOM     18  C   UNL     1      34.557 -14.965 -20.995  0.00  0.00    +0.069 C 
BRANCH  16  21
ATOM     19  O   UNL     1      33.833 -14.932 -26.729  0.00  0.00    -0.125 OA
ATOM     20  O   UNL     1      33.505 -16.942 -25.910  0.00  0.00    -0.125 OA
ATOM     21  N   UNL     1      33.622 -15.693 -25.742  0.00  0.00    +0.074 N 
ENDBRANCH  16  21
ENDBRANCH  12  13
ENDBRANCH   1  12
TORSDOF 6
ENDMDL
MODEL 4
REMARK VINA RESULT:      -7.4     11.141     13.298
REMARK  Name = 11644726
REMARK  6 active torsions:
REMARK  status: ('A' for Active; 'I' for Inactive)
REMARK    1  A    between atoms: C_1  and  O_2
REMARK    2  A    between atoms: C_1  and  C_4
REMARK    3  A    between atoms: C_1  and  C_12
REMARK    4  A    between atoms: C_4  and  N_6
REMARK    5  A    between atoms: C_12  and  N_13
REMARK    6  A    between atoms: C_16  and  N_21
REMARK                            x       y       z     vdW  Elec       q    Type
REMARK                         _______ _______ _______ _____ _____    ______ ____
ROOT
ATOM      1  C   UNL     1      34.334 -16.754 -24.474  0.00  0.00    +0.110 C 
ENDROOT
BRANCH   1   2
ATOM      2  O   UNL     1      34.516 -16.503 -25.870  0.00  0.00    -0.385 OA
ATOM      3  H   UNL     1      34.345 -17.317 -26.370  0.00  0.00    +0.210 HD
ENDBRANCH   1   2
BRANCH   1   4
ATOM      4  C   UNL     1      35.034 -18.075 -24.137  0.00  0.00    -0.045 C 
BRANCH   4   6
ATOM      5  O   UNL     1      35.624 -19.949 -20.429  0.00  0.00    -0.358 OA
ATOM      6  N   UNL     1      35.099 -18.311 -22.696  0.00  0.00    +0.392 N 
ATOM      7  C   UNL     1      34.188 -19.397 -22.304  0.00  0.00    -0.045 C 
ATOM      8  C   UNL     1      36.471 -18.631 -22.281  0.00  0.00    -0.045 C 
ATOM      9  C   UNL     1      34.282 -19.632 -20.800  0.00  0.00    +0.119 C 
ATOM     10  C   UNL     1      36.511 -18.887 -20.777  0.00  0.00    +0.119 C 
ATOM     11  H   UNL     1      34.807 -17.455 -22.225  0.00  0.00    -0.079 HD
ENDBRANCH   4   6
ENDBRANCH   1   4
BRANCH   1  12
ATOM     12  C   UNL     1      34.913 -15.567 -23.694  0.00  0.00    +0.125 C 
BRANCH  12  13
ATOM     13  N   UNL     1      33.872 -14.764 -23.051  0.00  0.00    -0.254 N 
ATOM     14  N   UNL     1      32.573 -13.967 -21.457  0.00  0.00    -0.230 NA
ATOM     15  C   UNL     1      33.546 -14.807 -21.734  0.00  0.00    +0.114 C 
ATOM     16  C   UNL     1      33.076 -13.854 -23.665  0.00  0.00    +0.218 C 
ATOM     17  C   UNL     1      32.275 -13.371 -22.657  0.00  0.00    +0.140 C 
ATOM     18  C   UNL     1      34.226 -15.697 -20.771  0.00  0.00    +0.069 C 
BRANCH  16  21
ATOM     19  O   UNL     1      32.547 -14.289 -25.866  0.00  0.00    -0.125 OA
ATOM     20  O   UNL     1      33.773 -12.525 -25.415  0.00  0.00    -0.125 OA
ATOM     21  N   UNL     1      33.134 -13.547 -25.028  0.00  0.00    +0.074 N 
ENDBRANCH  16  21
ENDBRANCH  12  13
ENDBRANCH   1  12
TORSDOF 6
ENDMDL
MODEL 5
REMARK VINA RESULT:      -7.3      2.248      3.180
REMARK  Name = 11644726
REMARK  6 active torsions:
REMARK  status: ('A' for Active; 'I' for Inactive)
REMARK    1  A    between atoms: C_1  and  O_2
REMARK    2  A    between atoms: C_1  and  C_4
REMARK    3  A    between atoms: C_1  and  C_12
REMARK    4  A    between atoms: C_4  and  N_6
REMARK    5  A    between atoms: C_12  and  N_13
REMARK    6  A    between atoms: C_16  and  N_21
REMARK                            x       y       z     vdW  Elec       q    Type
REMARK                         _______ _______ _______ _____ _____    ______ ____
ROOT
ATOM      1  C   UNL     1      33.504 -24.006 -13.506  0.00  0.00    +0.110 C 
ENDROOT
BRANCH   1   2
ATOM      2  O   UNL     1      32.706 -23.154 -12.682  0.00  0.00    -0.385 OA
ATOM      3  H   UNL     1      31.784 -23.180 -12.986  0.00  0.00    +0.210 HD
ENDBRANCH   1   2
BRANCH   1   4
ATOM      4  C   UNL     1      32.965 -23.917 -14.938  0.00  0.00    -0.045 C 
BRANCH   4   6
ATOM      5  O   UNL     1      28.942 -24.263 -16.081  0.00  0.00    -0.358 OA
ATOM      6  N   UNL     1      31.513 -23.756 -14.970  0.00  0.00    +0.392 N 
ATOM      7  C   UNL     1      31.084 -23.136 -16.232  0.00  0.00    -0.045 C 
ATOM      8  C   UNL     1      30.841 -25.051 -14.792  0.00  0.00    -0.045 C 
ATOM      9  C   UNL     1      29.566 -22.989 -16.247  0.00  0.00    +0.119 C 
ATOM     10  C   UNL     1      29.327 -24.860 -14.843  0.00  0.00    +0.119 C 
ATOM     11  H   UNL     1      31.248 -23.143 -14.200  0.00  0.00    -0.079 HD
ENDBRANCH   4   6
ENDBRANCH   1   4
BRANCH   1  12
ATOM     12  C   UNL     1      34.964 -23.545 -13.399  0.00  0.00    +0.125 C 
BRANCH  12  13
ATOM     13  N   UNL     1      35.864 -24.637 -13.024  0.00  0.00    -0.254 N 
ATOM     14  N   UNL     1      37.037 -25.993 -11.742  0.00  0.00    -0.230 NA
ATOM     15  C   UNL     1      36.216 -24.966 -11.756  0.00  0.00    +0.114 C 
ATOM     16  C   UNL     1      36.481 -25.486 -13.881  0.00  0.00    +0.218 C 
ATOM     17  C   UNL     1      37.207 -26.322 -13.064  0.00  0.00    +0.140 C 
ATOM     18  C   UNL     1      35.717 -24.238 -10.572  0.00  0.00    +0.069 C 
BRANCH  16  21
ATOM     19  O   UNL     1      36.486 -24.344 -15.884  0.00  0.00    -0.125 OA
ATOM     20  O   UNL     1      36.088 -26.503 -15.913  0.00  0.00    -0.125 OA
ATOM     21  N   UNL     1      36.347 -25.442 -15.272  0.00  0.00    +0.074 N 
ENDBRANCH  16  21
ENDBRANCH  12  13
ENDBRANCH   1  12
TORSDOF 6
ENDMDL
MODEL 6
REMARK VINA RESULT:      -7.3     10.797     12.711
REMARK  Name = 11644726
REMARK  6 active torsions:
REMARK  status: ('A' for Active; 'I' for Inactive)
REMARK    1  A    between atoms: C_1  and  O_2
REMARK    2  A    between atoms: C_1  and  C_4
REMARK    3  A    between atoms: C_1  and  C_12
REMARK    4  A    between atoms: C_4  and  N_6
REMARK    5  A    between atoms: C_12  and  N_13
REMARK    6  A    between atoms: C_16  and  N_21
REMARK                            x       y       z     vdW  Elec       q    Type
REMARK                         _______ _______ _______ _____ _____    ______ ____
ROOT
ATOM      1  C   UNL     1      34.174 -16.432 -24.501  0.00  0.00    +0.110 C 
ENDROOT
BRANCH   1   2
ATOM      2  O   UNL     1      34.172 -16.145 -25.902  0.00  0.00    -0.385 OA
ATOM      3  H   UNL     1      33.290 -15.840 -26.168  0.00  0.00    +0.210 HD
ENDBRANCH   1   2
BRANCH   1   4
ATOM      4  C   UNL     1      34.944 -17.739 -24.288  0.00  0.00    -0.045 C 
BRANCH   4   6
ATOM      5  O   UNL     1      35.574 -19.981 -20.796  0.00  0.00    -0.358 OA
ATOM      6  N   UNL     1      34.944 -18.155 -22.886  0.00  0.00    +0.392 N 
ATOM      7  C   UNL     1      34.206 -19.415 -22.717  0.00  0.00    -0.045 C 
ATOM      8  C   UNL     1      36.317 -18.305 -22.387  0.00  0.00    -0.045 C 
ATOM      9  C   UNL     1      34.228 -19.834 -21.250  0.00  0.00    +0.119 C 
ATOM     10  C   UNL     1      36.291 -18.753 -20.927  0.00  0.00    +0.119 C 
ATOM     11  H   UNL     1      34.477 -17.429 -22.344  0.00  0.00    -0.079 HD
ENDBRANCH   4   6
ENDBRANCH   1   4
BRANCH   1  12
ATOM     12  C   UNL     1      34.817 -15.245 -23.771  0.00  0.00    +0.125 C 
BRANCH  12  13
ATOM     13  N   UNL     1      33.825 -14.401 -23.103  0.00  0.00    -0.254 N 
ATOM     14  N   UNL     1      32.371 -12.771 -22.806  0.00  0.00    -0.230 NA
ATOM     15  C   UNL     1      33.214 -13.321 -23.653  0.00  0.00    +0.114 C 
ATOM     16  C   UNL     1      33.363 -14.566 -21.840  0.00  0.00    +0.218 C 
ATOM     17  C   UNL     1      32.460 -13.542 -21.674  0.00  0.00    +0.140 C 
ATOM     18  C   UNL     1      33.487 -12.860 -25.028  0.00  0.00    +0.069 C 
BRANCH  16  21
ATOM     19  O   UNL     1      34.813 -15.429 -20.269  0.00  0.00    -0.125 OA
ATOM     20  O   UNL     1      33.106 -16.656 -20.901  0.00  0.00    -0.125 OA
ATOM     21  N   UNL     1      33.775 -15.584 -20.974  0.00  0.00    +0.074 N 
ENDBRANCH  16  21
ENDBRANCH  12  13
ENDBRANCH   1  12
TORSDOF 6
ENDMDL
MODEL 7
REMARK VINA RESULT:      -7.3     14.533     16.437
REMARK  Name = 11644726
REMARK  6 active torsions:
REMARK  status: ('A' for Active; 'I' for Inactive)
REMARK    1  A    between atoms: C_1  and  O_2
REMARK    2  A    between atoms: C_1  and  C_4
REMARK    3  A    between atoms: C_1  and  C_12
REMARK    4  A    between atoms: C_4  and  N_6
REMARK    5  A    between atoms: C_12  and  N_13
REMARK    6  A    between atoms: C_16  and  N_21
REMARK                            x       y       z     vdW  Elec       q    Type
REMARK                         _______ _______ _______ _____ _____    ______ ____
ROOT
ATOM      1  C   UNL     1      32.450 -12.445 -22.226  0.00  0.00    +0.110 C 
ENDROOT
BRANCH   1   2
ATOM      2  O   UNL     1      31.766 -13.689 -22.052  0.00  0.00    -0.385 OA
ATOM      3  H   UNL     1      31.109 -13.797 -22.758  0.00  0.00    +0.210 HD
ENDBRANCH   1   2
BRANCH   1   4
ATOM      4  C   UNL     1      33.212 -12.507 -23.554  0.00  0.00    -0.045 C 
BRANCH   4   6
ATOM      5  O   UNL     1      34.068 -15.872 -25.912  0.00  0.00    -0.358 OA
ATOM      6  N   UNL     1      33.111 -13.822 -24.185  0.00  0.00    +0.392 N 
ATOM      7  C   UNL     1      33.035 -13.694 -25.648  0.00  0.00    -0.045 C 
ATOM      8  C   UNL     1      34.253 -14.668 -23.813  0.00  0.00    -0.045 C 
ATOM      9  C   UNL     1      32.942 -15.077 -26.284  0.00  0.00    +0.119 C 
ATOM     10  C   UNL     1      34.133 -16.029 -24.494  0.00  0.00    +0.119 C 
ATOM     11  H   UNL     1      32.255 -14.264 -23.852  0.00  0.00    -0.079 HD
ENDBRANCH   4   6
ENDBRANCH   1   4
BRANCH   1  12
ATOM     12  C   UNL     1      31.410 -11.318 -22.197  0.00  0.00    +0.125 C 
BRANCH  12  13
ATOM     13  N   UNL     1      31.873 -10.155 -21.438  0.00  0.00    -0.254 N 
ATOM     14  N   UNL     1      32.331  -8.876 -19.702  0.00  0.00    -0.230 NA
ATOM     15  C   UNL     1      31.845 -10.035 -20.086  0.00  0.00    +0.114 C 
ATOM     16  C   UNL     1      32.402  -9.023 -21.963  0.00  0.00    +0.218 C 
ATOM     17  C   UNL     1      32.680  -8.240 -20.867  0.00  0.00    +0.140 C 
ATOM     18  C   UNL     1      31.328 -11.097 -19.200  0.00  0.00    +0.069 C 
BRANCH  16  21
ATOM     19  O   UNL     1      33.702  -9.044 -23.867  0.00  0.00    -0.125 OA
ATOM     20  O   UNL     1      31.626  -8.346 -24.027  0.00  0.00    -0.125 OA
ATOM     21  N   UNL     1      32.584  -8.796 -23.331  0.00  0.00    +0.074 N 
ENDBRANCH  16  21
ENDBRANCH  12  13
ENDBRANCH   1  12
TORSDOF 6
ENDMDL
MODEL 8
REMARK VINA RESULT:      -7.2     10.161     12.075
REMARK  Name = 11644726
REMARK  6 active torsions:
REMARK  status: ('A' for Active; 'I' for Inactive)
REMARK    1  A    between atoms: C_1  and  O_2
REMARK    2  A    between atoms: C_1  and  C_4
REMARK    3  A    between atoms: C_1  and  C_12
REMARK    4  A    between atoms: C_4  and  N_6
REMARK    5  A    between atoms: C_12  and  N_13
REMARK    6  A    between atoms: C_16  and  N_21
REMARK                            x       y       z     vdW  Elec       q    Type
REMARK                         _______ _______ _______ _____ _____    ______ ____
ROOT
ATOM      1  C   UNL     1      35.073 -16.976 -21.720  0.00  0.00    +0.110 C 
ENDROOT
BRANCH   1   2
ATOM      2  O   UNL     1      35.161 -16.675 -20.325  0.00  0.00    -0.385 OA
ATOM      3  H   UNL     1      34.285 -16.420 -19.994  0.00  0.00    +0.210 HD
ENDBRANCH   1   2
BRANCH   1   4
ATOM      4  C   UNL     1      35.464 -18.445 -21.912  0.00  0.00    -0.045 C 
BRANCH   4   6
ATOM      5  O   UNL     1      34.259 -21.768 -19.649  0.00  0.00    -0.358 OA
ATOM      6  N   UNL     1      35.035 -19.279 -20.791  0.00  0.00    +0.392 N 
ATOM      7  C   UNL     1      33.714 -19.868 -21.054  0.00  0.00    -0.045 C 
ATOM      8  C   UNL     1      36.015 -20.341 -20.525  0.00  0.00    -0.045 C 
ATOM      9  C   UNL     1      33.293 -20.742 -19.877  0.00  0.00    +0.119 C 
ATOM     10  C   UNL     1      35.539 -21.206 -19.361  0.00  0.00    +0.119 C 
ATOM     11  H   UNL     1      34.967 -18.684 -19.966  0.00  0.00    -0.079 HD
ENDBRANCH   4   6
ENDBRANCH   1   4
BRANCH   1  12
ATOM     12  C   UNL     1      33.640 -16.683 -22.184  0.00  0.00    +0.125 C 
BRANCH  12  13
ATOM     13  N   UNL     1      33.522 -15.375 -22.830  0.00  0.00    -0.254 N 
ATOM     14  N   UNL     1      33.171 -13.210 -23.051  0.00  0.00    -0.230 NA
ATOM     15  C   UNL     1      33.193 -14.216 -22.205  0.00  0.00    +0.114 C 
ATOM     16  C   UNL     1      33.724 -15.117 -24.145  0.00  0.00    +0.218 C 
ATOM     17  C   UNL     1      33.499 -13.765 -24.263  0.00  0.00    +0.140 C 
ATOM     18  C   UNL     1      32.909 -14.140 -20.758  0.00  0.00    +0.069 C 
BRANCH  16  21
ATOM     19  O   UNL     1      35.195 -16.670 -25.007  0.00  0.00    -0.125 OA
ATOM     20  O   UNL     1      33.279 -16.362 -26.034  0.00  0.00    -0.125 OA
ATOM     21  N   UNL     1      34.079 -16.082 -25.094  0.00  0.00    +0.074 N 
ENDBRANCH  16  21
ENDBRANCH  12  13
ENDBRANCH   1  12
TORSDOF 6
ENDMDL
MODEL 9
REMARK VINA RESULT:      -7.2      1.996      6.339
REMARK  Name = 11644726
REMARK  6 active torsions:
REMARK  status: ('A' for Active; 'I' for Inactive)
REMARK    1  A    between atoms: C_1  and  O_2
REMARK    2  A    between atoms: C_1  and  C_4
REMARK    3  A    between atoms: C_1  and  C_12
REMARK    4  A    between atoms: C_4  and  N_6
REMARK    5  A    between atoms: C_12  and  N_13
REMARK    6  A    between atoms: C_16  and  N_21
REMARK                            x       y       z     vdW  Elec       q    Type
REMARK                         _______ _______ _______ _____ _____    ______ ____
ROOT
ATOM      1  C   UNL     1      34.559 -23.160 -14.600  0.00  0.00    +0.110 C 
ENDROOT
BRANCH   1   2
ATOM      2  O   UNL     1      34.271 -23.414 -13.223  0.00  0.00    -0.385 OA
ATOM      3  H   UNL     1      35.028 -23.141 -12.679  0.00  0.00    +0.210 HD
ENDBRANCH   1   2
BRANCH   1   4
ATOM      4  C   UNL     1      36.070 -23.318 -14.804  0.00  0.00    -0.045 C 
BRANCH   4   6
ATOM      5  O   UNL     1      38.692 -26.303 -13.453  0.00  0.00    -0.358 OA
ATOM      6  N   UNL     1      36.598 -24.491 -14.110  0.00  0.00    +0.392 N 
ATOM      7  C   UNL     1      37.077 -25.494 -15.072  0.00  0.00    -0.045 C 
ATOM      8  C   UNL     1      37.684 -24.111 -13.197  0.00  0.00    -0.045 C 
ATOM      9  C   UNL     1      37.634 -26.702 -14.325  0.00  0.00    +0.119 C 
ATOM     10  C   UNL     1      38.229 -25.352 -12.495  0.00  0.00    +0.119 C 
ATOM     11  H   UNL     1      35.841 -24.899 -13.564  0.00  0.00    -0.079 HD
ENDBRANCH   4   6
ENDBRANCH   1   4
BRANCH   1  12
ATOM     12  C   UNL     1      33.745 -24.145 -15.449  0.00  0.00    +0.125 C 
BRANCH  12  13
ATOM     13  N   UNL     1      32.488 -23.563 -15.923  0.00  0.00    -0.254 N 
ATOM     14  N   UNL     1      31.071 -22.522 -17.253  0.00  0.00    -0.230 NA
ATOM     15  C   UNL     1      32.312 -22.934 -17.112  0.00  0.00    +0.114 C 
ATOM     16  C   UNL     1      31.310 -23.566 -15.254  0.00  0.00    +0.218 C 
ATOM     17  C   UNL     1      30.441 -22.913 -16.097  0.00  0.00    +0.140 C 
ATOM     18  C   UNL     1      33.402 -22.757 -18.093  0.00  0.00    +0.069 C 
BRANCH  16  21
ATOM     19  O   UNL     1      30.766 -25.342 -13.888  0.00  0.00    -0.125 OA
ATOM     20  O   UNL     1      31.305 -23.431 -12.952  0.00  0.00    -0.125 OA
ATOM     21  N   UNL     1      31.120 -24.132 -13.990  0.00  0.00    +0.074 N 
ENDBRANCH  16  21
ENDBRANCH  12  13
ENDBRANCH   1  12
TORSDOF 6
ENDMDL
