MODEL 1
REMARK VINA RESULT:      -9.4      0.000      0.000
REMARK  Name = 5281052
REMARK  3 active torsions:
REMARK  status: ('A' for Active; 'I' for Inactive)
REMARK    1  A    between atoms: C_3  and  C_10
REMARK    2  A    between atoms: C_5  and  O_8
REMARK    3  A    between atoms: C_11  and  C_13
REMARK                            x       y       z     vdW  Elec       q    Type
REMARK                         _______ _______ _______ _____ _____    ______ ____
ROOT
ATOM      1  O   UNL     1      34.620 -17.086 -23.739  0.00  0.00    -0.444 OA
ATOM      2  O   UNL     1      34.507 -16.667 -25.964  0.00  0.00    -0.245 OA
ATOM      3  C   UNL     1      34.715 -16.506 -22.419  0.00  0.00    +0.199 C 
ATOM      4  C   UNL     1      33.511 -15.612 -22.147  0.00  0.00    +0.112 C 
ATOM      5  C   UNL     1      33.355 -14.659 -23.286  0.00  0.00    +0.127 C 
ATOM      6  C   UNL     1      33.777 -14.962 -24.519  0.00  0.00    +0.114 C 
ATOM      7  C   UNL     1      34.337 -16.295 -24.809  0.00  0.00    +0.344 C 
ENDROOT
BRANCH   5   8
ATOM      8  O   UNL     1      32.773 -13.452 -22.970  0.00  0.00    -0.475 OA
ATOM      9  C   UNL     1      32.282 -13.415 -21.652  0.00  0.00    +0.252 C 
ENDBRANCH   5   8
BRANCH   3  10
ATOM     10  C   UNL     1      34.808 -17.621 -21.431  0.00  0.00    +0.017 C 
ATOM     11  C   UNL     1      34.413 -18.867 -21.695  0.00  0.00    -0.001 C 
BRANCH  11  13
ATOM     12  C   UNL     1      35.931 -21.471 -19.333  0.00  0.00    -0.000 C 
ATOM     13  C   UNL     1      34.502 -19.944 -20.732  0.00  0.00    -0.000 C 
ATOM     14  C   UNL     1      34.677 -22.273 -18.957  0.00  0.00    -0.000 C 
ATOM     15  C   UNL     1      35.716 -20.381 -20.346  0.00  0.00    -0.000 C 
ATOM     16  C   UNL     1      33.319 -20.548 -20.137  0.00  0.00    -0.000 C 
ATOM     17  C   UNL     1      33.383 -21.613 -19.325  0.00  0.00    -0.000 C 
ENDBRANCH  11  13
ENDBRANCH   3  10
TORSDOF 3
ENDMDL
MODEL 2
REMARK VINA RESULT:      -8.8      6.137      9.411
REMARK  Name = 5281052
REMARK  3 active torsions:
REMARK  status: ('A' for Active; 'I' for Inactive)
REMARK    1  A    between atoms: C_3  and  C_10
REMARK    2  A    between atoms: C_5  and  O_8
REMARK    3  A    between atoms: C_11  and  C_13
REMARK                            x       y       z     vdW  Elec       q    Type
REMARK                         _______ _______ _______ _____ _____    ______ ____
ROOT
ATOM      1  O   UNL     1      32.867 -23.762 -15.140  0.00  0.00    -0.444 OA
ATOM      2  O   UNL     1      32.673 -24.541 -13.020  0.00  0.00    -0.245 OA
ATOM      3  C   UNL     1      32.258 -23.699 -16.449  0.00  0.00    +0.199 C 
ATOM      4  C   UNL     1      30.899 -23.014 -16.367  0.00  0.00    +0.112 C 
ATOM      5  C   UNL     1      30.099 -23.666 -15.288  0.00  0.00    +0.127 C 
ATOM      6  C   UNL     1      30.683 -24.260 -14.240  0.00  0.00    +0.114 C 
ATOM      7  C   UNL     1      32.148 -24.213 -14.078  0.00  0.00    +0.344 C 
ENDROOT
BRANCH   5   8
ATOM      8  O   UNL     1      28.734 -23.629 -15.462  0.00  0.00    -0.475 OA
ATOM      9  C   UNL     1      28.352 -23.825 -16.802  0.00  0.00    +0.252 C 
ENDBRANCH   5   8
BRANCH   3  10
ATOM     10  C   UNL     1      33.191 -22.968 -17.357  0.00  0.00    +0.017 C 
ATOM     11  C   UNL     1      32.777 -22.223 -18.383  0.00  0.00    -0.001 C 
BRANCH  11  13
ATOM     12  C   UNL     1      36.028 -21.183 -20.122  0.00  0.00    -0.000 C 
ATOM     13  C   UNL     1      33.686 -21.519 -19.263  0.00  0.00    -0.000 C 
ATOM     14  C   UNL     1      35.552 -19.935 -20.880  0.00  0.00    -0.000 C 
ATOM     15  C   UNL     1      34.997 -21.827 -19.236  0.00  0.00    -0.000 C 
ATOM     16  C   UNL     1      33.224 -20.511 -20.206  0.00  0.00    -0.000 C 
ATOM     17  C   UNL     1      34.064 -19.780 -20.951  0.00  0.00    -0.000 C 
ENDBRANCH  11  13
ENDBRANCH   3  10
TORSDOF 3
ENDMDL
MODEL 3
REMARK VINA RESULT:      -8.8      5.755      9.491
REMARK  Name = 5281052
REMARK  3 active torsions:
REMARK  status: ('A' for Active; 'I' for Inactive)
REMARK    1  A    between atoms: C_3  and  C_10
REMARK    2  A    between atoms: C_5  and  O_8
REMARK    3  A    between atoms: C_11  and  C_13
REMARK                            x       y       z     vdW  Elec       q    Type
REMARK                         _______ _______ _______ _____ _____    ______ ____
ROOT
ATOM      1  O   UNL     1      35.249 -23.795 -16.319  0.00  0.00    -0.444 OA
ATOM      2  O   UNL     1      36.874 -24.790 -15.091  0.00  0.00    -0.245 OA
ATOM      3  C   UNL     1      33.832 -23.725 -16.589  0.00  0.00    +0.199 C 
ATOM      4  C   UNL     1      33.073 -23.316 -15.332  0.00  0.00    +0.112 C 
ATOM      5  C   UNL     1      33.496 -24.204 -14.209  0.00  0.00    +0.127 C 
ATOM      6  C   UNL     1      34.707 -24.774 -14.180  0.00  0.00    +0.114 C 
ATOM      7  C   UNL     1      35.700 -24.469 -15.227  0.00  0.00    +0.344 C 
ENDROOT
BRANCH   5   8
ATOM      8  O   UNL     1      32.551 -24.407 -13.229  0.00  0.00    -0.475 OA
ATOM      9  C   UNL     1      31.389 -25.033 -13.717  0.00  0.00    +0.252 C 
ENDBRANCH   5   8
BRANCH   3  10
ATOM     10  C   UNL     1      33.621 -22.750 -17.701  0.00  0.00    +0.017 C 
ATOM     11  C   UNL     1      34.620 -22.229 -18.414  0.00  0.00    -0.001 C 
BRANCH  11  13
ATOM     12  C   UNL     1      35.383 -19.812 -21.286  0.00  0.00    -0.000 C 
ATOM     13  C   UNL     1      34.411 -21.281 -19.489  0.00  0.00    -0.000 C 
ATOM     14  C   UNL     1      33.995 -19.194 -21.508  0.00  0.00    -0.000 C 
ATOM     15  C   UNL     1      35.479 -20.779 -20.139  0.00  0.00    -0.000 C 
ATOM     16  C   UNL     1      33.080 -20.879 -19.916  0.00  0.00    -0.000 C 
ATOM     17  C   UNL     1      32.874 -19.927 -20.837  0.00  0.00    -0.000 C 
ENDBRANCH  11  13
ENDBRANCH   3  10
TORSDOF 3
ENDMDL
MODEL 4
REMARK VINA RESULT:      -8.6      2.781      7.075
REMARK  Name = 5281052
REMARK  3 active torsions:
REMARK  status: ('A' for Active; 'I' for Inactive)
REMARK    1  A    between atoms: C_3  and  C_10
REMARK    2  A    between atoms: C_5  and  O_8
REMARK    3  A    between atoms: C_11  and  C_13
REMARK                            x       y       z     vdW  Elec       q    Type
REMARK                         _______ _______ _______ _____ _____    ______ ____
ROOT
ATOM      1  O   UNL     1      35.404 -19.885 -20.447  0.00  0.00    -0.444 OA
ATOM      2  O   UNL     1      37.173 -21.074 -19.676  0.00  0.00    -0.245 OA
ATOM      3  C   UNL     1      34.039 -19.945 -20.917  0.00  0.00    +0.199 C 
ATOM      4  C   UNL     1      33.131 -20.514 -19.834  0.00  0.00    +0.112 C 
ATOM      5  C   UNL     1      33.723 -21.790 -19.334  0.00  0.00    +0.127 C 
ATOM      6  C   UNL     1      35.041 -22.019 -19.378  0.00  0.00    +0.114 C 
ATOM      7  C   UNL     1      35.964 -20.970 -19.848  0.00  0.00    +0.344 C 
ENDROOT
BRANCH   5   8
ATOM      8  O   UNL     1      32.819 -22.710 -18.852  0.00  0.00    -0.475 OA
ATOM      9  C   UNL     1      33.121 -23.133 -17.544  0.00  0.00    +0.252 C 
ENDBRANCH   5   8
BRANCH   3  10
ATOM     10  C   UNL     1      33.627 -18.566 -21.316  0.00  0.00    +0.017 C 
ATOM     11  C   UNL     1      34.440 -17.512 -21.246  0.00  0.00    -0.001 C 
BRANCH  11  13
ATOM     12  C   UNL     1      32.600 -14.152 -21.199  0.00  0.00    -0.000 C 
ATOM     13  C   UNL     1      34.033 -16.176 -21.629  0.00  0.00    -0.000 C 
ATOM     14  C   UNL     1      33.054 -13.566 -22.544  0.00  0.00    -0.000 C 
ATOM     15  C   UNL     1      33.081 -15.548 -20.912  0.00  0.00    -0.000 C 
ATOM     16  C   UNL     1      34.647 -15.472 -22.745  0.00  0.00    -0.000 C 
ATOM     17  C   UNL     1      34.210 -14.280 -23.175  0.00  0.00    -0.000 C 
ENDBRANCH  11  13
ENDBRANCH   3  10
TORSDOF 3
ENDMDL
MODEL 5
REMARK VINA RESULT:      -8.6      3.528      8.390
REMARK  Name = 5281052
REMARK  3 active torsions:
REMARK  status: ('A' for Active; 'I' for Inactive)
REMARK    1  A    between atoms: C_3  and  C_10
REMARK    2  A    between atoms: C_5  and  O_8
REMARK    3  A    between atoms: C_11  and  C_13
REMARK                            x       y       z     vdW  Elec       q    Type
REMARK                         _______ _______ _______ _____ _____    ______ ____
ROOT
ATOM      1  O   UNL     1      33.213 -14.038 -25.077  0.00  0.00    -0.444 OA
ATOM      2  O   UNL     1      33.242 -15.543 -26.773  0.00  0.00    -0.245 OA
ATOM      3  C   UNL     1      33.197 -13.856 -23.644  0.00  0.00    +0.199 C 
ATOM      4  C   UNL     1      34.442 -14.473 -23.019  0.00  0.00    +0.112 C 
ATOM      5  C   UNL     1      34.580 -15.875 -23.512  0.00  0.00    +0.127 C 
ATOM      6  C   UNL     1      34.094 -16.255 -24.700  0.00  0.00    +0.114 C 
ATOM      7  C   UNL     1      33.475 -15.265 -25.603  0.00  0.00    +0.344 C 
ENDROOT
BRANCH   5   8
ATOM      8  O   UNL     1      35.218 -16.743 -22.654  0.00  0.00    -0.475 OA
ATOM      9  C   UNL     1      34.827 -16.566 -21.314  0.00  0.00    +0.252 C 
ENDBRANCH   5   8
BRANCH   3  10
ATOM     10  C   UNL     1      33.108 -12.391 -23.367  0.00  0.00    +0.017 C 
ATOM     11  C   UNL     1      33.731 -11.470 -24.101  0.00  0.00    -0.001 C 
BRANCH  11  13
ATOM     12  C   UNL     1      34.725  -7.778 -23.868  0.00  0.00    -0.000 C 
ATOM     13  C   UNL     1      33.645 -10.051 -23.825  0.00  0.00    -0.000 C 
ATOM     14  C   UNL     1      33.547  -7.222 -23.054  0.00  0.00    -0.000 C 
ATOM     15  C   UNL     1      34.708  -9.266 -24.087  0.00  0.00    -0.000 C 
ATOM     16  C   UNL     1      32.433  -9.436 -23.306  0.00  0.00    -0.000 C 
ATOM     17  C   UNL     1      32.373  -8.146 -22.949  0.00  0.00    -0.000 C 
ENDBRANCH  11  13
ENDBRANCH   3  10
TORSDOF 3
ENDMDL
MODEL 6
REMARK VINA RESULT:      -8.6      3.007      7.202
REMARK  Name = 5281052
REMARK  3 active torsions:
REMARK  status: ('A' for Active; 'I' for Inactive)
REMARK    1  A    between atoms: C_3  and  C_10
REMARK    2  A    between atoms: C_5  and  O_8
REMARK    3  A    between atoms: C_11  and  C_13
REMARK                            x       y       z     vdW  Elec       q    Type
REMARK                         _______ _______ _______ _____ _____    ______ ____
ROOT
ATOM      1  O   UNL     1      33.306 -14.635 -24.525  0.00  0.00    -0.444 OA
ATOM      2  O   UNL     1      33.389 -15.296 -26.693  0.00  0.00    -0.245 OA
ATOM      3  C   UNL     1      33.318 -15.063 -23.146  0.00  0.00    +0.199 C 
ATOM      4  C   UNL     1      34.620 -15.791 -22.830  0.00  0.00    +0.112 C 
ATOM      5  C   UNL     1      34.839 -16.849 -23.861  0.00  0.00    +0.127 C 
ATOM      6  C   UNL     1      34.345 -16.737 -25.100  0.00  0.00    +0.114 C 
ATOM      7  C   UNL     1      33.636 -15.511 -25.512  0.00  0.00    +0.344 C 
ENDROOT
BRANCH   5   8
ATOM      8  O   UNL     1      35.558 -17.945 -23.439  0.00  0.00    -0.475 OA
ATOM      9  C   UNL     1      34.946 -19.163 -23.789  0.00  0.00    +0.252 C 
ENDBRANCH   5   8
BRANCH   3  10
ATOM     10  C   UNL     1      33.139 -13.856 -22.286  0.00  0.00    +0.017 C 
ATOM     11  C   UNL     1      32.098 -13.029 -22.395  0.00  0.00    -0.001 C 
BRANCH  11  13
ATOM     12  C   UNL     1      31.772  -9.353 -21.369  0.00  0.00    -0.000 C 
ATOM     13  C   UNL     1      31.931 -11.858 -21.561  0.00  0.00    -0.000 C 
ATOM     14  C   UNL     1      31.821  -9.484 -19.840  0.00  0.00    -0.000 C 
ATOM     15  C   UNL     1      31.961 -10.637 -22.130  0.00  0.00    -0.000 C 
ATOM     16  C   UNL     1      31.695 -11.956 -20.128  0.00  0.00    -0.000 C 
ATOM     17  C   UNL     1      31.643 -10.881 -19.330  0.00  0.00    -0.000 C 
ENDBRANCH  11  13
ENDBRANCH   3  10
TORSDOF 3
ENDMDL
MODEL 7
REMARK VINA RESULT:      -8.6      3.880      7.604
REMARK  Name = 5281052
REMARK  3 active torsions:
REMARK  status: ('A' for Active; 'I' for Inactive)
REMARK    1  A    between atoms: C_3  and  C_10
REMARK    2  A    between atoms: C_5  and  O_8
REMARK    3  A    between atoms: C_11  and  C_13
REMARK                            x       y       z     vdW  Elec       q    Type
REMARK                         _______ _______ _______ _____ _____    ______ ____
ROOT
ATOM      1  O   UNL     1      36.383 -21.140 -18.439  0.00  0.00    -0.444 OA
ATOM      2  O   UNL     1      37.134 -21.662 -16.364  0.00  0.00    -0.245 OA
ATOM      3  C   UNL     1      35.609 -21.585 -19.575  0.00  0.00    +0.199 C 
ATOM      4  C   UNL     1      34.164 -21.841 -19.162  0.00  0.00    +0.112 C 
ATOM      5  C   UNL     1      34.160 -22.728 -17.961  0.00  0.00    +0.127 C 
ATOM      6  C   UNL     1      35.182 -22.748 -17.097  0.00  0.00    +0.114 C 
ATOM      7  C   UNL     1      36.316 -21.821 -17.263  0.00  0.00    +0.344 C 
ENDROOT
BRANCH   5   8
ATOM      8  O   UNL     1      33.049 -23.530 -17.824  0.00  0.00    -0.475 OA
ATOM      9  C   UNL     1      32.281 -23.204 -16.691  0.00  0.00    +0.252 C 
ENDBRANCH   5   8
BRANCH   3  10
ATOM     10  C   UNL     1      35.702 -20.538 -20.636  0.00  0.00    +0.017 C 
ATOM     11  C   UNL     1      34.671 -19.777 -21.004  0.00  0.00    -0.001 C 
BRANCH  11  13
ATOM     12  C   UNL     1      34.956 -16.336 -22.661  0.00  0.00    -0.000 C 
ATOM     13  C   UNL     1      34.767 -18.766 -22.036  0.00  0.00    -0.000 C 
ATOM     14  C   UNL     1      34.729 -16.714 -24.132  0.00  0.00    -0.000 C 
ATOM     15  C   UNL     1      34.828 -17.469 -21.680  0.00  0.00    -0.000 C 
ATOM     16  C   UNL     1      34.835 -19.108 -23.449  0.00  0.00    -0.000 C 
ATOM     17  C   UNL     1      34.818 -18.182 -24.417  0.00  0.00    -0.000 C 
ENDBRANCH  11  13
ENDBRANCH   3  10
TORSDOF 3
ENDMDL
MODEL 8
REMARK VINA RESULT:      -8.5      7.270     11.283
REMARK  Name = 5281052
REMARK  3 active torsions:
REMARK  status: ('A' for Active; 'I' for Inactive)
REMARK    1  A    between atoms: C_3  and  C_10
REMARK    2  A    between atoms: C_5  and  O_8
REMARK    3  A    between atoms: C_11  and  C_13
REMARK                            x       y       z     vdW  Elec       q    Type
REMARK                         _______ _______ _______ _____ _____    ______ ____
ROOT
ATOM      1  O   UNL     1      35.706 -24.258 -13.544  0.00  0.00    -0.444 OA
ATOM      2  O   UNL     1      35.270 -25.008 -11.450  0.00  0.00    -0.245 OA
ATOM      3  C   UNL     1      36.731 -23.842 -14.474  0.00  0.00    +0.199 C 
ATOM      4  C   UNL     1      37.712 -24.981 -14.723  0.00  0.00    +0.112 C 
ATOM      5  C   UNL     1      38.178 -25.508 -13.406  0.00  0.00    +0.127 C 
ATOM      6  C   UNL     1      37.420 -25.423 -12.306  0.00  0.00    +0.114 C 
ATOM      7  C   UNL     1      36.052 -24.877 -12.384  0.00  0.00    +0.344 C 
ENDROOT
BRANCH   5   8
ATOM      8  O   UNL     1      39.440 -26.060 -13.404  0.00  0.00    -0.475 OA
ATOM      9  C   UNL     1      40.198 -25.684 -14.528  0.00  0.00    +0.252 C 
ENDBRANCH   5   8
BRANCH   3  10
ATOM     10  C   UNL     1      36.061 -23.405 -15.735  0.00  0.00    +0.017 C 
ATOM     11  C   UNL     1      36.563 -22.472 -16.543  0.00  0.00    -0.001 C 
BRANCH  11  13
ATOM     12  C   UNL     1      36.032 -20.853 -19.974  0.00  0.00    -0.000 C 
ATOM     13  C   UNL     1      35.907 -22.049 -17.763  0.00  0.00    -0.000 C 
ATOM     14  C   UNL     1      34.511 -21.005 -20.122  0.00  0.00    -0.000 C 
ATOM     15  C   UNL     1      36.599 -21.323 -18.662  0.00  0.00    -0.000 C 
ATOM     16  C   UNL     1      34.532 -22.415 -18.068  0.00  0.00    -0.000 C 
ATOM     17  C   UNL     1      33.881 -21.945 -19.141  0.00  0.00    -0.000 C 
ENDBRANCH  11  13
ENDBRANCH   3  10
TORSDOF 3
ENDMDL
MODEL 9
REMARK VINA RESULT:      -8.5      6.329     10.052
REMARK  Name = 5281052
REMARK  3 active torsions:
REMARK  status: ('A' for Active; 'I' for Inactive)
REMARK    1  A    between atoms: C_3  and  C_10
REMARK    2  A    between atoms: C_5  and  O_8
REMARK    3  A    between atoms: C_11  and  C_13
REMARK                            x       y       z     vdW  Elec       q    Type
REMARK                         _______ _______ _______ _____ _____    ______ ____
ROOT
ATOM      1  O   UNL     1      35.611 -24.987 -15.914  0.00  0.00    -0.444 OA
ATOM      2  O   UNL     1      36.314 -27.038 -15.250  0.00  0.00    -0.245 OA
ATOM      3  C   UNL     1      35.318 -23.634 -15.500  0.00  0.00    +0.199 C 
ATOM      4  C   UNL     1      36.567 -22.975 -14.927  0.00  0.00    +0.112 C 
ATOM      5  C   UNL     1      37.154 -23.877 -13.894  0.00  0.00    +0.127 C 
ATOM      6  C   UNL     1      36.984 -25.204 -13.939  0.00  0.00    +0.114 C 
ATOM      7  C   UNL     1      36.274 -25.826 -15.073  0.00  0.00    +0.344 C 
ENDROOT
BRANCH   5   8
ATOM      8  O   UNL     1      37.857 -23.248 -12.890  0.00  0.00    -0.475 OA
ATOM      9  C   UNL     1      37.153 -23.218 -11.672  0.00  0.00    +0.252 C 
ENDBRANCH   5   8
BRANCH   3  10
ATOM     10  C   UNL     1      34.796 -22.891 -16.685  0.00  0.00    +0.017 C 
ATOM     11  C   UNL     1      35.584 -22.370 -17.626  0.00  0.00    -0.001 C 
BRANCH  11  13
ATOM     12  C   UNL     1      35.524 -20.233 -20.804  0.00  0.00    -0.000 C 
ATOM     13  C   UNL     1      35.073 -21.647 -18.771  0.00  0.00    -0.000 C 
ATOM     14  C   UNL     1      34.013 -20.000 -20.955  0.00  0.00    -0.000 C 
ATOM     15  C   UNL     1      35.935 -20.992 -19.572  0.00  0.00    -0.000 C 
ATOM     16  C   UNL     1      33.658 -21.634 -19.108  0.00  0.00    -0.000 C 
ATOM     17  C   UNL     1      33.159 -20.887 -20.102  0.00  0.00    -0.000 C 
ENDBRANCH  11  13
ENDBRANCH   3  10
TORSDOF 3
ENDMDL
