MODEL 1
REMARK VINA RESULT:     -11.0      0.000      0.000
REMARK  Name = 24883486
REMARK  5 active torsions:
REMARK  status: ('A' for Active; 'I' for Inactive)
REMARK    1  A    between atoms: N_2  and  C_10
REMARK    2  A    between atoms: C_3  and  C_19
REMARK    3  A    between atoms: C_19  and  C_20
REMARK    4  A    between atoms: C_19  and  O_26
REMARK    5  A    between atoms: O_26  and  C_28
REMARK                            x       y       z     vdW  Elec       q    Type
REMARK                         _______ _______ _______ _____ _____    ______ ____
ROOT
ATOM      1  O   UNL     1      34.863 -15.802 -20.788  0.00  0.00    -0.270 OA
ATOM      2  N   UNL     1      33.232 -15.197 -22.372  0.00  0.00    -0.281 N 
ATOM      3  C   UNL     1      34.203 -16.029 -21.797  0.00  0.00    +0.271 C 
ATOM      4  H   UNL     1      32.790 -15.545 -23.180  0.00  0.00    +0.155 HD
ENDROOT
BRANCH   2  10
ATOM      5  O   UNL     1      33.942 -13.900 -24.571  0.00  0.00    -0.282 OA
ATOM      6  O   UNL     1      32.241  -9.239 -22.612  0.00  0.00    -0.270 OA
ATOM      7  O   UNL     1      34.166 -11.714 -26.006  0.00  0.00    -0.266 OA
ATOM      8  N   UNL     1      33.198 -10.466 -24.305  0.00  0.00    -0.246 N 
ATOM      9  C   UNL     1      32.940 -12.779 -22.722  0.00  0.00    +0.061 C 
ATOM     10  C   UNL     1      32.815 -13.933 -21.942  0.00  0.00    +0.054 C 
ATOM     11  C   UNL     1      32.502 -11.547 -22.234  0.00  0.00    +0.058 C 
ATOM     12  C   UNL     1      32.250 -13.853 -20.670  0.00  0.00    +0.015 C 
ATOM     13  C   UNL     1      33.534 -12.867 -24.062  0.00  0.00    +0.250 C 
ATOM     14  C   UNL     1      31.935 -11.473 -20.956  0.00  0.00    +0.005 C 
ATOM     15  C   UNL     1      32.627 -10.319 -23.047  0.00  0.00    +0.252 C 
ATOM     16  C   UNL     1      31.811 -12.624 -20.177  0.00  0.00    +0.001 C 
ATOM     17  C   UNL     1      33.667 -11.627 -24.893  0.00  0.00    +0.291 C 
ATOM     18  H   UNL     1      33.280  -9.645 -24.842  0.00  0.00    +0.158 HD
ENDBRANCH   2  10
BRANCH   3  19
ATOM     19  C   UNL     1      34.365 -17.334 -22.574  0.00  0.00    +0.266 C 
BRANCH  19  20
ATOM     20  C   UNL     1      34.863 -18.450 -21.687  0.00  0.00    +0.026 C 
ATOM     21  C   UNL     1      33.956 -19.329 -21.095  0.00  0.00    -0.000 C 
ATOM     22  C   UNL     1      36.231 -18.601 -21.457  0.00  0.00    -0.000 C 
ATOM     23  C   UNL     1      34.416 -20.359 -20.275  0.00  0.00    -0.000 C 
ATOM     24  C   UNL     1      36.691 -19.631 -20.637  0.00  0.00    -0.000 C 
ATOM     25  C   UNL     1      35.784 -20.510 -20.045  0.00  0.00    -0.000 C 
ENDBRANCH  19  20
BRANCH  19  26
ATOM     26  O   UNL     1      35.292 -17.141 -23.632  0.00  0.00    -0.438 OA
BRANCH  26  28
ATOM     27  O   UNL     1      34.816 -16.698 -25.848  0.00  0.00    -0.250 OA
ATOM     28  C   UNL     1      34.840 -17.451 -24.885  0.00  0.00    +0.318 C 
ATOM     29  C   UNL     1      34.367 -18.874 -24.921  0.00  0.00    +0.121 C 
ENDBRANCH  26  28
ENDBRANCH  19  26
ENDBRANCH   3  19
TORSDOF 5
ENDMDL
MODEL 2
REMARK VINA RESULT:     -10.7      2.275      8.207
REMARK  Name = 24883486
REMARK  5 active torsions:
REMARK  status: ('A' for Active; 'I' for Inactive)
REMARK    1  A    between atoms: N_2  and  C_10
REMARK    2  A    between atoms: C_3  and  C_19
REMARK    3  A    between atoms: C_19  and  C_20
REMARK    4  A    between atoms: C_19  and  O_26
REMARK    5  A    between atoms: O_26  and  C_28
REMARK                            x       y       z     vdW  Elec       q    Type
REMARK                         _______ _______ _______ _____ _____    ______ ____
ROOT
ATOM      1  O   UNL     1      33.838 -11.221 -24.378  0.00  0.00    -0.270 OA
ATOM      2  N   UNL     1      32.587 -12.959 -23.405  0.00  0.00    -0.281 N 
ATOM      3  C   UNL     1      32.963 -11.626 -23.619  0.00  0.00    +0.271 C 
ATOM      4  H   UNL     1      31.853 -13.102 -22.763  0.00  0.00    +0.155 HD
ENDROOT
BRANCH   2  10
ATOM      5  O   UNL     1      33.585 -13.966 -21.165  0.00  0.00    -0.282 OA
ATOM      6  O   UNL     1      35.508 -18.243 -23.710  0.00  0.00    -0.270 OA
ATOM      7  O   UNL     1      34.890 -15.811 -19.830  0.00  0.00    -0.266 OA
ATOM      8  N   UNL     1      35.203 -17.037 -21.776  0.00  0.00    -0.246 N 
ATOM      9  C   UNL     1      33.816 -15.086 -23.257  0.00  0.00    +0.061 C 
ATOM     10  C   UNL     1      33.126 -14.112 -23.986  0.00  0.00    +0.054 C 
ATOM     11  C   UNL     1      34.329 -16.215 -23.898  0.00  0.00    +0.058 C 
ATOM     12  C   UNL     1      32.948 -14.269 -25.360  0.00  0.00    +0.015 C 
ATOM     13  C   UNL     1      34.000 -14.918 -21.810  0.00  0.00    +0.250 C 
ATOM     14  C   UNL     1      34.147 -16.367 -25.277  0.00  0.00    +0.005 C 
ATOM     15  C   UNL     1      35.060 -17.252 -23.141  0.00  0.00    +0.252 C 
ATOM     16  C   UNL     1      33.459 -15.395 -26.005  0.00  0.00    +0.001 C 
ATOM     17  C   UNL     1      34.742 -15.964 -21.034  0.00  0.00    +0.291 C 
ATOM     18  H   UNL     1      35.691 -17.731 -21.276  0.00  0.00    +0.158 HD
ENDBRANCH   2  10
BRANCH   3  19
ATOM     19  C   UNL     1      32.124 -10.658 -22.786  0.00  0.00    +0.266 C 
BRANCH  19  20
ATOM     20  C   UNL     1      32.407  -9.221 -23.154  0.00  0.00    +0.026 C 
ATOM     21  C   UNL     1      33.690  -8.698 -22.990  0.00  0.00    -0.000 C 
ATOM     22  C   UNL     1      31.385  -8.415 -23.656  0.00  0.00    -0.000 C 
ATOM     23  C   UNL     1      33.952  -7.370 -23.328  0.00  0.00    -0.000 C 
ATOM     24  C   UNL     1      31.646  -7.087 -23.994  0.00  0.00    -0.000 C 
ATOM     25  C   UNL     1      32.930  -6.565 -23.831  0.00  0.00    -0.000 C 
ENDBRANCH  19  20
BRANCH  19  26
ATOM     26  O   UNL     1      32.415 -10.845 -21.409  0.00  0.00    -0.438 OA
BRANCH  26  28
ATOM     27  O   UNL     1      30.221 -11.380 -20.928  0.00  0.00    -0.250 OA
ATOM     28  C   UNL     1      31.334 -11.005 -20.587  0.00  0.00    +0.318 C 
ATOM     29  C   UNL     1      31.706 -10.651 -19.178  0.00  0.00    +0.121 C 
ENDBRANCH  26  28
ENDBRANCH  19  26
ENDBRANCH   3  19
TORSDOF 5
ENDMDL
MODEL 3
REMARK VINA RESULT:     -10.5     10.400     13.098
REMARK  Name = 24883486
REMARK  5 active torsions:
REMARK  status: ('A' for Active; 'I' for Inactive)
REMARK    1  A    between atoms: N_2  and  C_10
REMARK    2  A    between atoms: C_3  and  C_19
REMARK    3  A    between atoms: C_19  and  C_20
REMARK    4  A    between atoms: C_19  and  O_26
REMARK    5  A    between atoms: O_26  and  C_28
REMARK                            x       y       z     vdW  Elec       q    Type
REMARK                         _______ _______ _______ _____ _____    ______ ____
ROOT
ATOM      1  O   UNL     1      35.676 -25.704 -15.312  0.00  0.00    -0.270 OA
ATOM      2  N   UNL     1      35.042 -23.488 -14.843  0.00  0.00    -0.281 N 
ATOM      3  C   UNL     1      35.785 -24.664 -14.670  0.00  0.00    +0.271 C 
ATOM      4  H   UNL     1      35.271 -22.742 -14.243  0.00  0.00    +0.155 HD
ENDROOT
BRANCH   2  10
ATOM      5  O   UNL     1      33.046 -23.826 -13.134  0.00  0.00    -0.282 OA
ATOM      6  O   UNL     1      29.393 -22.838 -16.894  0.00  0.00    -0.270 OA
ATOM      7  O   UNL     1      30.491 -23.895 -12.533  0.00  0.00    -0.266 OA
ATOM      8  N   UNL     1      29.934 -23.363 -14.722  0.00  0.00    -0.246 N 
ATOM      9  C   UNL     1      32.659 -23.281 -15.422  0.00  0.00    +0.061 C 
ATOM     10  C   UNL     1      34.015 -23.243 -15.761  0.00  0.00    +0.054 C 
ATOM     11  C   UNL     1      31.683 -23.026 -16.386  0.00  0.00    +0.058 C 
ATOM     12  C   UNL     1      34.395 -22.947 -17.070  0.00  0.00    +0.015 C 
ATOM     13  C   UNL     1      32.263 -23.592 -14.042  0.00  0.00    +0.250 C 
ATOM     14  C   UNL     1      32.070 -22.730 -17.698  0.00  0.00    +0.005 C 
ATOM     15  C   UNL     1      30.247 -23.063 -16.042  0.00  0.00    +0.252 C 
ATOM     16  C   UNL     1      33.424 -22.691 -18.037  0.00  0.00    +0.001 C 
ATOM     17  C   UNL     1      30.808 -23.634 -13.684  0.00  0.00    +0.291 C 
ATOM     18  H   UNL     1      28.975 -23.387 -14.498  0.00  0.00    +0.158 HD
ENDBRANCH   2  10
BRANCH   3  19
ATOM     19  C   UNL     1      36.818 -24.525 -13.554  0.00  0.00    +0.266 C 
BRANCH  19  20
ATOM     20  C   UNL     1      38.195 -24.937 -14.018  0.00  0.00    +0.026 C 
ATOM     21  C   UNL     1      38.724 -24.404 -15.194  0.00  0.00    -0.000 C 
ATOM     22  C   UNL     1      38.939 -25.851 -13.272  0.00  0.00    -0.000 C 
ATOM     23  C   UNL     1      39.995 -24.785 -15.624  0.00  0.00    -0.000 C 
ATOM     24  C   UNL     1      40.209 -26.233 -13.701  0.00  0.00    -0.000 C 
ATOM     25  C   UNL     1      40.738 -25.700 -14.877  0.00  0.00    -0.000 C 
ENDBRANCH  19  20
BRANCH  19  26
ATOM     26  O   UNL     1      36.441 -25.342 -12.456  0.00  0.00    -0.438 OA
BRANCH  26  28
ATOM     27  O   UNL     1      35.246 -25.125 -10.492  0.00  0.00    -0.250 OA
ATOM     28  C   UNL     1      36.005 -24.680 -11.342  0.00  0.00    +0.318 C 
ATOM     29  C   UNL     1      36.596 -23.303 -11.300  0.00  0.00    +0.121 C 
ENDBRANCH  26  28
ENDBRANCH  19  26
ENDBRANCH   3  19
TORSDOF 5
ENDMDL
MODEL 4
REMARK VINA RESULT:     -10.0      2.228      7.156
REMARK  Name = 24883486
REMARK  5 active torsions:
REMARK  status: ('A' for Active; 'I' for Inactive)
REMARK    1  A    between atoms: N_2  and  C_10
REMARK    2  A    between atoms: C_3  and  C_19
REMARK    3  A    between atoms: C_19  and  C_20
REMARK    4  A    between atoms: C_19  and  O_26
REMARK    5  A    between atoms: O_26  and  C_28
REMARK                            x       y       z     vdW  Elec       q    Type
REMARK                         _______ _______ _______ _____ _____    ______ ____
ROOT
ATOM      1  O   UNL     1      32.346 -13.239 -23.532  0.00  0.00    -0.270 OA
ATOM      2  N   UNL     1      34.581 -13.969 -23.481  0.00  0.00    -0.281 N 
ATOM      3  C   UNL     1      33.511 -13.172 -23.911  0.00  0.00    +0.271 C 
ATOM      4  H   UNL     1      35.457 -13.769 -23.885  0.00  0.00    +0.155 HD
ENDROOT
BRANCH   2  10
ATOM      5  O   UNL     1      34.633 -15.932 -25.261  0.00  0.00    -0.282 OA
ATOM      6  O   UNL     1      34.547 -19.662 -21.448  0.00  0.00    -0.270 OA
ATOM      7  O   UNL     1      34.651 -18.475 -25.912  0.00  0.00    -0.266 OA
ATOM      8  N   UNL     1      34.600 -19.077 -23.672  0.00  0.00    -0.246 N 
ATOM      9  C   UNL     1      34.573 -16.365 -22.918  0.00  0.00    +0.061 C 
ATOM     10  C   UNL     1      34.560 -15.015 -22.552  0.00  0.00    +0.054 C 
ATOM     11  C   UNL     1      34.552 -17.361 -21.941  0.00  0.00    +0.058 C 
ATOM     12  C   UNL     1      34.527 -14.662 -21.204  0.00  0.00    +0.015 C 
ATOM     13  C   UNL     1      34.610 -16.734 -24.339  0.00  0.00    +0.250 C 
ATOM     14  C   UNL     1      34.518 -17.000 -20.589  0.00  0.00    +0.005 C 
ATOM     15  C   UNL     1      34.566 -18.791 -22.312  0.00  0.00    +0.252 C 
ATOM     16  C   UNL     1      34.505 -15.653 -20.223  0.00  0.00    +0.001 C 
ATOM     17  C   UNL     1      34.622 -18.182 -24.726  0.00  0.00    +0.291 C 
ATOM     18  H   UNL     1      34.608 -20.031 -23.914  0.00  0.00    +0.158 HD
ENDBRANCH   2  10
BRANCH   3  19
ATOM     19  C   UNL     1      33.953 -12.135 -24.941  0.00  0.00    +0.266 C 
BRANCH  19  20
ATOM     20  C   UNL     1      33.929 -10.738 -24.368  0.00  0.00    +0.026 C 
ATOM     21  C   UNL     1      34.971  -9.853 -24.643  0.00  0.00    -0.000 C 
ATOM     22  C   UNL     1      32.865 -10.333 -23.561  0.00  0.00    -0.000 C 
ATOM     23  C   UNL     1      34.950  -8.563 -24.113  0.00  0.00    -0.000 C 
ATOM     24  C   UNL     1      32.844  -9.043 -23.031  0.00  0.00    -0.000 C 
ATOM     25  C   UNL     1      33.886  -8.158 -23.307  0.00  0.00    -0.000 C 
ENDBRANCH  19  20
BRANCH  19  26
ATOM     26  O   UNL     1      33.084 -12.185 -26.063  0.00  0.00    -0.438 OA
BRANCH  26  28
ATOM     27  O   UNL     1      34.265 -13.164 -27.790  0.00  0.00    -0.250 OA
ATOM     28  C   UNL     1      33.348 -13.165 -26.980  0.00  0.00    +0.318 C 
ATOM     29  C   UNL     1      32.340 -14.268 -26.856  0.00  0.00    +0.121 C 
ENDBRANCH  26  28
ENDBRANCH  19  26
ENDBRANCH   3  19
TORSDOF 5
ENDMDL
MODEL 5
REMARK VINA RESULT:     -10.0     10.067     12.750
REMARK  Name = 24883486
REMARK  5 active torsions:
REMARK  status: ('A' for Active; 'I' for Inactive)
REMARK    1  A    between atoms: N_2  and  C_10
REMARK    2  A    between atoms: C_3  and  C_19
REMARK    3  A    between atoms: C_19  and  C_20
REMARK    4  A    between atoms: C_19  and  O_26
REMARK    5  A    between atoms: O_26  and  C_28
REMARK                            x       y       z     vdW  Elec       q    Type
REMARK                         _______ _______ _______ _____ _____    ______ ____
ROOT
ATOM      1  O   UNL     1      36.793 -23.052 -16.262  0.00  0.00    -0.270 OA
ATOM      2  N   UNL     1      34.859 -24.165 -15.518  0.00  0.00    -0.281 N 
ATOM      3  C   UNL     1      36.232 -23.888 -15.560  0.00  0.00    +0.271 C 
ATOM      4  H   UNL     1      34.579 -24.865 -14.884  0.00  0.00    +0.155 HD
ENDROOT
BRANCH   2  10
ATOM      5  O   UNL     1      32.941 -24.546 -13.729  0.00  0.00    -0.282 OA
ATOM      6  O   UNL     1      29.291 -22.222 -16.850  0.00  0.00    -0.270 OA
ATOM      7  O   UNL     1      30.454 -24.345 -12.914  0.00  0.00    -0.266 OA
ATOM      8  N   UNL     1      29.864 -23.277 -14.888  0.00  0.00    -0.246 N 
ATOM      9  C   UNL     1      32.516 -23.472 -15.813  0.00  0.00    +0.061 C 
ATOM     10  C   UNL     1      33.835 -23.573 -16.266  0.00  0.00    +0.054 C 
ATOM     11  C   UNL     1      31.542 -22.868 -16.610  0.00  0.00    +0.058 C 
ATOM     12  C   UNL     1      34.180 -23.067 -17.519  0.00  0.00    +0.015 C 
ATOM     13  C   UNL     1      32.156 -24.005 -14.493  0.00  0.00    +0.250 C 
ATOM     14  C   UNL     1      31.894 -22.362 -17.866  0.00  0.00    +0.005 C 
ATOM     15  C   UNL     1      30.143 -22.754 -16.145  0.00  0.00    +0.252 C 
ATOM     16  C   UNL     1      33.210 -22.462 -18.318  0.00  0.00    +0.001 C 
ATOM     17  C   UNL     1      30.740 -23.895 -14.014  0.00  0.00    +0.291 C 
ATOM     18  H   UNL     1      28.931 -23.200 -14.584  0.00  0.00    +0.158 HD
ENDBRANCH   2  10
BRANCH   3  19
ATOM     19  C   UNL     1      37.018 -24.759 -14.581  0.00  0.00    +0.266 C 
BRANCH  19  20
ATOM     20  C   UNL     1      36.808 -24.316 -13.153  0.00  0.00    +0.026 C 
ATOM     21  C   UNL     1      37.421 -23.154 -12.685  0.00  0.00    -0.000 C 
ATOM     22  C   UNL     1      36.001 -25.070 -12.300  0.00  0.00    -0.000 C 
ATOM     23  C   UNL     1      37.228 -22.746 -11.365  0.00  0.00    -0.000 C 
ATOM     24  C   UNL     1      35.808 -24.663 -10.980  0.00  0.00    -0.000 C 
ATOM     25  C   UNL     1      36.421 -23.500 -10.512  0.00  0.00    -0.000 C 
ENDBRANCH  19  20
BRANCH  19  26
ATOM     26  O   UNL     1      38.402 -24.681 -14.887  0.00  0.00    -0.438 OA
BRANCH  26  28
ATOM     27  O   UNL     1      38.687 -26.969 -14.750  0.00  0.00    -0.250 OA
ATOM     28  C   UNL     1      39.122 -25.827 -14.690  0.00  0.00    +0.318 C 
ATOM     29  C   UNL     1      40.550 -25.489 -14.384  0.00  0.00    +0.121 C 
ENDBRANCH  26  28
ENDBRANCH  19  26
ENDBRANCH   3  19
TORSDOF 5
ENDMDL
MODEL 6
REMARK VINA RESULT:      -9.9      2.886      4.942
REMARK  Name = 24883486
REMARK  5 active torsions:
REMARK  status: ('A' for Active; 'I' for Inactive)
REMARK    1  A    between atoms: N_2  and  C_10
REMARK    2  A    between atoms: C_3  and  C_19
REMARK    3  A    between atoms: C_19  and  C_20
REMARK    4  A    between atoms: C_19  and  O_26
REMARK    5  A    between atoms: O_26  and  C_28
REMARK                            x       y       z     vdW  Elec       q    Type
REMARK                         _______ _______ _______ _____ _____    ______ ____
ROOT
ATOM      1  O   UNL     1      34.644 -11.693 -24.732  0.00  0.00    -0.270 OA
ATOM      2  N   UNL     1      32.767 -11.296 -23.372  0.00  0.00    -0.281 N 
ATOM      3  C   UNL     1      33.614 -12.067 -24.180  0.00  0.00    +0.271 C 
ATOM      4  H   UNL     1      31.984 -11.763 -22.999  0.00  0.00    +0.155 HD
ENDROOT
BRANCH   2  10
ATOM      5  O   UNL     1      31.779 -11.526 -20.923  0.00  0.00    -0.282 OA
ATOM      6  O   UNL     1      32.399  -6.315 -19.966  0.00  0.00    -0.270 OA
ATOM      7  O   UNL     1      31.068 -10.524 -18.604  0.00  0.00    -0.266 OA
ATOM      8  N   UNL     1      31.736  -8.408 -19.282  0.00  0.00    -0.246 N 
ATOM      9  C   UNL     1      32.510  -9.429 -21.788  0.00  0.00    +0.061 C 
ATOM     10  C   UNL     1      32.892  -9.944 -23.032  0.00  0.00    +0.054 C 
ATOM     11  C   UNL     1      32.662  -8.070 -21.512  0.00  0.00    +0.058 C 
ATOM     12  C   UNL     1      33.428  -9.096 -24.000  0.00  0.00    +0.015 C 
ATOM     13  C   UNL     1      31.946 -10.325 -20.771  0.00  0.00    +0.250 C 
ATOM     14  C   UNL     1      33.201  -7.223 -22.488  0.00  0.00    +0.005 C 
ATOM     15  C   UNL     1      32.263  -7.511 -20.204  0.00  0.00    +0.252 C 
ATOM     16  C   UNL     1      33.582  -7.737 -23.728  0.00  0.00    +0.001 C 
ATOM     17  C   UNL     1      31.538  -9.767 -19.442  0.00  0.00    +0.291 C 
ATOM     18  H   UNL     1      31.471  -8.030 -18.413  0.00  0.00    +0.158 HD
ENDBRANCH   2  10
BRANCH   3  19
ATOM     19  C   UNL     1      33.123 -13.507 -24.306  0.00  0.00    +0.266 C 
BRANCH  19  20
ATOM     20  C   UNL     1      33.364 -14.289 -23.036  0.00  0.00    +0.026 C 
ATOM     21  C   UNL     1      32.392 -14.311 -22.036  0.00  0.00    -0.000 C 
ATOM     22  C   UNL     1      34.559 -14.987 -22.863  0.00  0.00    -0.000 C 
ATOM     23  C   UNL     1      32.615 -15.032 -20.862  0.00  0.00    -0.000 C 
ATOM     24  C   UNL     1      34.782 -15.707 -21.690  0.00  0.00    -0.000 C 
ATOM     25  C   UNL     1      33.810 -15.731 -20.689  0.00  0.00    -0.000 C 
ENDBRANCH  19  20
BRANCH  19  26
ATOM     26  O   UNL     1      33.806 -14.146 -25.374  0.00  0.00    -0.438 OA
BRANCH  26  28
ATOM     27  O   UNL     1      32.585 -15.660 -26.619  0.00  0.00    -0.250 OA
ATOM     28  C   UNL     1      33.030 -14.537 -26.430  0.00  0.00    +0.318 C 
ATOM     29  C   UNL     1      32.791 -13.375 -27.348  0.00  0.00    +0.121 C 
ENDBRANCH  26  28
ENDBRANCH  19  26
ENDBRANCH   3  19
TORSDOF 5
ENDMDL
MODEL 7
REMARK VINA RESULT:      -9.8      1.785      2.609
REMARK  Name = 24883486
REMARK  5 active torsions:
REMARK  status: ('A' for Active; 'I' for Inactive)
REMARK    1  A    between atoms: N_2  and  C_10
REMARK    2  A    between atoms: C_3  and  C_19
REMARK    3  A    between atoms: C_19  and  C_20
REMARK    4  A    between atoms: C_19  and  O_26
REMARK    5  A    between atoms: O_26  and  C_28
REMARK                            x       y       z     vdW  Elec       q    Type
REMARK                         _______ _______ _______ _____ _____    ______ ____
ROOT
ATOM      1  O   UNL     1      34.504 -13.954 -22.092  0.00  0.00    -0.270 OA
ATOM      2  N   UNL     1      32.560 -13.193 -23.174  0.00  0.00    -0.281 N 
ATOM      3  C   UNL     1      33.604 -14.091 -22.914  0.00  0.00    +0.271 C 
ATOM      4  H   UNL     1      31.914 -13.470 -23.865  0.00  0.00    +0.155 HD
ENDROOT
BRANCH   2  10
ATOM      5  O   UNL     1      34.237 -11.818 -24.698  0.00  0.00    -0.282 OA
ATOM      6  O   UNL     1      33.083  -7.250 -22.196  0.00  0.00    -0.270 OA
ATOM      7  O   UNL     1      35.416  -9.589 -25.426  0.00  0.00    -0.266 OA
ATOM      8  N   UNL     1      34.246  -8.409 -23.806  0.00  0.00    -0.246 N 
ATOM      9  C   UNL     1      32.957 -10.771 -22.982  0.00  0.00    +0.061 C 
ATOM     10  C   UNL     1      32.321 -11.950 -22.578  0.00  0.00    +0.054 C 
ATOM     11  C   UNL     1      32.673  -9.563 -22.345  0.00  0.00    +0.058 C 
ATOM     12  C   UNL     1      31.397 -11.917 -21.534  0.00  0.00    +0.015 C 
ATOM     13  C   UNL     1      33.928 -10.809 -24.082  0.00  0.00    +0.250 C 
ATOM     14  C   UNL     1      31.744  -9.536 -21.297  0.00  0.00    +0.005 C 
ATOM     15  C   UNL     1      33.337  -8.310 -22.760  0.00  0.00    +0.252 C 
ATOM     16  C   UNL     1      31.110 -10.712 -20.894  0.00  0.00    +0.001 C 
ATOM     17  C   UNL     1      34.608  -9.544 -24.510  0.00  0.00    +0.291 C 
ATOM     18  H   UNL     1      34.686  -7.571 -24.079  0.00  0.00    +0.158 HD
ENDBRANCH   2  10
BRANCH   3  19
ATOM     19  C   UNL     1      33.507 -15.342 -23.784  0.00  0.00    +0.266 C 
BRANCH  19  20
ATOM     20  C   UNL     1      34.236 -16.509 -23.161  0.00  0.00    +0.026 C 
ATOM     21  C   UNL     1      34.153 -16.730 -21.786  0.00  0.00    -0.000 C 
ATOM     22  C   UNL     1      34.994 -17.366 -23.960  0.00  0.00    -0.000 C 
ATOM     23  C   UNL     1      34.826 -17.807 -21.210  0.00  0.00    -0.000 C 
ATOM     24  C   UNL     1      35.668 -18.442 -23.384  0.00  0.00    -0.000 C 
ATOM     25  C   UNL     1      35.584 -18.664 -22.009  0.00  0.00    -0.000 C 
ENDBRANCH  19  20
BRANCH  19  26
ATOM     26  O   UNL     1      34.074 -15.076 -25.059  0.00  0.00    -0.438 OA
BRANCH  26  28
ATOM     27  O   UNL     1      32.750 -16.271 -26.526  0.00  0.00    -0.250 OA
ATOM     28  C   UNL     1      33.233 -15.220 -26.127  0.00  0.00    +0.318 C 
ATOM     29  C   UNL     1      32.976 -13.885 -26.761  0.00  0.00    +0.121 C 
ENDBRANCH  26  28
ENDBRANCH  19  26
ENDBRANCH   3  19
TORSDOF 5
ENDMDL
MODEL 8
REMARK VINA RESULT:      -9.7      8.386     11.994
REMARK  Name = 24883486
REMARK  5 active torsions:
REMARK  status: ('A' for Active; 'I' for Inactive)
REMARK    1  A    between atoms: N_2  and  C_10
REMARK    2  A    between atoms: C_3  and  C_19
REMARK    3  A    between atoms: C_19  and  C_20
REMARK    4  A    between atoms: C_19  and  O_26
REMARK    5  A    between atoms: O_26  and  C_28
REMARK                            x       y       z     vdW  Elec       q    Type
REMARK                         _______ _______ _______ _____ _____    ______ ____
ROOT
ATOM      1  O   UNL     1      35.350 -25.773 -14.996  0.00  0.00    -0.270 OA
ATOM      2  N   UNL     1      35.035 -23.446 -14.862  0.00  0.00    -0.281 N 
ATOM      3  C   UNL     1      35.613 -24.675 -14.515  0.00  0.00    +0.271 C 
ATOM      4  H   UNL     1      35.376 -22.658 -14.379  0.00  0.00    +0.155 HD
ENDROOT
BRANCH   2  10
ATOM      5  O   UNL     1      36.646 -22.520 -16.752  0.00  0.00    -0.282 OA
ATOM      6  O   UNL     1      32.576 -21.704 -20.103  0.00  0.00    -0.270 OA
ATOM      7  O   UNL     1      37.092 -21.531 -19.142  0.00  0.00    -0.266 OA
ATOM      8  N   UNL     1      34.825 -21.617 -19.631  0.00  0.00    -0.246 N 
ATOM      9  C   UNL     1      34.290 -22.674 -17.078  0.00  0.00    +0.061 C 
ATOM     10  C   UNL     1      34.033 -23.199 -15.807  0.00  0.00    +0.054 C 
ATOM     11  C   UNL     1      33.244 -22.452 -17.973  0.00  0.00    +0.058 C 
ATOM     12  C   UNL     1      32.724 -23.503 -15.433  0.00  0.00    +0.015 C 
ATOM     13  C   UNL     1      35.670 -22.356 -17.468  0.00  0.00    +0.250 C 
ATOM     14  C   UNL     1      31.932 -22.759 -17.593  0.00  0.00    +0.005 C 
ATOM     15  C   UNL     1      33.501 -21.898 -19.319  0.00  0.00    +0.252 C 
ATOM     16  C   UNL     1      31.675 -23.282 -16.325  0.00  0.00    +0.001 C 
ATOM     17  C   UNL     1      35.940 -21.792 -18.830  0.00  0.00    +0.291 C 
ATOM     18  H   UNL     1      34.991 -21.247 -20.528  0.00  0.00    +0.158 HD
ENDBRANCH   2  10
BRANCH   3  19
ATOM     19  C   UNL     1      36.678 -24.517 -13.433  0.00  0.00    +0.266 C 
BRANCH  19  20
ATOM     20  C   UNL     1      38.044 -24.922 -13.935  0.00  0.00    +0.026 C 
ATOM     21  C   UNL     1      38.525 -24.411 -15.140  0.00  0.00    -0.000 C 
ATOM     22  C   UNL     1      38.825 -25.809 -13.193  0.00  0.00    -0.000 C 
ATOM     23  C   UNL     1      39.786 -24.786 -15.604  0.00  0.00    -0.000 C 
ATOM     24  C   UNL     1      40.085 -26.185 -13.657  0.00  0.00    -0.000 C 
ATOM     25  C   UNL     1      40.566 -25.673 -14.863  0.00  0.00    -0.000 C 
ENDBRANCH  19  20
BRANCH  19  26
ATOM     26  O   UNL     1      36.341 -25.327 -12.317  0.00  0.00    -0.438 OA
BRANCH  26  28
ATOM     27  O   UNL     1      35.235 -25.101 -10.302  0.00  0.00    -0.250 OA
ATOM     28  C   UNL     1      35.951 -24.658 -11.190  0.00  0.00    +0.318 C 
ATOM     29  C   UNL     1      36.531 -23.275 -11.188  0.00  0.00    +0.121 C 
ENDBRANCH  26  28
ENDBRANCH  19  26
ENDBRANCH   3  19
TORSDOF 5
ENDMDL
MODEL 9
REMARK VINA RESULT:      -9.6      2.075      3.685
REMARK  Name = 24883486
REMARK  5 active torsions:
REMARK  status: ('A' for Active; 'I' for Inactive)
REMARK    1  A    between atoms: N_2  and  C_10
REMARK    2  A    between atoms: C_3  and  C_19
REMARK    3  A    between atoms: C_19  and  C_20
REMARK    4  A    between atoms: C_19  and  O_26
REMARK    5  A    between atoms: O_26  and  C_28
REMARK                            x       y       z     vdW  Elec       q    Type
REMARK                         _______ _______ _______ _____ _____    ______ ____
ROOT
ATOM      1  O   UNL     1      34.849 -13.863 -22.633  0.00  0.00    -0.270 OA
ATOM      2  N   UNL     1      33.575 -12.860 -24.338  0.00  0.00    -0.281 N 
ATOM      3  C   UNL     1      34.109 -13.933 -23.610  0.00  0.00    +0.271 C 
ATOM      4  H   UNL     1      32.988 -13.101 -25.091  0.00  0.00    +0.155 HD
ENDROOT
BRANCH   2  10
ATOM      5  O   UNL     1      31.765 -12.597 -22.419  0.00  0.00    -0.282 OA
ATOM      6  O   UNL     1      32.786  -7.387 -21.896  0.00  0.00    -0.270 OA
ATOM      7  O   UNL     1      30.442 -11.171 -20.658  0.00  0.00    -0.266 OA
ATOM      8  N   UNL     1      31.617  -9.267 -21.275  0.00  0.00    -0.246 N 
ATOM      9  C   UNL     1      33.061 -10.748 -23.183  0.00  0.00    +0.061 C 
ATOM     10  C   UNL     1      33.775 -11.491 -24.130  0.00  0.00    +0.054 C 
ATOM     11  C   UNL     1      33.309  -9.384 -23.026  0.00  0.00    +0.058 C 
ATOM     12  C   UNL     1      34.739 -10.866 -24.920  0.00  0.00    +0.015 C 
ATOM     13  C   UNL     1      32.047 -11.410 -22.353  0.00  0.00    +0.250 C 
ATOM     14  C   UNL     1      34.279  -8.762 -23.821  0.00  0.00    +0.005 C 
ATOM     15  C   UNL     1      32.564  -8.586 -22.030  0.00  0.00    +0.252 C 
ATOM     16  C   UNL     1      34.990  -9.503 -24.766  0.00  0.00    +0.001 C 
ATOM     17  C   UNL     1      31.285 -10.608 -21.341  0.00  0.00    +0.291 C 
ATOM     18  H   UNL     1      31.122  -8.731 -20.613  0.00  0.00    +0.158 HD
ENDBRANCH   2  10
BRANCH   3  19
ATOM     19  C   UNL     1      33.647 -15.280 -24.160  0.00  0.00    +0.266 C 
BRANCH  19  20
ATOM     20  C   UNL     1      34.244 -16.431 -23.386  0.00  0.00    +0.026 C 
ATOM     21  C   UNL     1      34.993 -17.404 -24.047  0.00  0.00    -0.000 C 
ATOM     22  C   UNL     1      34.045 -16.522 -22.008  0.00  0.00    -0.000 C 
ATOM     23  C   UNL     1      35.544 -18.467 -23.332  0.00  0.00    -0.000 C 
ATOM     24  C   UNL     1      34.595 -17.585 -21.292  0.00  0.00    -0.000 C 
ATOM     25  C   UNL     1      35.345 -18.558 -21.954  0.00  0.00    -0.000 C 
ENDBRANCH  19  20
BRANCH  19  26
ATOM     26  O   UNL     1      34.036 -15.392 -25.521  0.00  0.00    -0.438 OA
BRANCH  26  28
ATOM     27  O   UNL     1      32.315 -16.392 -26.692  0.00  0.00    -0.250 OA
ATOM     28  C   UNL     1      33.017 -15.425 -26.433  0.00  0.00    +0.318 C 
ATOM     29  C   UNL     1      32.874 -14.084 -27.088  0.00  0.00    +0.121 C 
ENDBRANCH  26  28
ENDBRANCH  19  26
ENDBRANCH   3  19
TORSDOF 5
ENDMDL
