MODEL 1
REMARK VINA RESULT:      -7.7      0.000      0.000
REMARK  Name = 17754204
REMARK  6 active torsions:
REMARK  status: ('A' for Active; 'I' for Inactive)
REMARK    1  A    between atoms: C_2  and  C_13
REMARK    2  A    between atoms: C_5  and  O_11
REMARK    3  A    between atoms: C_13  and  CA_14
REMARK    4  A    between atoms: CA_14  and  N_15
REMARK    5  A    between atoms: CA_14  and  C_20
REMARK    6  A    between atoms: C_20  and  O_21
REMARK                            x       y       z     vdW  Elec       q    Type
REMARK                         _______ _______ _______ _____ _____    ______ ____
ROOT
ATOM      1  N   UNL     1      33.049 -21.956 -19.221  0.00  0.00    -0.325 N 
ATOM      2  C   UNL     1      35.233 -21.804 -18.852  0.00  0.00    +0.029 A 
ATOM      3  C   UNL     1      34.877 -20.827 -19.824  0.00  0.00    +0.016 A 
ATOM      4  C   UNL     1      33.501 -20.945 -20.038  0.00  0.00    +0.059 A 
ATOM      5  C   UNL     1      34.088 -22.481 -18.500  0.00  0.00    +0.195 A 
ATOM      6  C   UNL     1      35.594 -19.853 -20.546  0.00  0.00    +0.001 C 
ATOM      7  C   UNL     1      32.806 -20.133 -20.940  0.00  0.00    +0.017 C 
ATOM      8  C   UNL     1      34.911 -19.033 -21.452  0.00  0.00    +0.000 C 
ATOM      9  C   UNL     1      33.538 -19.173 -21.644  0.00  0.00    +0.001 C 
ATOM     10  H   UNL     1      32.115 -22.259 -19.163  0.00  0.00    +0.169 HD
ENDROOT
BRANCH   5  11
ATOM     11  O   UNL     1      33.876 -23.472 -17.645  0.00  0.00    -0.493 OA
ATOM     12  H   UNL     1      34.364 -24.268 -17.721  0.00  0.00    +0.294 HD
ENDBRANCH   5  11
BRANCH   2  13
ATOM     13  C   UNL     1      36.587 -22.048 -18.312  0.00  0.00    +0.020 C 
BRANCH  13  14
ATOM     14  CA  UNL     1      36.706 -21.821 -16.783  0.00  0.00    +0.040 C 
BRANCH  14  15
ATOM     15  N   UNL     1      37.785 -20.884 -16.478  0.00  0.00    +0.389 N 
ATOM     16  H1  UNL     1      37.500 -19.940 -16.742  0.00  0.00    -0.088 HD
ATOM     17  H2  UNL     1      38.620 -21.145 -17.002  0.00  0.00    -0.088 HD
ATOM     18  H3  UNL     1      37.986 -20.911 -15.480  0.00  0.00    -0.088 HD
ENDBRANCH  14  15
BRANCH  14  20
ATOM     19  OXT UNL     1      36.206 -23.958 -15.729  0.00  0.00    -0.253 OA
ATOM     20  C   UNL     1      37.029 -23.109 -16.047  0.00  0.00    +0.293 C 
BRANCH  20  21
ATOM     21  O   UNL     1      38.359 -23.246 -15.803  0.00  0.00    -0.482 OA
ATOM     22  H   UNL     1      38.649 -23.660 -15.014  0.00  0.00    +0.295 HD
ENDBRANCH  20  21
ENDBRANCH  14  20
ENDBRANCH  13  14
ENDBRANCH   2  13
TORSDOF 6
ENDMDL
MODEL 2
REMARK VINA RESULT:      -7.6      4.650      6.789
REMARK  Name = 17754204
REMARK  6 active torsions:
REMARK  status: ('A' for Active; 'I' for Inactive)
REMARK    1  A    between atoms: C_2  and  C_13
REMARK    2  A    between atoms: C_5  and  O_11
REMARK    3  A    between atoms: C_13  and  CA_14
REMARK    4  A    between atoms: CA_14  and  N_15
REMARK    5  A    between atoms: CA_14  and  C_20
REMARK    6  A    between atoms: C_20  and  O_21
REMARK                            x       y       z     vdW  Elec       q    Type
REMARK                         _______ _______ _______ _____ _____    ______ ____
ROOT
ATOM      1  N   UNL     1      36.779 -20.017 -20.668  0.00  0.00    -0.325 N 
ATOM      2  C   UNL     1      35.063 -18.898 -21.521  0.00  0.00    +0.029 A 
ATOM      3  C   UNL     1      34.550 -19.925 -20.680  0.00  0.00    +0.016 A 
ATOM      4  C   UNL     1      35.648 -20.613 -20.158  0.00  0.00    +0.059 A 
ATOM      5  C   UNL     1      36.436 -18.979 -21.493  0.00  0.00    +0.195 A 
ATOM      6  C   UNL     1      33.254 -20.338 -20.313  0.00  0.00    +0.001 C 
ATOM      7  C   UNL     1      35.513 -21.696 -19.283  0.00  0.00    +0.017 C 
ATOM      8  C   UNL     1      33.104 -21.420 -19.438  0.00  0.00    +0.000 C 
ATOM      9  C   UNL     1      34.218 -22.088 -18.933  0.00  0.00    +0.001 C 
ATOM     10  H   UNL     1      37.701 -20.297 -20.470  0.00  0.00    +0.169 HD
ENDROOT
BRANCH   5  11
ATOM     11  O   UNL     1      37.375 -18.263 -22.094  0.00  0.00    -0.493 OA
ATOM     12  H   UNL     1      38.145 -18.683 -22.425  0.00  0.00    +0.294 HD
ENDBRANCH   5  11
BRANCH   2  13
ATOM     13  C   UNL     1      34.267 -17.915 -22.287  0.00  0.00    +0.020 C 
BRANCH  13  14
ATOM     14  CA  UNL     1      34.283 -18.150 -23.820  0.00  0.00    +0.040 C 
BRANCH  14  15
ATOM     15  N   UNL     1      35.014 -19.370 -24.153  0.00  0.00    +0.389 N 
ATOM     16  H1  UNL     1      35.951 -19.325 -23.751  0.00  0.00    -0.088 HD
ATOM     17  H2  UNL     1      35.083 -19.458 -25.167  0.00  0.00    -0.088 HD
ATOM     18  H3  UNL     1      34.520 -20.176 -23.774  0.00  0.00    -0.088 HD
ENDBRANCH  14  15
BRANCH  14  20
ATOM     19  OXT UNL     1      34.857 -16.782 -25.751  0.00  0.00    -0.253 OA
ATOM     20  C   UNL     1      34.973 -17.014 -24.555  0.00  0.00    +0.293 C 
BRANCH  20  21
ATOM     21  O   UNL     1      35.723 -16.242 -23.725  0.00  0.00    -0.482 OA
ATOM     22  H   UNL     1      36.614 -16.472 -23.550  0.00  0.00    +0.295 HD
ENDBRANCH  20  21
ENDBRANCH  14  20
ENDBRANCH  13  14
ENDBRANCH   2  13
TORSDOF 6
ENDMDL
MODEL 3
REMARK VINA RESULT:      -7.6      4.864      6.050
REMARK  Name = 17754204
REMARK  6 active torsions:
REMARK  status: ('A' for Active; 'I' for Inactive)
REMARK    1  A    between atoms: C_2  and  C_13
REMARK    2  A    between atoms: C_5  and  O_11
REMARK    3  A    between atoms: C_13  and  CA_14
REMARK    4  A    between atoms: CA_14  and  N_15
REMARK    5  A    between atoms: CA_14  and  C_20
REMARK    6  A    between atoms: C_20  and  O_21
REMARK                            x       y       z     vdW  Elec       q    Type
REMARK                         _______ _______ _______ _____ _____    ______ ____
ROOT
ATOM      1  N   UNL     1      34.408 -24.677 -12.706  0.00  0.00    -0.325 N 
ATOM      2  C   UNL     1      36.431 -24.403 -13.577  0.00  0.00    +0.029 A 
ATOM      3  C   UNL     1      35.472 -23.964 -14.533  0.00  0.00    +0.016 A 
ATOM      4  C   UNL     1      34.210 -24.148 -13.961  0.00  0.00    +0.059 A 
ATOM      5  C   UNL     1      35.746 -24.834 -12.464  0.00  0.00    +0.195 A 
ATOM      6  C   UNL     1      35.556 -23.428 -15.833  0.00  0.00    +0.001 C 
ATOM      7  C   UNL     1      33.025 -23.820 -14.628  0.00  0.00    +0.017 C 
ATOM      8  C   UNL     1      34.377 -23.096 -16.512  0.00  0.00    +0.000 C 
ATOM      9  C   UNL     1      33.133 -23.290 -15.916  0.00  0.00    +0.001 C 
ATOM     10  H   UNL     1      33.691 -24.910 -12.074  0.00  0.00    +0.169 HD
ENDROOT
BRANCH   5  11
ATOM     11  O   UNL     1      36.164 -25.331 -11.309  0.00  0.00    -0.493 OA
ATOM     12  H   UNL     1      37.068 -25.269 -11.071  0.00  0.00    +0.294 HD
ENDBRANCH   5  11
BRANCH   2  13
ATOM     13  C   UNL     1      37.900 -24.395 -13.744  0.00  0.00    +0.020 C 
BRANCH  13  14
ATOM     14  CA  UNL     1      38.427 -25.467 -14.732  0.00  0.00    +0.040 C 
BRANCH  14  15
ATOM     15  N   UNL     1      38.139 -26.813 -14.242  0.00  0.00    +0.389 N 
ATOM     16  H1  UNL     1      38.298 -26.851 -13.236  0.00  0.00    -0.088 HD
ATOM     17  H2  UNL     1      38.751 -27.482 -14.709  0.00  0.00    -0.088 HD
ATOM     18  H3  UNL     1      37.167 -27.046 -14.441  0.00  0.00    -0.088 HD
ENDBRANCH  14  15
BRANCH  14  20
ATOM     19  OXT UNL     1      40.705 -24.906 -14.078  0.00  0.00    -0.253 OA
ATOM     20  C   UNL     1      39.934 -25.380 -14.903  0.00  0.00    +0.293 C 
BRANCH  20  21
ATOM     21  O   UNL     1      40.354 -25.926 -16.074  0.00  0.00    -0.482 OA
ATOM     22  H   UNL     1      39.762 -25.996 -16.796  0.00  0.00    +0.295 HD
ENDBRANCH  20  21
ENDBRANCH  14  20
ENDBRANCH  13  14
ENDBRANCH   2  13
TORSDOF 6
ENDMDL
MODEL 4
REMARK VINA RESULT:      -7.5      4.355      5.374
REMARK  Name = 17754204
REMARK  6 active torsions:
REMARK  status: ('A' for Active; 'I' for Inactive)
REMARK    1  A    between atoms: C_2  and  C_13
REMARK    2  A    between atoms: C_5  and  O_11
REMARK    3  A    between atoms: C_13  and  CA_14
REMARK    4  A    between atoms: CA_14  and  N_15
REMARK    5  A    between atoms: CA_14  and  C_20
REMARK    6  A    between atoms: C_20  and  O_21
REMARK                            x       y       z     vdW  Elec       q    Type
REMARK                         _______ _______ _______ _____ _____    ______ ____
ROOT
ATOM      1  N   UNL     1      32.984 -24.177 -13.566  0.00  0.00    -0.325 N 
ATOM      2  C   UNL     1      35.013 -24.107 -14.463  0.00  0.00    +0.029 A 
ATOM      3  C   UNL     1      34.076 -23.684 -15.448  0.00  0.00    +0.016 A 
ATOM      4  C   UNL     1      32.811 -23.738 -14.859  0.00  0.00    +0.059 A 
ATOM      5  C   UNL     1      34.311 -24.403 -13.317  0.00  0.00    +0.195 A 
ATOM      6  C   UNL     1      34.184 -23.260 -16.787  0.00  0.00    +0.001 C 
ATOM      7  C   UNL     1      31.644 -23.386 -15.545  0.00  0.00    +0.017 C 
ATOM      8  C   UNL     1      33.024 -22.906 -17.486  0.00  0.00    +0.000 C 
ATOM      9  C   UNL     1      31.775 -22.969 -16.873  0.00  0.00    +0.001 C 
ATOM     10  H   UNL     1      32.259 -24.310 -12.915  0.00  0.00    +0.169 HD
ENDROOT
BRANCH   5  11
ATOM     11  O   UNL     1      34.705 -24.833 -12.127  0.00  0.00    -0.493 OA
ATOM     12  H   UNL     1      34.284 -24.518 -11.352  0.00  0.00    +0.294 HD
ENDBRANCH   5  11
BRANCH   2  13
ATOM     13  C   UNL     1      36.477 -24.210 -14.635  0.00  0.00    +0.020 C 
BRANCH  13  14
ATOM     14  CA  UNL     1      36.981 -25.652 -14.900  0.00  0.00    +0.040 C 
BRANCH  14  15
ATOM     15  N   UNL     1      35.863 -26.553 -15.170  0.00  0.00    +0.389 N 
ATOM     16  H1  UNL     1      36.120 -27.504 -14.903  0.00  0.00    -0.088 HD
ATOM     17  H2  UNL     1      35.640 -26.529 -16.165  0.00  0.00    -0.088 HD
ATOM     18  H3  UNL     1      35.050 -26.257 -14.631  0.00  0.00    -0.088 HD
ENDBRANCH  14  15
BRANCH  14  20
ATOM     19  OXT UNL     1      38.932 -26.196 -13.548  0.00  0.00    -0.253 OA
ATOM     20  C   UNL     1      37.717 -26.220 -13.700  0.00  0.00    +0.293 C 
BRANCH  20  21
ATOM     21  O   UNL     1      36.870 -26.737 -12.771  0.00  0.00    -0.482 OA
ATOM     22  H   UNL     1      36.054 -27.111 -13.039  0.00  0.00    +0.295 HD
ENDBRANCH  20  21
ENDBRANCH  14  20
ENDBRANCH  13  14
ENDBRANCH   2  13
TORSDOF 6
ENDMDL
MODEL 5
REMARK VINA RESULT:      -7.5      4.661      6.654
REMARK  Name = 17754204
REMARK  6 active torsions:
REMARK  status: ('A' for Active; 'I' for Inactive)
REMARK    1  A    between atoms: C_2  and  C_13
REMARK    2  A    between atoms: C_5  and  O_11
REMARK    3  A    between atoms: C_13  and  CA_14
REMARK    4  A    between atoms: CA_14  and  N_15
REMARK    5  A    between atoms: CA_14  and  C_20
REMARK    6  A    between atoms: C_20  and  O_21
REMARK                            x       y       z     vdW  Elec       q    Type
REMARK                         _______ _______ _______ _____ _____    ______ ____
ROOT
ATOM      1  N   UNL     1      36.746 -20.058 -20.662  0.00  0.00    -0.325 N 
ATOM      2  C   UNL     1      34.980 -18.946 -21.417  0.00  0.00    +0.029 A 
ATOM      3  C   UNL     1      34.516 -20.002 -20.583  0.00  0.00    +0.016 A 
ATOM      4  C   UNL     1      35.645 -20.684 -20.122  0.00  0.00    +0.059 A 
ATOM      5  C   UNL     1      36.354 -19.006 -21.446  0.00  0.00    +0.195 A 
ATOM      6  C   UNL     1      33.242 -20.444 -20.174  0.00  0.00    +0.001 C 
ATOM      7  C   UNL     1      35.561 -21.791 -19.270  0.00  0.00    +0.017 C 
ATOM      8  C   UNL     1      33.145 -21.550 -19.322  0.00  0.00    +0.000 C 
ATOM      9  C   UNL     1      34.288 -22.211 -18.878  0.00  0.00    +0.001 C 
ATOM     10  H   UNL     1      37.679 -20.328 -20.507  0.00  0.00    +0.169 HD
ENDROOT
BRANCH   5  11
ATOM     11  O   UNL     1      37.258 -18.261 -22.065  0.00  0.00    -0.493 OA
ATOM     12  H   UNL     1      37.108 -17.979 -22.946  0.00  0.00    +0.294 HD
ENDBRANCH   5  11
BRANCH   2  13
ATOM     13  C   UNL     1      34.140 -17.958 -22.127  0.00  0.00    +0.020 C 
BRANCH  13  14
ATOM     14  CA  UNL     1      34.355 -16.496 -21.658  0.00  0.00    +0.040 C 
BRANCH  14  15
ATOM     15  N   UNL     1      33.113 -15.927 -21.140  0.00  0.00    +0.389 N 
ATOM     16  H1  UNL     1      32.415 -16.664 -21.044  0.00  0.00    -0.088 HD
ATOM     17  H2  UNL     1      32.770 -15.216 -21.785  0.00  0.00    -0.088 HD
ATOM     18  H3  UNL     1      33.287 -15.504 -20.229  0.00  0.00    -0.088 HD
ENDBRANCH  14  15
BRANCH  14  20
ATOM     19  OXT UNL     1      34.415 -14.452 -22.980  0.00  0.00    -0.253 OA
ATOM     20  C   UNL     1      34.800 -15.600 -22.801  0.00  0.00    +0.293 C 
BRANCH  20  21
ATOM     21  O   UNL     1      35.717 -16.202 -23.603  0.00  0.00    -0.482 OA
ATOM     22  H   UNL     1      35.805 -17.134 -23.595  0.00  0.00    +0.295 HD
ENDBRANCH  20  21
ENDBRANCH  14  20
ENDBRANCH  13  14
ENDBRANCH   2  13
TORSDOF 6
ENDMDL
MODEL 6
REMARK VINA RESULT:      -7.5      6.138      8.357
REMARK  Name = 17754204
REMARK  6 active torsions:
REMARK  status: ('A' for Active; 'I' for Inactive)
REMARK    1  A    between atoms: C_2  and  C_13
REMARK    2  A    between atoms: C_5  and  O_11
REMARK    3  A    between atoms: C_13  and  CA_14
REMARK    4  A    between atoms: CA_14  and  N_15
REMARK    5  A    between atoms: CA_14  and  C_20
REMARK    6  A    between atoms: C_20  and  O_21
REMARK                            x       y       z     vdW  Elec       q    Type
REMARK                         _______ _______ _______ _____ _____    ______ ____
ROOT
ATOM      1  N   UNL     1      34.966 -17.643 -21.044  0.00  0.00    -0.325 N 
ATOM      2  C   UNL     1      34.635 -15.798 -22.232  0.00  0.00    +0.029 A 
ATOM      3  C   UNL     1      34.650 -16.905 -23.126  0.00  0.00    +0.016 A 
ATOM      4  C   UNL     1      34.860 -18.051 -22.355  0.00  0.00    +0.059 A 
ATOM      5  C   UNL     1      34.830 -16.284 -20.960  0.00  0.00    +0.195 A 
ATOM      6  C   UNL     1      34.506 -17.043 -24.521  0.00  0.00    +0.001 C 
ATOM      7  C   UNL     1      34.933 -19.332 -22.912  0.00  0.00    +0.017 C 
ATOM      8  C   UNL     1      34.577 -18.319 -25.091  0.00  0.00    +0.000 C 
ATOM      9  C   UNL     1      34.787 -19.444 -24.298  0.00  0.00    +0.001 C 
ATOM     10  H   UNL     1      35.117 -18.243 -20.279  0.00  0.00    +0.169 HD
ENDROOT
BRANCH   5  11
ATOM     11  O   UNL     1      34.899 -15.677 -19.784  0.00  0.00    -0.493 OA
ATOM     12  H   UNL     1      35.644 -15.150 -19.571  0.00  0.00    +0.294 HD
ENDBRANCH   5  11
BRANCH   2  13
ATOM     13  C   UNL     1      34.441 -14.379 -22.599  0.00  0.00    +0.020 C 
BRANCH  13  14
ATOM     14  CA  UNL     1      32.967 -14.000 -22.894  0.00  0.00    +0.040 C 
BRANCH  14  15
ATOM     15  N   UNL     1      32.885 -13.037 -23.989  0.00  0.00    +0.389 N 
ATOM     16  H1  UNL     1      33.420 -12.202 -23.748  0.00  0.00    -0.088 HD
ATOM     17  H2  UNL     1      31.910 -12.783 -24.146  0.00  0.00    -0.088 HD
ATOM     18  H3  UNL     1      33.270 -13.452 -24.836  0.00  0.00    -0.088 HD
ENDBRANCH  14  15
BRANCH  14  20
ATOM     19  OXT UNL     1      32.555 -13.617 -20.524  0.00  0.00    -0.253 OA
ATOM     20  C   UNL     1      32.303 -13.350 -21.692  0.00  0.00    +0.293 C 
BRANCH  20  21
ATOM     21  O   UNL     1      31.406 -12.395 -22.052  0.00  0.00    -0.482 OA
ATOM     22  H   UNL     1      30.489 -12.549 -21.942  0.00  0.00    +0.295 HD
ENDBRANCH  20  21
ENDBRANCH  14  20
ENDBRANCH  13  14
ENDBRANCH   2  13
TORSDOF 6
ENDMDL
MODEL 7
REMARK VINA RESULT:      -7.4      3.612      5.099
REMARK  Name = 17754204
REMARK  6 active torsions:
REMARK  status: ('A' for Active; 'I' for Inactive)
REMARK    1  A    between atoms: C_2  and  C_13
REMARK    2  A    between atoms: C_5  and  O_11
REMARK    3  A    between atoms: C_13  and  CA_14
REMARK    4  A    between atoms: CA_14  and  N_15
REMARK    5  A    between atoms: CA_14  and  C_20
REMARK    6  A    between atoms: C_20  and  O_21
REMARK                            x       y       z     vdW  Elec       q    Type
REMARK                         _______ _______ _______ _____ _____    ______ ____
ROOT
ATOM      1  N   UNL     1      32.339 -22.890 -17.746  0.00  0.00    -0.325 N 
ATOM      2  C   UNL     1      33.776 -23.303 -16.105  0.00  0.00    +0.029 A 
ATOM      3  C   UNL     1      32.466 -23.271 -15.550  0.00  0.00    +0.016 A 
ATOM      4  C   UNL     1      31.583 -23.009 -16.602  0.00  0.00    +0.059 A 
ATOM      5  C   UNL     1      33.666 -23.067 -17.456  0.00  0.00    +0.195 A 
ATOM      6  C   UNL     1      31.945 -23.438 -14.252  0.00  0.00    +0.001 C 
ATOM      7  C   UNL     1      30.200 -22.907 -16.417  0.00  0.00    +0.017 C 
ATOM      8  C   UNL     1      30.563 -23.338 -14.054  0.00  0.00    +0.000 C 
ATOM      9  C   UNL     1      29.706 -23.076 -15.121  0.00  0.00    +0.001 C 
ATOM     10  H   UNL     1      31.979 -22.704 -18.642  0.00  0.00    +0.169 HD
ENDROOT
BRANCH   5  11
ATOM     11  O   UNL     1      34.576 -22.994 -18.417  0.00  0.00    -0.493 OA
ATOM     12  H   UNL     1      35.472 -22.827 -18.202  0.00  0.00    +0.294 HD
ENDBRANCH   5  11
BRANCH   2  13
ATOM     13  C   UNL     1      35.033 -23.550 -15.367  0.00  0.00    +0.020 C 
BRANCH  13  14
ATOM     14  CA  UNL     1      35.143 -24.975 -14.769  0.00  0.00    +0.040 C 
BRANCH  14  15
ATOM     15  N   UNL     1      35.381 -24.919 -13.328  0.00  0.00    +0.389 N 
ATOM     16  H1  UNL     1      34.500 -24.745 -12.845  0.00  0.00    -0.088 HD
ATOM     17  H2  UNL     1      36.037 -24.166 -13.121  0.00  0.00    -0.088 HD
ATOM     18  H3  UNL     1      35.771 -25.807 -13.013  0.00  0.00    -0.088 HD
ENDBRANCH  14  15
BRANCH  14  20
ATOM     19  OXT UNL     1      36.247 -26.912 -15.749  0.00  0.00    -0.253 OA
ATOM     20  C   UNL     1      36.303 -25.749 -15.371  0.00  0.00    +0.293 C 
BRANCH  20  21
ATOM     21  O   UNL     1      37.427 -24.993 -15.482  0.00  0.00    -0.482 OA
ATOM     22  H   UNL     1      38.262 -25.363 -15.278  0.00  0.00    +0.295 HD
ENDBRANCH  20  21
ENDBRANCH  14  20
ENDBRANCH  13  14
ENDBRANCH   2  13
TORSDOF 6
ENDMDL
MODEL 8
REMARK VINA RESULT:      -7.4      7.900     10.127
REMARK  Name = 17754204
REMARK  6 active torsions:
REMARK  status: ('A' for Active; 'I' for Inactive)
REMARK    1  A    between atoms: C_2  and  C_13
REMARK    2  A    between atoms: C_5  and  O_11
REMARK    3  A    between atoms: C_13  and  CA_14
REMARK    4  A    between atoms: CA_14  and  N_15
REMARK    5  A    between atoms: CA_14  and  C_20
REMARK    6  A    between atoms: C_20  and  O_21
REMARK                            x       y       z     vdW  Elec       q    Type
REMARK                         _______ _______ _______ _____ _____    ______ ____
ROOT
ATOM      1  N   UNL     1      34.553 -16.780 -25.133  0.00  0.00    -0.325 N 
ATOM      2  C   UNL     1      33.534 -15.034 -24.218  0.00  0.00    +0.029 A 
ATOM      3  C   UNL     1      34.118 -15.805 -23.174  0.00  0.00    +0.016 A 
ATOM      4  C   UNL     1      34.751 -16.896 -23.776  0.00  0.00    +0.059 A 
ATOM      5  C   UNL     1      33.819 -15.659 -25.410  0.00  0.00    +0.195 A 
ATOM      6  C   UNL     1      34.169 -15.681 -21.771  0.00  0.00    +0.001 C 
ATOM      7  C   UNL     1      35.435 -17.871 -23.042  0.00  0.00    +0.017 C 
ATOM      8  C   UNL     1      34.850 -16.650 -21.025  0.00  0.00    +0.000 C 
ATOM      9  C   UNL     1      35.472 -17.727 -21.652  0.00  0.00    +0.001 C 
ATOM     10  H   UNL     1      34.890 -17.413 -25.807  0.00  0.00    +0.169 HD
ENDROOT
BRANCH   5  11
ATOM     11  O   UNL     1      33.511 -15.353 -26.662  0.00  0.00    -0.493 OA
ATOM     12  H   UNL     1      34.144 -14.935 -27.213  0.00  0.00    +0.294 HD
ENDBRANCH   5  11
BRANCH   2  13
ATOM     13  C   UNL     1      32.761 -13.785 -24.055  0.00  0.00    +0.020 C 
BRANCH  13  14
ATOM     14  CA  UNL     1      33.639 -12.523 -23.851  0.00  0.00    +0.040 C 
BRANCH  14  15
ATOM     15  N   UNL     1      32.906 -11.491 -23.121  0.00  0.00    +0.389 N 
ATOM     16  H1  UNL     1      31.919 -11.743 -23.076  0.00  0.00    -0.088 HD
ATOM     17  H2  UNL     1      33.008 -10.598 -23.602  0.00  0.00    -0.088 HD
ATOM     18  H3  UNL     1      33.280 -11.414 -22.176  0.00  0.00    -0.088 HD
ENDBRANCH  14  15
BRANCH  14  20
ATOM     19  OXT UNL     1      33.606 -12.232 -26.269  0.00  0.00    -0.253 OA
ATOM     20  C   UNL     1      34.053 -11.907 -25.176  0.00  0.00    +0.293 C 
BRANCH  20  21
ATOM     21  O   UNL     1      34.965 -10.911 -25.021  0.00  0.00    -0.482 OA
ATOM     22  H   UNL     1      35.738 -10.899 -25.548  0.00  0.00    +0.295 HD
ENDBRANCH  20  21
ENDBRANCH  14  20
ENDBRANCH  13  14
ENDBRANCH   2  13
TORSDOF 6
ENDMDL
MODEL 9
REMARK VINA RESULT:      -7.4      6.479      8.604
REMARK  Name = 17754204
REMARK  6 active torsions:
REMARK  status: ('A' for Active; 'I' for Inactive)
REMARK    1  A    between atoms: C_2  and  C_13
REMARK    2  A    between atoms: C_5  and  O_11
REMARK    3  A    between atoms: C_13  and  CA_14
REMARK    4  A    between atoms: CA_14  and  N_15
REMARK    5  A    between atoms: CA_14  and  C_20
REMARK    6  A    between atoms: C_20  and  O_21
REMARK                            x       y       z     vdW  Elec       q    Type
REMARK                         _______ _______ _______ _____ _____    ______ ____
ROOT
ATOM      1  N   UNL     1      34.343 -17.573 -25.139  0.00  0.00    -0.325 N 
ATOM      2  C   UNL     1      34.397 -15.767 -23.851  0.00  0.00    +0.029 A 
ATOM      3  C   UNL     1      34.713 -16.897 -23.046  0.00  0.00    +0.016 A 
ATOM      4  C   UNL     1      34.671 -18.018 -23.879  0.00  0.00    +0.059 A 
ATOM      5  C   UNL     1      34.176 -16.214 -25.133  0.00  0.00    +0.195 A 
ATOM      6  C   UNL     1      35.030 -17.075 -21.684  0.00  0.00    +0.001 C 
ATOM      7  C   UNL     1      34.932 -19.311 -23.416  0.00  0.00    +0.017 C 
ATOM      8  C   UNL     1      35.293 -18.364 -21.208  0.00  0.00    +0.000 C 
ATOM      9  C   UNL     1      35.244 -19.464 -22.062  0.00  0.00    +0.001 C 
ATOM     10  H   UNL     1      34.242 -18.149 -25.931  0.00  0.00    +0.169 HD
ENDROOT
BRANCH   5  11
ATOM     11  O   UNL     1      33.855 -15.575 -26.249  0.00  0.00    -0.493 OA
ATOM     12  H   UNL     1      33.371 -16.015 -26.919  0.00  0.00    +0.294 HD
ENDBRANCH   5  11
BRANCH   2  13
ATOM     13  C   UNL     1      34.323 -14.362 -23.397  0.00  0.00    +0.020 C 
BRANCH  13  14
ATOM     14  CA  UNL     1      32.879 -13.857 -23.143  0.00  0.00    +0.040 C 
BRANCH  14  15
ATOM     15  N   UNL     1      32.807 -12.402 -23.257  0.00  0.00    +0.389 N 
ATOM     16  H1  UNL     1      31.943 -12.140 -23.731  0.00  0.00    -0.088 HD
ATOM     17  H2  UNL     1      33.606 -12.064 -23.794  0.00  0.00    -0.088 HD
ATOM     18  H3  UNL     1      32.823 -11.988 -22.326  0.00  0.00    -0.088 HD
ENDBRANCH  14  15
BRANCH  14  20
ATOM     19  OXT UNL     1      32.067 -15.329 -21.381  0.00  0.00    -0.253 OA
ATOM     20  C   UNL     1      32.399 -14.209 -21.746  0.00  0.00    +0.293 C 
BRANCH  20  21
ATOM     21  O   UNL     1      32.409 -13.136 -20.911  0.00  0.00    -0.482 OA
ATOM     22  H   UNL     1      32.425 -12.269 -21.264  0.00  0.00    +0.295 HD
ENDBRANCH  20  21
ENDBRANCH  14  20
ENDBRANCH  13  14
ENDBRANCH   2  13
TORSDOF 6
ENDMDL
