MODEL 1
REMARK VINA RESULT:      -9.7      0.000      0.000
REMARK  Name = 2541
REMARK  8 active torsions:
REMARK  status: ('A' for Active; 'I' for Inactive)
REMARK    1  A    between atoms: C_1  and  C_19
REMARK    2  A    between atoms: C_4  and  C_7
REMARK    3  A    between atoms: C_8  and  C_17
REMARK    4  A    between atoms: C_19  and  N_20
REMARK    5  A    between atoms: C_24  and  O_33
REMARK    6  A    between atoms: C_25  and  C_30
REMARK    7  A    between atoms: C_30  and  O_31
REMARK    8  A    between atoms: O_33  and  C_34
REMARK                            x       y       z     vdW  Elec       q    Type
REMARK                         _______ _______ _______ _____ _____    ______ ____
ROOT
ATOM      1  C   UNL     1      33.734  -6.697 -24.011  0.00  0.00    -0.002 C 
ATOM      2  C   UNL     1      32.410  -6.283 -24.066  0.00  0.00    -0.003 C 
ATOM      3  C   UNL     1      34.640  -6.324 -24.996  0.00  0.00    -0.003 C 
ATOM      4  C   UNL     1      32.885  -5.103 -26.119  0.00  0.00    +0.001 C 
ATOM      5  C   UNL     1      31.983  -5.482 -25.125  0.00  0.00    -0.000 C 
ATOM      6  C   UNL     1      34.213  -5.524 -26.055  0.00  0.00    -0.000 C 
ENDROOT
BRANCH   4   7
ATOM      7  C   UNL     1      32.441  -4.271 -27.218  0.00  0.00    +0.009 C 
ATOM      8  C   UNL     1      31.754  -3.073 -27.004  0.00  0.00    +0.065 C 
ATOM      9  C   UNL     1      32.713  -4.688 -28.522  0.00  0.00    +0.001 C 
ATOM     10  C   UNL     1      31.343  -2.298 -28.088  0.00  0.00    +0.010 C 
ATOM     11  C   UNL     1      32.302  -3.914 -29.606  0.00  0.00    +0.000 C 
ATOM     12  C   UNL     1      31.616  -2.718 -29.389  0.00  0.00    +0.001 C 
BRANCH   8  17
ATOM     13  N   UNL     1      32.345  -2.003 -24.892  0.00  0.00    -0.110 NA
ATOM     14  N   UNL     1      30.218  -2.745 -25.123  0.00  0.00    -0.087 NA
ATOM     15  N   UNL     1      31.571  -1.786 -23.819  0.00  0.00    -0.140 N 
ATOM     16  N   UNL     1      30.303  -2.210 -23.911  0.00  0.00    -0.022 NA
ATOM     17  C   UNL     1      31.452  -2.604 -25.676  0.00  0.00    +0.073 C 
ATOM     18  H   UNL     1      31.915  -1.342 -23.010  0.00  0.00    +0.197 HD
ENDBRANCH   8  17
ENDBRANCH   4   7
BRANCH   1  19
ATOM     19  C   UNL     1      34.195  -7.560 -22.869  0.00  0.00    +0.128 C 
BRANCH  19  20
ATOM     20  N   UNL     1      33.553  -8.856 -22.895  0.00  0.00    -0.226 N 
ATOM     21  N   UNL     1      33.041 -10.897 -23.610  0.00  0.00    -0.357 NA
ATOM     22  C   UNL     1      32.634  -9.338 -21.997  0.00  0.00    +0.089 C 
ATOM     23  C   UNL     1      32.331 -10.613 -22.466  0.00  0.00    +0.132 C 
ATOM     24  C   UNL     1      33.762  -9.823 -23.838  0.00  0.00    +0.347 C 
ATOM     25  C   UNL     1      32.061  -8.785 -20.852  0.00  0.00    +0.091 C 
ATOM     26  C   UNL     1      31.402 -11.398 -21.761  0.00  0.00    +0.086 C 
ATOM     27  C   UNL     1      31.139  -9.580 -20.163  0.00  0.00    +0.004 C 
ATOM     28  C   UNL     1      30.814 -10.863 -20.608  0.00  0.00    -0.018 C 
BRANCH  25  30
ATOM     29  O   UNL     1      31.790  -6.414 -20.684  0.00  0.00    -0.245 OA
ATOM     30  C   UNL     1      32.382  -7.454 -20.371  0.00  0.00    +0.339 C 
BRANCH  30  31
ATOM     31  O   UNL     1      33.436  -7.449 -19.508  0.00  0.00    -0.477 OA
ATOM     32  H   UNL     1      33.987  -6.693 -19.445  0.00  0.00    +0.295 HD
ENDBRANCH  30  31
ENDBRANCH  25  30
BRANCH  24  33
ATOM     33  O   UNL     1      34.598  -9.675 -24.853  0.00  0.00    -0.441 OA
BRANCH  33  34
ATOM     34  C   UNL     1      34.913 -10.807 -25.672  0.00  0.00    +0.210 C 
ATOM     35  C   UNL     1      35.948 -10.400 -26.699  0.00  0.00    +0.051 C 
ENDBRANCH  33  34
ENDBRANCH  24  33
ENDBRANCH  19  20
ENDBRANCH   1  19
TORSDOF 8
ENDMDL
MODEL 2
REMARK VINA RESULT:      -9.6      2.654      7.560
REMARK  Name = 2541
REMARK  8 active torsions:
REMARK  status: ('A' for Active; 'I' for Inactive)
REMARK    1  A    between atoms: C_1  and  C_19
REMARK    2  A    between atoms: C_4  and  C_7
REMARK    3  A    between atoms: C_8  and  C_17
REMARK    4  A    between atoms: C_19  and  N_20
REMARK    5  A    between atoms: C_24  and  O_33
REMARK    6  A    between atoms: C_25  and  C_30
REMARK    7  A    between atoms: C_30  and  O_31
REMARK    8  A    between atoms: O_33  and  C_34
REMARK                            x       y       z     vdW  Elec       q    Type
REMARK                         _______ _______ _______ _____ _____    ______ ____
ROOT
ATOM      1  C   UNL     1      34.192  -9.017 -23.603  0.00  0.00    -0.002 C 
ATOM      2  C   UNL     1      35.122  -9.540 -24.491  0.00  0.00    -0.003 C 
ATOM      3  C   UNL     1      33.030  -9.714 -23.294  0.00  0.00    -0.003 C 
ATOM      4  C   UNL     1      33.721 -11.487 -24.780  0.00  0.00    +0.001 C 
ATOM      5  C   UNL     1      34.885 -10.781 -25.084  0.00  0.00    -0.000 C 
ATOM      6  C   UNL     1      32.794 -10.954 -23.886  0.00  0.00    -0.000 C 
ENDROOT
BRANCH   4   7
ATOM      7  C   UNL     1      33.477 -12.775 -25.394  0.00  0.00    +0.009 C 
ATOM      8  C   UNL     1      33.334 -13.938 -24.633  0.00  0.00    +0.065 C 
ATOM      9  C   UNL     1      33.385 -12.844 -26.786  0.00  0.00    +0.001 C 
ATOM     10  C   UNL     1      33.100 -15.162 -25.261  0.00  0.00    +0.010 C 
ATOM     11  C   UNL     1      33.150 -14.066 -27.414  0.00  0.00    +0.000 C 
ATOM     12  C   UNL     1      33.008 -15.226 -26.651  0.00  0.00    +0.001 C 
BRANCH   8  17
ATOM     13  N   UNL     1      34.559 -14.106 -22.530  0.00  0.00    -0.110 NA
ATOM     14  N   UNL     1      32.337 -13.690 -22.409  0.00  0.00    -0.087 NA
ATOM     15  N   UNL     1      34.094 -13.986 -21.278  0.00  0.00    -0.140 N 
ATOM     16  N   UNL     1      32.782 -13.738 -21.159  0.00  0.00    -0.022 NA
ATOM     17  C   UNL     1      33.423 -13.914 -23.196  0.00  0.00    +0.073 C 
ATOM     18  H   UNL     1      34.681 -14.074 -20.493  0.00  0.00    +0.197 HD
ENDBRANCH   8  17
ENDBRANCH   4   7
BRANCH   1  19
ATOM     19  C   UNL     1      34.446  -7.680 -22.963  0.00  0.00    +0.128 C 
BRANCH  19  20
ATOM     20  N   UNL     1      33.439  -6.714 -23.344  0.00  0.00    -0.226 N 
ATOM     21  N   UNL     1      32.363  -5.236 -24.607  0.00  0.00    -0.357 NA
ATOM     22  C   UNL     1      32.376  -6.291 -22.587  0.00  0.00    +0.089 C 
ATOM     23  C   UNL     1      31.720  -5.370 -23.398  0.00  0.00    +0.132 C 
ATOM     24  C   UNL     1      33.388  -6.056 -24.541  0.00  0.00    +0.347 C 
ATOM     25  C   UNL     1      31.946  -6.625 -21.303  0.00  0.00    +0.091 C 
ATOM     26  C   UNL     1      30.563  -4.734 -22.915  0.00  0.00    +0.086 C 
ATOM     27  C   UNL     1      30.793  -5.983 -20.838  0.00  0.00    +0.004 C 
ATOM     28  C   UNL     1      30.113  -5.054 -21.629  0.00  0.00    -0.018 C 
BRANCH  25  30
ATOM     29  O   UNL     1      32.453  -8.809 -20.467  0.00  0.00    -0.245 OA
ATOM     30  C   UNL     1      32.637  -7.585 -20.463  0.00  0.00    +0.339 C 
BRANCH  30  31
ATOM     31  O   UNL     1      33.545  -6.998 -19.634  0.00  0.00    -0.477 OA
ATOM     32  H   UNL     1      33.253  -6.511 -18.889  0.00  0.00    +0.295 HD
ENDBRANCH  30  31
ENDBRANCH  25  30
BRANCH  24  33
ATOM     33  O   UNL     1      34.275  -6.237 -25.506  0.00  0.00    -0.441 OA
BRANCH  33  34
ATOM     34  C   UNL     1      34.224  -5.405 -26.670  0.00  0.00    +0.210 C 
ATOM     35  C   UNL     1      35.636  -5.034 -27.072  0.00  0.00    +0.051 C 
ENDBRANCH  33  34
ENDBRANCH  24  33
ENDBRANCH  19  20
ENDBRANCH   1  19
TORSDOF 8
ENDMDL
MODEL 3
REMARK VINA RESULT:      -8.6      1.124      3.390
REMARK  Name = 2541
REMARK  8 active torsions:
REMARK  status: ('A' for Active; 'I' for Inactive)
REMARK    1  A    between atoms: C_1  and  C_19
REMARK    2  A    between atoms: C_4  and  C_7
REMARK    3  A    between atoms: C_8  and  C_17
REMARK    4  A    between atoms: C_19  and  N_20
REMARK    5  A    between atoms: C_24  and  O_33
REMARK    6  A    between atoms: C_25  and  C_30
REMARK    7  A    between atoms: C_30  and  O_31
REMARK    8  A    between atoms: O_33  and  C_34
REMARK                            x       y       z     vdW  Elec       q    Type
REMARK                         _______ _______ _______ _____ _____    ______ ____
ROOT
ATOM      1  C   UNL     1      33.956  -6.681 -24.593  0.00  0.00    -0.002 C 
ATOM      2  C   UNL     1      34.779  -6.119 -25.559  0.00  0.00    -0.003 C 
ATOM      3  C   UNL     1      32.602  -6.374 -24.542  0.00  0.00    -0.003 C 
ATOM      4  C   UNL     1      32.882  -4.917 -26.448  0.00  0.00    +0.001 C 
ATOM      5  C   UNL     1      34.240  -5.232 -26.491  0.00  0.00    -0.000 C 
ATOM      6  C   UNL     1      32.063  -5.487 -25.474  0.00  0.00    -0.000 C 
ENDROOT
BRANCH   4   7
ATOM      7  C   UNL     1      32.323  -3.997 -27.416  0.00  0.00    +0.009 C 
ATOM      8  C   UNL     1      31.626  -2.851 -27.025  0.00  0.00    +0.065 C 
ATOM      9  C   UNL     1      32.491  -4.275 -28.774  0.00  0.00    +0.001 C 
ATOM     10  C   UNL     1      31.101  -1.988 -27.988  0.00  0.00    +0.010 C 
ATOM     11  C   UNL     1      31.967  -3.413 -29.736  0.00  0.00    +0.000 C 
ATOM     12  C   UNL     1      31.271  -2.269 -29.342  0.00  0.00    +0.001 C 
BRANCH   8  17
ATOM     13  N   UNL     1      32.365  -1.961 -24.877  0.00  0.00    -0.110 NA
ATOM     14  N   UNL     1      30.256  -2.776 -24.995  0.00  0.00    -0.087 NA
ATOM     15  N   UNL     1      31.685  -1.884 -23.724  0.00  0.00    -0.140 N 
ATOM     16  N   UNL     1      30.429  -2.355 -23.748  0.00  0.00    -0.022 NA
ATOM     17  C   UNL     1      31.428  -2.526 -25.636  0.00  0.00    +0.073 C 
ATOM     18  H   UNL     1      32.083  -1.504 -22.908  0.00  0.00    +0.197 HD
ENDBRANCH   8  17
ENDBRANCH   4   7
BRANCH   1  19
ATOM     19  C   UNL     1      34.537  -7.639 -23.588  0.00  0.00    +0.128 C 
BRANCH  19  20
ATOM     20  N   UNL     1      33.499  -8.384 -22.910  0.00  0.00    -0.226 N 
ATOM     21  N   UNL     1      31.809  -8.785 -21.524  0.00  0.00    -0.357 NA
ATOM     22  C   UNL     1      33.189  -9.709 -23.085  0.00  0.00    +0.089 C 
ATOM     23  C   UNL     1      32.131  -9.934 -22.208  0.00  0.00    +0.132 C 
ATOM     24  C   UNL     1      32.647  -7.876 -21.969  0.00  0.00    +0.347 C 
ATOM     25  C   UNL     1      33.726 -10.698 -23.908  0.00  0.00    +0.091 C 
ATOM     26  C   UNL     1      31.563 -11.218 -22.136  0.00  0.00    +0.086 C 
ATOM     27  C   UNL     1      33.149 -11.970 -23.823  0.00  0.00    +0.004 C 
ATOM     28  C   UNL     1      32.086 -12.226 -22.953  0.00  0.00    -0.018 C 
BRANCH  25  30
ATOM     29  O   UNL     1      34.814 -10.653 -26.038  0.00  0.00    -0.245 OA
ATOM     30  C   UNL     1      34.830 -10.456 -24.817  0.00  0.00    +0.339 C 
BRANCH  30  31
ATOM     31  O   UNL     1      35.934  -9.971 -24.183  0.00  0.00    -0.477 OA
ATOM     32  H   UNL     1      35.905  -9.788 -23.264  0.00  0.00    +0.295 HD
ENDBRANCH  30  31
ENDBRANCH  25  30
BRANCH  24  33
ATOM     33  O   UNL     1      32.680  -6.616 -21.567  0.00  0.00    -0.441 OA
BRANCH  33  34
ATOM     34  C   UNL     1      31.567  -6.082 -20.843  0.00  0.00    +0.210 C 
ATOM     35  C   UNL     1      30.635  -5.388 -21.813  0.00  0.00    +0.051 C 
ENDBRANCH  33  34
ENDBRANCH  24  33
ENDBRANCH  19  20
ENDBRANCH   1  19
TORSDOF 8
ENDMDL
MODEL 4
REMARK VINA RESULT:      -8.5      2.777      7.991
REMARK  Name = 2541
REMARK  8 active torsions:
REMARK  status: ('A' for Active; 'I' for Inactive)
REMARK    1  A    between atoms: C_1  and  C_19
REMARK    2  A    between atoms: C_4  and  C_7
REMARK    3  A    between atoms: C_8  and  C_17
REMARK    4  A    between atoms: C_19  and  N_20
REMARK    5  A    between atoms: C_24  and  O_33
REMARK    6  A    between atoms: C_25  and  C_30
REMARK    7  A    between atoms: C_30  and  O_31
REMARK    8  A    between atoms: O_33  and  C_34
REMARK                            x       y       z     vdW  Elec       q    Type
REMARK                         _______ _______ _______ _____ _____    ______ ____
ROOT
ATOM      1  C   UNL     1      34.242  -9.034 -23.673  0.00  0.00    -0.002 C 
ATOM      2  C   UNL     1      33.056  -9.693 -23.378  0.00  0.00    -0.003 C 
ATOM      3  C   UNL     1      35.177  -9.597 -24.531  0.00  0.00    -0.003 C 
ATOM      4  C   UNL     1      33.734 -11.513 -24.814  0.00  0.00    +0.001 C 
ATOM      5  C   UNL     1      32.801 -10.939 -23.951  0.00  0.00    -0.000 C 
ATOM      6  C   UNL     1      34.922 -10.843 -25.104  0.00  0.00    -0.000 C 
ENDROOT
BRANCH   4   7
ATOM      7  C   UNL     1      33.469 -12.806 -25.409  0.00  0.00    +0.009 C 
ATOM      8  C   UNL     1      33.292 -13.952 -24.630  0.00  0.00    +0.065 C 
ATOM      9  C   UNL     1      33.391 -12.896 -26.800  0.00  0.00    +0.001 C 
ATOM     10  C   UNL     1      33.037 -15.181 -25.241  0.00  0.00    +0.010 C 
ATOM     11  C   UNL     1      33.136 -14.124 -27.410  0.00  0.00    +0.000 C 
ATOM     12  C   UNL     1      32.960 -15.267 -26.630  0.00  0.00    +0.001 C 
BRANCH   8  17
ATOM     13  N   UNL     1      34.486 -14.121 -22.510  0.00  0.00    -0.110 NA
ATOM     14  N   UNL     1      32.276 -13.635 -22.423  0.00  0.00    -0.087 NA
ATOM     15  N   UNL     1      34.010 -13.965 -21.267  0.00  0.00    -0.140 N 
ATOM     16  N   UNL     1      32.705 -13.675 -21.167  0.00  0.00    -0.022 NA
ATOM     17  C   UNL     1      33.364 -13.906 -23.193  0.00  0.00    +0.073 C 
ATOM     18  H   UNL     1      34.585 -14.057 -20.473  0.00  0.00    +0.197 HD
ENDBRANCH   8  17
ENDBRANCH   4   7
BRANCH   1  19
ATOM     19  C   UNL     1      34.517  -7.690 -23.056  0.00  0.00    +0.128 C 
BRANCH  19  20
ATOM     20  N   UNL     1      33.290  -7.020 -22.683  0.00  0.00    -0.226 N 
ATOM     21  N   UNL     1      31.525  -6.472 -21.449  0.00  0.00    -0.357 NA
ATOM     22  C   UNL     1      32.602  -6.090 -23.421  0.00  0.00    +0.089 C 
ATOM     23  C   UNL     1      31.506  -5.764 -22.629  0.00  0.00    +0.132 C 
ATOM     24  C   UNL     1      32.607  -7.214 -21.515  0.00  0.00    +0.347 C 
ATOM     25  C   UNL     1      32.839  -5.525 -24.674  0.00  0.00    +0.091 C 
ATOM     26  C   UNL     1      30.578  -4.818 -23.100  0.00  0.00    +0.086 C 
ATOM     27  C   UNL     1      31.906  -4.586 -25.127  0.00  0.00    +0.004 C 
ATOM     28  C   UNL     1      30.795  -4.238 -24.355  0.00  0.00    -0.018 C 
BRANCH  25  30
ATOM     29  O   UNL     1      35.061  -6.314 -25.078  0.00  0.00    -0.245 OA
ATOM     30  C   UNL     1      33.984  -5.873 -25.495  0.00  0.00    +0.339 C 
BRANCH  30  31
ATOM     31  O   UNL     1      33.759  -5.664 -26.823  0.00  0.00    -0.477 OA
ATOM     32  H   UNL     1      32.986  -5.214 -27.103  0.00  0.00    +0.295 HD
ENDBRANCH  30  31
ENDBRANCH  25  30
BRANCH  24  33
ATOM     33  O   UNL     1      33.007  -8.054 -20.573  0.00  0.00    -0.441 OA
BRANCH  33  34
ATOM     34  C   UNL     1      32.050  -8.566 -19.639  0.00  0.00    +0.210 C 
ATOM     35  C   UNL     1      31.727 -10.000 -20.000  0.00  0.00    +0.051 C 
ENDBRANCH  33  34
ENDBRANCH  24  33
ENDBRANCH  19  20
ENDBRANCH   1  19
TORSDOF 8
ENDMDL
MODEL 5
REMARK VINA RESULT:      -7.6      2.088      2.942
REMARK  Name = 2541
REMARK  8 active torsions:
REMARK  status: ('A' for Active; 'I' for Inactive)
REMARK    1  A    between atoms: C_1  and  C_19
REMARK    2  A    between atoms: C_4  and  C_7
REMARK    3  A    between atoms: C_8  and  C_17
REMARK    4  A    between atoms: C_19  and  N_20
REMARK    5  A    between atoms: C_24  and  O_33
REMARK    6  A    between atoms: C_25  and  C_30
REMARK    7  A    between atoms: C_30  and  O_31
REMARK    8  A    between atoms: O_33  and  C_34
REMARK                            x       y       z     vdW  Elec       q    Type
REMARK                         _______ _______ _______ _____ _____    ______ ____
ROOT
ATOM      1  C   UNL     1      32.503  -8.432 -23.068  0.00  0.00    -0.002 C 
ATOM      2  C   UNL     1      33.567  -7.543 -23.008  0.00  0.00    -0.003 C 
ATOM      3  C   UNL     1      31.450  -8.226 -23.951  0.00  0.00    -0.003 C 
ATOM      4  C   UNL     1      32.526  -6.211 -24.733  0.00  0.00    +0.001 C 
ATOM      5  C   UNL     1      33.579  -6.427 -23.845  0.00  0.00    -0.000 C 
ATOM      6  C   UNL     1      31.462  -7.110 -24.786  0.00  0.00    -0.000 C 
ENDROOT
BRANCH   4   7
ATOM      7  C   UNL     1      32.539  -5.053 -25.602  0.00  0.00    +0.009 C 
ATOM      8  C   UNL     1      31.939  -3.847 -25.230  0.00  0.00    +0.065 C 
ATOM      9  C   UNL     1      33.172  -5.157 -26.842  0.00  0.00    +0.001 C 
ATOM     10  C   UNL     1      31.972  -2.753 -26.095  0.00  0.00    +0.010 C 
ATOM     11  C   UNL     1      33.206  -4.063 -27.706  0.00  0.00    +0.000 C 
ATOM     12  C   UNL     1      32.605  -2.861 -27.332  0.00  0.00    +0.001 C 
BRANCH   8  17
ATOM     13  N   UNL     1      31.246  -2.550 -23.283  0.00  0.00    -0.110 NA
ATOM     14  N   UNL     1      30.623  -4.725 -23.359  0.00  0.00    -0.087 NA
ATOM     15  N   UNL     1      30.531  -2.950 -22.222  0.00  0.00    -0.140 N 
ATOM     16  N   UNL     1      30.140  -4.233 -22.225  0.00  0.00    -0.022 NA
ATOM     17  C   UNL     1      31.275  -3.695 -23.961  0.00  0.00    +0.073 C 
ATOM     18  H   UNL     1      30.307  -2.339 -21.484  0.00  0.00    +0.197 HD
ENDBRANCH   8  17
ENDBRANCH   4   7
BRANCH   1  19
ATOM     19  C   UNL     1      32.490  -9.637 -22.167  0.00  0.00    +0.128 C 
BRANCH  19  20
ATOM     20  N   UNL     1      32.969 -10.815 -22.856  0.00  0.00    -0.226 N 
ATOM     21  N   UNL     1      34.013 -12.028 -24.398  0.00  0.00    -0.357 NA
ATOM     22  C   UNL     1      32.753 -12.123 -22.501  0.00  0.00    +0.089 C 
ATOM     23  C   UNL     1      33.415 -12.859 -23.479  0.00  0.00    +0.132 C 
ATOM     24  C   UNL     1      33.726 -10.811 -23.995  0.00  0.00    +0.347 C 
ATOM     25  C   UNL     1      32.057 -12.704 -21.442  0.00  0.00    +0.091 C 
ATOM     26  C   UNL     1      33.392 -14.263 -23.411  0.00  0.00    +0.086 C 
ATOM     27  C   UNL     1      32.045 -14.103 -21.389  0.00  0.00    +0.004 C 
ATOM     28  C   UNL     1      32.699 -14.869 -22.356  0.00  0.00    -0.018 C 
BRANCH  25  30
ATOM     29  O   UNL     1      31.808 -11.661 -19.303  0.00  0.00    -0.245 OA
ATOM     30  C   UNL     1      31.368 -11.929 -20.428  0.00  0.00    +0.339 C 
BRANCH  30  31
ATOM     31  O   UNL     1      30.141 -11.501 -20.839  0.00  0.00    -0.477 OA
ATOM     32  H   UNL     1      29.872 -10.619 -20.672  0.00  0.00    +0.295 HD
ENDBRANCH  30  31
ENDBRANCH  25  30
BRANCH  24  33
ATOM     33  O   UNL     1      34.114  -9.702 -24.603  0.00  0.00    -0.441 OA
BRANCH  33  34
ATOM     34  C   UNL     1      35.472  -9.581 -25.043  0.00  0.00    +0.210 C 
ATOM     35  C   UNL     1      35.627 -10.301 -26.365  0.00  0.00    +0.051 C 
ENDBRANCH  33  34
ENDBRANCH  24  33
ENDBRANCH  19  20
ENDBRANCH   1  19
TORSDOF 8
ENDMDL
MODEL 6
REMARK VINA RESULT:      -7.5      4.892      8.237
REMARK  Name = 2541
REMARK  8 active torsions:
REMARK  status: ('A' for Active; 'I' for Inactive)
REMARK    1  A    between atoms: C_1  and  C_19
REMARK    2  A    between atoms: C_4  and  C_7
REMARK    3  A    between atoms: C_8  and  C_17
REMARK    4  A    between atoms: C_19  and  N_20
REMARK    5  A    between atoms: C_24  and  O_33
REMARK    6  A    between atoms: C_25  and  C_30
REMARK    7  A    between atoms: C_30  and  O_31
REMARK    8  A    between atoms: O_33  and  C_34
REMARK                            x       y       z     vdW  Elec       q    Type
REMARK                         _______ _______ _______ _____ _____    ______ ____
ROOT
ATOM      1  C   UNL     1      33.054 -13.284 -23.570  0.00  0.00    -0.002 C 
ATOM      2  C   UNL     1      34.108 -12.437 -23.889  0.00  0.00    -0.003 C 
ATOM      3  C   UNL     1      31.882 -12.787 -23.015  0.00  0.00    -0.003 C 
ATOM      4  C   UNL     1      32.815 -10.561 -23.088  0.00  0.00    +0.001 C 
ATOM      5  C   UNL     1      33.988 -11.069 -23.646  0.00  0.00    -0.000 C 
ATOM      6  C   UNL     1      31.762 -11.419 -22.772  0.00  0.00    -0.000 C 
ENDROOT
BRANCH   4   7
ATOM      7  C   UNL     1      32.690  -9.140 -22.837  0.00  0.00    +0.009 C 
ATOM      8  C   UNL     1      32.243  -8.646 -21.609  0.00  0.00    +0.065 C 
ATOM      9  C   UNL     1      33.029  -8.251 -23.858  0.00  0.00    +0.001 C 
ATOM     10  C   UNL     1      32.136  -7.270 -21.405  0.00  0.00    +0.010 C 
ATOM     11  C   UNL     1      32.922  -6.875 -23.654  0.00  0.00    +0.000 C 
ATOM     12  C   UNL     1      32.475  -6.385 -22.427  0.00  0.00    +0.001 C 
BRANCH   8  17
ATOM     13  N   UNL     1      30.837 -10.350 -20.573  0.00  0.00    -0.110 NA
ATOM     14  N   UNL     1      32.594  -9.580 -19.371  0.00  0.00    -0.087 NA
ATOM     15  N   UNL     1      30.957 -10.911 -19.361  0.00  0.00    -0.140 N 
ATOM     16  N   UNL     1      31.985 -10.485 -18.614  0.00  0.00    -0.022 NA
ATOM     17  C   UNL     1      31.882  -9.527 -20.528  0.00  0.00    +0.073 C 
ATOM     18  H   UNL     1      30.327 -11.595 -19.039  0.00  0.00    +0.197 HD
ENDBRANCH   8  17
ENDBRANCH   4   7
BRANCH   1  19
ATOM     19  C   UNL     1      33.183 -14.760 -23.833  0.00  0.00    +0.128 C 
BRANCH  19  20
ATOM     20  N   UNL     1      33.926 -15.419 -22.782  0.00  0.00    -0.226 N 
ATOM     21  N   UNL     1      34.780 -15.770 -20.760  0.00  0.00    -0.357 NA
ATOM     22  C   UNL     1      34.634 -16.590 -22.882  0.00  0.00    +0.089 C 
ATOM     23  C   UNL     1      35.157 -16.787 -21.608  0.00  0.00    +0.132 C 
ATOM     24  C   UNL     1      34.044 -14.969 -21.496  0.00  0.00    +0.347 C 
ATOM     25  C   UNL     1      34.854 -17.465 -23.946  0.00  0.00    +0.091 C 
ATOM     26  C   UNL     1      35.950 -17.921 -21.361  0.00  0.00    +0.086 C 
ATOM     27  C   UNL     1      35.645 -18.588 -23.683  0.00  0.00    +0.004 C 
ATOM     28  C   UNL     1      36.184 -18.814 -22.414  0.00  0.00    -0.018 C 
BRANCH  25  30
ATOM     29  O   UNL     1      33.312 -17.818 -25.741  0.00  0.00    -0.245 OA
ATOM     30  C   UNL     1      34.306 -17.251 -25.272  0.00  0.00    +0.339 C 
BRANCH  30  31
ATOM     31  O   UNL     1      35.012 -16.330 -25.988  0.00  0.00    -0.477 OA
ATOM     32  H   UNL     1      34.644 -15.485 -26.156  0.00  0.00    +0.295 HD
ENDBRANCH  30  31
ENDBRANCH  25  30
BRANCH  24  33
ATOM     33  O   UNL     1      33.475 -13.855 -21.064  0.00  0.00    -0.441 OA
BRANCH  33  34
ATOM     34  C   UNL     1      32.470 -13.931 -20.046  0.00  0.00    +0.210 C 
ATOM     35  C   UNL     1      31.871 -15.321 -20.047  0.00  0.00    +0.051 C 
ENDBRANCH  33  34
ENDBRANCH  24  33
ENDBRANCH  19  20
ENDBRANCH   1  19
TORSDOF 8
ENDMDL
MODEL 7
REMARK VINA RESULT:      -7.4      2.286      8.336
REMARK  Name = 2541
REMARK  8 active torsions:
REMARK  status: ('A' for Active; 'I' for Inactive)
REMARK    1  A    between atoms: C_1  and  C_19
REMARK    2  A    between atoms: C_4  and  C_7
REMARK    3  A    between atoms: C_8  and  C_17
REMARK    4  A    between atoms: C_19  and  N_20
REMARK    5  A    between atoms: C_24  and  O_33
REMARK    6  A    between atoms: C_25  and  C_30
REMARK    7  A    between atoms: C_30  and  O_31
REMARK    8  A    between atoms: O_33  and  C_34
REMARK                            x       y       z     vdW  Elec       q    Type
REMARK                         _______ _______ _______ _____ _____    ______ ____
ROOT
ATOM      1  C   UNL     1      33.078  -6.499 -24.476  0.00  0.00    -0.002 C 
ATOM      2  C   UNL     1      31.885  -7.168 -24.715  0.00  0.00    -0.003 C 
ATOM      3  C   UNL     1      34.036  -7.030 -23.622  0.00  0.00    -0.003 C 
ATOM      4  C   UNL     1      32.602  -8.933 -23.228  0.00  0.00    +0.001 C 
ATOM      5  C   UNL     1      31.645  -8.392 -24.087  0.00  0.00    -0.000 C 
ATOM      6  C   UNL     1      33.796  -8.253 -22.995  0.00  0.00    -0.000 C 
ENDROOT
BRANCH   4   7
ATOM      7  C   UNL     1      32.353 -10.202 -22.579  0.00  0.00    +0.009 C 
ATOM      8  C   UNL     1      32.798 -11.409 -23.125  0.00  0.00    +0.065 C 
ATOM      9  C   UNL     1      31.647 -10.208 -21.374  0.00  0.00    +0.001 C 
ATOM     10  C   UNL     1      32.539 -12.612 -22.469  0.00  0.00    +0.010 C 
ATOM     11  C   UNL     1      31.388 -11.411 -20.718  0.00  0.00    +0.000 C 
ATOM     12  C   UNL     1      31.834 -12.613 -21.267  0.00  0.00    +0.001 C 
BRANCH   8  17
ATOM     13  N   UNL     1      33.165 -12.197 -25.405  0.00  0.00    -0.110 NA
ATOM     14  N   UNL     1      34.659 -10.719 -24.562  0.00  0.00    -0.087 NA
ATOM     15  N   UNL     1      34.151 -11.874 -26.253  0.00  0.00    -0.140 N 
ATOM     16  N   UNL     1      35.059 -11.000 -25.797  0.00  0.00    -0.022 NA
ATOM     17  C   UNL     1      33.530 -11.450 -24.365  0.00  0.00    +0.073 C 
ATOM     18  H   UNL     1      34.204 -12.256 -27.159  0.00  0.00    +0.197 HD
ENDBRANCH   8  17
ENDBRANCH   4   7
BRANCH   1  19
ATOM     19  C   UNL     1      33.337  -5.180 -25.152  0.00  0.00    +0.128 C 
BRANCH  19  20
ATOM     20  N   UNL     1      32.208  -4.287 -25.015  0.00  0.00    -0.226 N 
ATOM     21  N   UNL     1      30.534  -3.204 -24.033  0.00  0.00    -0.357 NA
ATOM     22  C   UNL     1      31.640  -3.520 -26.001  0.00  0.00    +0.089 C 
ATOM     23  C   UNL     1      30.598  -2.854 -25.362  0.00  0.00    +0.132 C 
ATOM     24  C   UNL     1      31.512  -4.064 -23.859  0.00  0.00    +0.347 C 
ATOM     25  C   UNL     1      31.939  -3.357 -27.353  0.00  0.00    +0.091 C 
ATOM     26  C   UNL     1      29.796  -1.967 -26.102  0.00  0.00    +0.086 C 
ATOM     27  C   UNL     1      31.132  -2.471 -28.075  0.00  0.00    +0.004 C 
ATOM     28  C   UNL     1      30.079  -1.788 -27.462  0.00  0.00    -0.018 C 
BRANCH  25  30
ATOM     29  O   UNL     1      32.922  -5.114 -28.646  0.00  0.00    -0.245 OA
ATOM     30  C   UNL     1      33.026  -4.057 -28.012  0.00  0.00    +0.339 C 
BRANCH  30  31
ATOM     31  O   UNL     1      34.223  -3.421 -27.868  0.00  0.00    -0.477 OA
ATOM     32  H   UNL     1      34.880  -3.502 -28.531  0.00  0.00    +0.295 HD
ENDBRANCH  30  31
ENDBRANCH  25  30
BRANCH  24  33
ATOM     33  O   UNL     1      31.806  -4.654 -22.712  0.00  0.00    -0.441 OA
BRANCH  33  34
ATOM     34  C   UNL     1      30.767  -5.305 -21.972  0.00  0.00    +0.210 C 
ATOM     35  C   UNL     1      31.394  -6.234 -20.955  0.00  0.00    +0.051 C 
ENDBRANCH  33  34
ENDBRANCH  24  33
ENDBRANCH  19  20
ENDBRANCH   1  19
TORSDOF 8
ENDMDL
MODEL 8
REMARK VINA RESULT:      -7.3      4.990     10.527
REMARK  Name = 2541
REMARK  8 active torsions:
REMARK  status: ('A' for Active; 'I' for Inactive)
REMARK    1  A    between atoms: C_1  and  C_19
REMARK    2  A    between atoms: C_4  and  C_7
REMARK    3  A    between atoms: C_8  and  C_17
REMARK    4  A    between atoms: C_19  and  N_20
REMARK    5  A    between atoms: C_24  and  O_33
REMARK    6  A    between atoms: C_25  and  C_30
REMARK    7  A    between atoms: C_30  and  O_31
REMARK    8  A    between atoms: O_33  and  C_34
REMARK                            x       y       z     vdW  Elec       q    Type
REMARK                         _______ _______ _______ _____ _____    ______ ____
ROOT
ATOM      1  C   UNL     1      32.721 -13.743 -21.586  0.00  0.00    -0.002 C 
ATOM      2  C   UNL     1      34.095 -13.659 -21.767  0.00  0.00    -0.003 C 
ATOM      3  C   UNL     1      32.093 -14.975 -21.451  0.00  0.00    -0.003 C 
ATOM      4  C   UNL     1      34.233 -16.069 -21.682  0.00  0.00    +0.001 C 
ATOM      5  C   UNL     1      34.855 -14.828 -21.815  0.00  0.00    -0.000 C 
ATOM      6  C   UNL     1      32.853 -16.143 -21.500  0.00  0.00    -0.000 C 
ENDROOT
BRANCH   4   7
ATOM      7  C   UNL     1      35.023 -17.282 -21.731  0.00  0.00    +0.009 C 
ATOM      8  C   UNL     1      35.250 -17.964 -22.929  0.00  0.00    +0.065 C 
ATOM      9  C   UNL     1      35.565 -17.773 -20.542  0.00  0.00    +0.001 C 
ATOM     10  C   UNL     1      36.016 -19.130 -22.936  0.00  0.00    +0.010 C 
ATOM     11  C   UNL     1      36.331 -18.938 -20.549  0.00  0.00    +0.000 C 
ATOM     12  C   UNL     1      36.556 -19.617 -21.747  0.00  0.00    +0.001 C 
BRANCH   8  17
ATOM     13  N   UNL     1      33.721 -18.108 -24.825  0.00  0.00    -0.110 NA
ATOM     14  N   UNL     1      35.178 -16.375 -24.792  0.00  0.00    -0.087 NA
ATOM     15  N   UNL     1      33.617 -17.287 -25.880  0.00  0.00    -0.140 N 
ATOM     16  N   UNL     1      34.460 -16.245 -25.902  0.00  0.00    -0.022 NA
ATOM     17  C   UNL     1      34.710 -17.494 -24.179  0.00  0.00    +0.073 C 
ATOM     18  H   UNL     1      32.960 -17.441 -26.597  0.00  0.00    +0.197 HD
ENDBRANCH   8  17
ENDBRANCH   4   7
BRANCH   1  19
ATOM     19  C   UNL     1      31.901 -12.483 -21.533  0.00  0.00    +0.128 C 
BRANCH  19  20
ATOM     20  N   UNL     1      32.431 -11.472 -22.421  0.00  0.00    -0.226 N 
ATOM     21  N   UNL     1      33.301 -10.590 -24.266  0.00  0.00    -0.357 NA
ATOM     22  C   UNL     1      32.588 -10.136 -22.149  0.00  0.00    +0.089 C 
ATOM     23  C   UNL     1      33.132  -9.608 -23.316  0.00  0.00    +0.132 C 
ATOM     24  C   UNL     1      32.871 -11.693 -23.697  0.00  0.00    +0.347 C 
ATOM     25  C   UNL     1      32.308  -9.370 -21.018  0.00  0.00    +0.091 C 
ATOM     26  C   UNL     1      33.420  -8.234 -23.376  0.00  0.00    +0.086 C 
ATOM     27  C   UNL     1      32.602  -8.004 -21.095  0.00  0.00    +0.004 C 
ATOM     28  C   UNL     1      33.148  -7.445 -22.252  0.00  0.00    -0.018 C 
BRANCH  25  30
ATOM     29  O   UNL     1      30.625 -10.447 -19.703  0.00  0.00    -0.245 OA
ATOM     30  C   UNL     1      31.743  -9.929 -19.804  0.00  0.00    +0.339 C 
BRANCH  30  31
ATOM     31  O   UNL     1      32.587  -9.830 -18.739  0.00  0.00    -0.477 OA
ATOM     32  H   UNL     1      32.289  -9.445 -17.938  0.00  0.00    +0.295 HD
ENDBRANCH  30  31
ENDBRANCH  25  30
BRANCH  24  33
ATOM     33  O   UNL     1      32.857 -12.885 -24.271  0.00  0.00    -0.441 OA
BRANCH  33  34
ATOM     34  C   UNL     1      33.620 -13.097 -25.464  0.00  0.00    +0.210 C 
ATOM     35  C   UNL     1      32.684 -13.494 -26.585  0.00  0.00    +0.051 C 
ENDBRANCH  33  34
ENDBRANCH  24  33
ENDBRANCH  19  20
ENDBRANCH   1  19
TORSDOF 8
ENDMDL
MODEL 9
REMARK VINA RESULT:      -7.1      5.137      8.197
REMARK  Name = 2541
REMARK  8 active torsions:
REMARK  status: ('A' for Active; 'I' for Inactive)
REMARK    1  A    between atoms: C_1  and  C_19
REMARK    2  A    between atoms: C_4  and  C_7
REMARK    3  A    between atoms: C_8  and  C_17
REMARK    4  A    between atoms: C_19  and  N_20
REMARK    5  A    between atoms: C_24  and  O_33
REMARK    6  A    between atoms: C_25  and  C_30
REMARK    7  A    between atoms: C_30  and  O_31
REMARK    8  A    between atoms: O_33  and  C_34
REMARK                            x       y       z     vdW  Elec       q    Type
REMARK                         _______ _______ _______ _____ _____    ______ ____
ROOT
ATOM      1  C   UNL     1      33.251 -13.868 -22.386  0.00  0.00    -0.002 C 
ATOM      2  C   UNL     1      34.212 -12.983 -22.856  0.00  0.00    -0.003 C 
ATOM      3  C   UNL     1      31.964 -13.436 -22.094  0.00  0.00    -0.003 C 
ATOM      4  C   UNL     1      32.589 -11.197 -22.746  0.00  0.00    +0.001 C 
ATOM      5  C   UNL     1      33.879 -11.640 -23.037  0.00  0.00    -0.000 C 
ATOM      6  C   UNL     1      31.632 -12.094 -22.275  0.00  0.00    -0.000 C 
ENDROOT
BRANCH   4   7
ATOM      7  C   UNL     1      32.244  -9.803 -22.935  0.00  0.00    +0.009 C 
ATOM      8  C   UNL     1      31.869  -8.986 -21.865  0.00  0.00    +0.065 C 
ATOM      9  C   UNL     1      32.292  -9.274 -24.226  0.00  0.00    +0.001 C 
ATOM     10  C   UNL     1      31.544  -7.648 -22.087  0.00  0.00    +0.010 C 
ATOM     11  C   UNL     1      31.967  -7.936 -24.448  0.00  0.00    +0.000 C 
ATOM     12  C   UNL     1      31.592  -7.123 -23.377  0.00  0.00    +0.001 C 
BRANCH   8  17
ATOM     13  N   UNL     1      32.639  -9.106 -19.553  0.00  0.00    -0.110 NA
ATOM     14  N   UNL     1      30.878 -10.406 -20.132  0.00  0.00    -0.087 NA
ATOM     15  N   UNL     1      32.158  -9.852 -18.549  0.00  0.00    -0.140 N 
ATOM     16  N   UNL     1      31.113 -10.638 -18.845  0.00  0.00    -0.022 NA
ATOM     17  C   UNL     1      31.806  -9.491 -20.518  0.00  0.00    +0.073 C 
ATOM     18  H   UNL     1      32.549  -9.825 -17.646  0.00  0.00    +0.197 HD
ENDBRANCH   8  17
ENDBRANCH   4   7
BRANCH   1  19
ATOM     19  C   UNL     1      33.609 -15.317 -22.192  0.00  0.00    +0.128 C 
BRANCH  19  20
ATOM     20  N   UNL     1      33.799 -15.986 -23.459  0.00  0.00    -0.226 N 
ATOM     21  N   UNL     1      33.817 -16.278 -25.662  0.00  0.00    -0.357 NA
ATOM     22  C   UNL     1      34.246 -17.269 -23.655  0.00  0.00    +0.089 C 
ATOM     23  C   UNL     1      34.249 -17.426 -25.038  0.00  0.00    +0.132 C 
ATOM     24  C   UNL     1      33.557 -15.437 -24.688  0.00  0.00    +0.347 C 
ATOM     25  C   UNL     1      34.636 -18.272 -22.768  0.00  0.00    +0.091 C 
ATOM     26  C   UNL     1      34.663 -18.652 -25.587  0.00  0.00    +0.086 C 
ATOM     27  C   UNL     1      35.045 -19.486 -23.331  0.00  0.00    +0.004 C 
ATOM     28  C   UNL     1      35.058 -19.674 -24.715  0.00  0.00    -0.018 C 
BRANCH  25  30
ATOM     29  O   UNL     1      35.531 -17.583 -20.659  0.00  0.00    -0.245 OA
ATOM     30  C   UNL     1      34.628 -18.101 -21.327  0.00  0.00    +0.339 C 
BRANCH  30  31
ATOM     31  O   UNL     1      33.491 -18.579 -20.749  0.00  0.00    -0.477 OA
ATOM     32  H   UNL     1      32.844 -17.983 -20.425  0.00  0.00    +0.295 HD
ENDBRANCH  30  31
ENDBRANCH  25  30
BRANCH  24  33
ATOM     33  O   UNL     1      33.113 -14.201 -24.853  0.00  0.00    -0.441 OA
BRANCH  33  34
ATOM     34  C   UNL     1      32.719 -13.767 -26.160  0.00  0.00    +0.210 C 
ATOM     35  C   UNL     1      33.541 -12.557 -26.546  0.00  0.00    +0.051 C 
ENDBRANCH  33  34
ENDBRANCH  24  33
ENDBRANCH  19  20
ENDBRANCH   1  19
TORSDOF 8
ENDMDL
