MODEL 1
REMARK VINA RESULT:      -7.8      0.000      0.000
REMARK  Name = 60172
REMARK  7 active torsions:
REMARK  status: ('A' for Active; 'I' for Inactive)
REMARK    1  A    between atoms: N_1  and  C_13
REMARK    2  A    between atoms: C_13  and  C_14
REMARK    3  A    between atoms: C_14  and  O_15
REMARK    4  A    between atoms: O_15  and  C_16
REMARK    5  A    between atoms: C_16  and  P_17
REMARK    6  A    between atoms: P_17  and  O_19
REMARK    7  A    between atoms: P_17  and  O_21
REMARK                            x       y       z     vdW  Elec       q    Type
REMARK                         _______ _______ _______ _____ _____    ______ ____
ROOT
ATOM      1  N   UNL     1      34.204 -24.033 -14.683  0.00  0.00    -0.269 N 
ATOM      2  N   UNL     1      32.013 -23.797 -14.486  0.00  0.00    -0.242 NA
ATOM      3  N   UNL     1      34.523 -23.287 -16.969  0.00  0.00    -0.228 NA
ATOM      4  N   UNL     1      32.396 -22.642 -17.979  0.00  0.00    -0.229 NA
ATOM      5  C   UNL     1      33.786 -23.560 -15.882  0.00  0.00    +0.151 C 
ATOM      6  C   UNL     1      32.415 -23.418 -15.742  0.00  0.00    +0.140 C 
ATOM      7  C   UNL     1      33.120 -24.163 -13.874  0.00  0.00    +0.221 C 
ATOM      8  C   UNL     1      31.716 -22.938 -16.846  0.00  0.00    +0.143 C 
ATOM      9  C   UNL     1      33.738 -22.832 -17.970  0.00  0.00    +0.253 C 
ATOM     10  N   UNL     1      30.322 -22.762 -16.791  0.00  0.00    -0.342 N 
ATOM     11  H   UNL     1      29.838 -22.423 -17.579  0.00  0.00    +0.144 HD
ATOM     12  H   UNL     1      29.830 -22.978 -15.967  0.00  0.00    +0.144 HD
ENDROOT
BRANCH   1  13
ATOM     13  C   UNL     1      35.581 -24.352 -14.312  0.00  0.00    +0.126 C 
BRANCH  13  14
ATOM     14  C   UNL     1      36.006 -25.735 -14.784  0.00  0.00    +0.164 C 
BRANCH  14  15
ATOM     15  O   UNL     1      37.275 -25.656 -15.418  0.00  0.00    -0.340 OA
BRANCH  15  16
ATOM     16  C   UNL     1      38.303 -26.197 -14.600  0.00  0.00    +0.258 C 
BRANCH  16  17
ATOM     17  P   UNL     1      39.728 -25.180 -14.924  0.00  0.00    +0.367 P 
ATOM     18  O   UNL     1      40.580 -24.891 -13.724  0.00  0.00    -0.256 OA
BRANCH  17  19
ATOM     19  O   UNL     1      39.111 -23.881 -15.659  0.00  0.00    -0.322 OA
ATOM     20  H   UNL     1      39.795 -23.199 -15.739  0.00  0.00    +0.220 HD
ENDBRANCH  17  19
BRANCH  17  21
ATOM     21  O   UNL     1      40.477 -25.965 -16.122  0.00  0.00    -0.322 OA
ATOM     22  H   UNL     1      40.837 -26.801 -15.785  0.00  0.00    +0.220 HD
ENDBRANCH  17  21
ENDBRANCH  16  17
ENDBRANCH  15  16
ENDBRANCH  14  15
ENDBRANCH  13  14
ENDBRANCH   1  13
TORSDOF 7
ENDMDL
MODEL 2
REMARK VINA RESULT:      -7.7      2.895      3.939
REMARK  Name = 60172
REMARK  7 active torsions:
REMARK  status: ('A' for Active; 'I' for Inactive)
REMARK    1  A    between atoms: N_1  and  C_13
REMARK    2  A    between atoms: C_13  and  C_14
REMARK    3  A    between atoms: C_14  and  O_15
REMARK    4  A    between atoms: O_15  and  C_16
REMARK    5  A    between atoms: C_16  and  P_17
REMARK    6  A    between atoms: P_17  and  O_19
REMARK    7  A    between atoms: P_17  and  O_21
REMARK                            x       y       z     vdW  Elec       q    Type
REMARK                         _______ _______ _______ _____ _____    ______ ____
ROOT
ATOM      1  N   UNL     1      36.396 -22.725 -15.923  0.00  0.00    -0.269 N 
ATOM      2  N   UNL     1      35.906 -22.147 -18.001  0.00  0.00    -0.242 NA
ATOM      3  N   UNL     1      34.225 -23.489 -15.155  0.00  0.00    -0.228 NA
ATOM      4  N   UNL     1      32.557 -23.289 -16.926  0.00  0.00    -0.229 NA
ATOM      5  C   UNL     1      35.074 -22.987 -16.065  0.00  0.00    +0.151 C 
ATOM      6  C   UNL     1      34.784 -22.621 -17.369  0.00  0.00    +0.140 C 
ATOM      7  C   UNL     1      36.861 -22.224 -17.098  0.00  0.00    +0.221 C 
ATOM      8  C   UNL     1      33.469 -22.789 -17.793  0.00  0.00    +0.143 C 
ATOM      9  C   UNL     1      32.986 -23.604 -15.680  0.00  0.00    +0.253 C 
ATOM     10  N   UNL     1      33.088 -22.444 -19.101  0.00  0.00    -0.342 N 
ATOM     11  H   UNL     1      32.154 -22.566 -19.389  0.00  0.00    +0.144 HD
ATOM     12  H   UNL     1      33.752 -22.079 -19.729  0.00  0.00    +0.144 HD
ENDROOT
BRANCH   1  13
ATOM     13  C   UNL     1      37.195 -22.939 -14.719  0.00  0.00    +0.126 C 
BRANCH  13  14
ATOM     14  C   UNL     1      37.600 -24.396 -14.540  0.00  0.00    +0.164 C 
BRANCH  14  15
ATOM     15  O   UNL     1      37.778 -24.677 -13.157  0.00  0.00    -0.340 OA
BRANCH  15  16
ATOM     16  C   UNL     1      36.634 -25.307 -12.601  0.00  0.00    +0.258 C 
BRANCH  16  17
ATOM     17  P   UNL     1      36.007 -24.143 -11.407  0.00  0.00    +0.367 P 
ATOM     18  O   UNL     1      37.019 -23.165 -10.891  0.00  0.00    -0.256 OA
BRANCH  17  19
ATOM     19  O   UNL     1      35.320 -25.081 -10.285  0.00  0.00    -0.322 OA
ATOM     20  H   UNL     1      35.718 -24.896  -9.420  0.00  0.00    +0.220 HD
ENDBRANCH  17  19
BRANCH  17  21
ATOM     21  O   UNL     1      34.741 -23.483 -12.166  0.00  0.00    -0.322 OA
ATOM     22  H   UNL     1      35.055 -22.939 -12.905  0.00  0.00    +0.220 HD
ENDBRANCH  17  21
ENDBRANCH  16  17
ENDBRANCH  15  16
ENDBRANCH  14  15
ENDBRANCH  13  14
ENDBRANCH   1  13
TORSDOF 7
ENDMDL
MODEL 3
REMARK VINA RESULT:      -7.7      1.431      2.261
REMARK  Name = 60172
REMARK  7 active torsions:
REMARK  status: ('A' for Active; 'I' for Inactive)
REMARK    1  A    between atoms: N_1  and  C_13
REMARK    2  A    between atoms: C_13  and  C_14
REMARK    3  A    between atoms: C_14  and  O_15
REMARK    4  A    between atoms: O_15  and  C_16
REMARK    5  A    between atoms: C_16  and  P_17
REMARK    6  A    between atoms: P_17  and  O_19
REMARK    7  A    between atoms: P_17  and  O_21
REMARK                            x       y       z     vdW  Elec       q    Type
REMARK                         _______ _______ _______ _____ _____    ______ ____
ROOT
ATOM      1  N   UNL     1      34.785 -23.317 -15.524  0.00  0.00    -0.269 N 
ATOM      2  N   UNL     1      33.008 -23.324 -16.840  0.00  0.00    -0.242 NA
ATOM      3  N   UNL     1      36.425 -22.315 -17.005  0.00  0.00    -0.228 NA
ATOM      4  N   UNL     1      35.433 -21.789 -19.172  0.00  0.00    -0.229 NA
ATOM      5  C   UNL     1      35.202 -22.770 -16.692  0.00  0.00    +0.151 C 
ATOM      6  C   UNL     1      34.079 -22.782 -17.503  0.00  0.00    +0.140 C 
ATOM      7  C   UNL     1      33.470 -23.637 -15.648  0.00  0.00    +0.221 C 
ATOM      8  C   UNL     1      34.225 -22.265 -18.787  0.00  0.00    +0.143 C 
ATOM      9  C   UNL     1      36.443 -21.842 -18.270  0.00  0.00    +0.253 C 
ATOM     10  N   UNL     1      33.136 -22.237 -19.676  0.00  0.00    -0.342 N 
ATOM     11  H   UNL     1      33.252 -21.870 -20.583  0.00  0.00    +0.144 HD
ATOM     12  H   UNL     1      32.260 -22.584 -19.394  0.00  0.00    +0.144 HD
ENDROOT
BRANCH   1  13
ATOM     13  C   UNL     1      35.601 -23.532 -14.331  0.00  0.00    +0.126 C 
BRANCH  13  14
ATOM     14  C   UNL     1      36.022 -24.985 -14.166  0.00  0.00    +0.164 C 
BRANCH  14  15
ATOM     15  O   UNL     1      36.859 -25.366 -15.250  0.00  0.00    -0.340 OA
BRANCH  15  16
ATOM     16  C   UNL     1      37.896 -26.240 -14.827  0.00  0.00    +0.258 C 
BRANCH  16  17
ATOM     17  P   UNL     1      39.377 -25.253 -14.884  0.00  0.00    +0.367 P 
ATOM     18  O   UNL     1      40.579 -25.954 -15.444  0.00  0.00    -0.256 OA
BRANCH  17  19
ATOM     19  O   UNL     1      39.537 -24.717 -13.368  0.00  0.00    -0.322 OA
ATOM     20  H   UNL     1      39.668 -23.757 -13.376  0.00  0.00    +0.220 HD
ENDBRANCH  17  19
BRANCH  17  21
ATOM     21  O   UNL     1      38.912 -23.936 -15.697  0.00  0.00    -0.322 OA
ATOM     22  H   UNL     1      39.119 -24.047 -16.638  0.00  0.00    +0.220 HD
ENDBRANCH  17  21
ENDBRANCH  16  17
ENDBRANCH  15  16
ENDBRANCH  14  15
ENDBRANCH  13  14
ENDBRANCH   1  13
TORSDOF 7
ENDMDL
MODEL 4
REMARK VINA RESULT:      -7.6      3.150      4.907
REMARK  Name = 60172
REMARK  7 active torsions:
REMARK  status: ('A' for Active; 'I' for Inactive)
REMARK    1  A    between atoms: N_1  and  C_13
REMARK    2  A    between atoms: C_13  and  C_14
REMARK    3  A    between atoms: C_14  and  O_15
REMARK    4  A    between atoms: O_15  and  C_16
REMARK    5  A    between atoms: C_16  and  P_17
REMARK    6  A    between atoms: P_17  and  O_19
REMARK    7  A    between atoms: P_17  and  O_21
REMARK                            x       y       z     vdW  Elec       q    Type
REMARK                         _______ _______ _______ _____ _____    ______ ____
ROOT
ATOM      1  N   UNL     1      34.701 -22.062 -18.568  0.00  0.00    -0.269 N 
ATOM      2  N   UNL     1      36.434 -20.943 -19.366  0.00  0.00    -0.242 NA
ATOM      3  N   UNL     1      32.906 -21.087 -19.878  0.00  0.00    -0.228 NA
ATOM      4  N   UNL     1      33.769 -19.396 -21.412  0.00  0.00    -0.229 NA
ATOM      5  C   UNL     1      34.187 -21.225 -19.502  0.00  0.00    +0.151 C 
ATOM      6  C   UNL     1      35.283 -20.534 -19.991  0.00  0.00    +0.140 C 
ATOM      7  C   UNL     1      36.045 -21.867 -18.513  0.00  0.00    +0.221 C 
ATOM      8  C   UNL     1      35.040 -19.590 -20.984  0.00  0.00    +0.143 C 
ATOM      9  C   UNL     1      32.796 -20.147 -20.840  0.00  0.00    +0.253 C 
ATOM     10  N   UNL     1      36.094 -18.843 -21.538  0.00  0.00    -0.342 N 
ATOM     11  H   UNL     1      35.909 -18.177 -22.239  0.00  0.00    +0.144 HD
ATOM     12  H   UNL     1      37.016 -18.985 -21.225  0.00  0.00    +0.144 HD
ENDROOT
BRANCH   1  13
ATOM     13  C   UNL     1      33.949 -23.015 -17.754  0.00  0.00    +0.126 C 
BRANCH  13  14
ATOM     14  C   UNL     1      34.524 -23.166 -16.353  0.00  0.00    +0.164 C 
BRANCH  14  15
ATOM     15  O   UNL     1      35.055 -24.474 -16.192  0.00  0.00    -0.340 OA
BRANCH  15  16
ATOM     16  C   UNL     1      35.475 -24.707 -14.855  0.00  0.00    +0.258 C 
BRANCH  16  17
ATOM     17  P   UNL     1      36.677 -26.015 -14.975  0.00  0.00    +0.367 P 
ATOM     18  O   UNL     1      36.366 -27.064 -16.000  0.00  0.00    -0.256 OA
BRANCH  17  19
ATOM     19  O   UNL     1      36.808 -26.553 -13.457  0.00  0.00    -0.322 OA
ATOM     20  H   UNL     1      35.923 -26.687 -13.084  0.00  0.00    +0.220 HD
ENDBRANCH  17  19
BRANCH  17  21
ATOM     21  O   UNL     1      38.065 -25.220 -15.208  0.00  0.00    -0.322 OA
ATOM     22  H   UNL     1      38.168 -25.019 -16.151  0.00  0.00    +0.220 HD
ENDBRANCH  17  21
ENDBRANCH  16  17
ENDBRANCH  15  16
ENDBRANCH  14  15
ENDBRANCH  13  14
ENDBRANCH   1  13
TORSDOF 7
ENDMDL
MODEL 5
REMARK VINA RESULT:      -7.6      5.444      7.496
REMARK  Name = 60172
REMARK  7 active torsions:
REMARK  status: ('A' for Active; 'I' for Inactive)
REMARK    1  A    between atoms: N_1  and  C_13
REMARK    2  A    between atoms: C_13  and  C_14
REMARK    3  A    between atoms: C_14  and  O_15
REMARK    4  A    between atoms: O_15  and  C_16
REMARK    5  A    between atoms: C_16  and  P_17
REMARK    6  A    between atoms: P_17  and  O_19
REMARK    7  A    between atoms: P_17  and  O_21
REMARK                            x       y       z     vdW  Elec       q    Type
REMARK                         _______ _______ _______ _____ _____    ______ ____
ROOT
ATOM      1  N   UNL     1      33.283 -23.553 -14.741  0.00  0.00    -0.269 N 
ATOM      2  N   UNL     1      34.942 -23.909 -16.159  0.00  0.00    -0.242 NA
ATOM      3  N   UNL     1      34.327 -24.238 -12.661  0.00  0.00    -0.228 NA
ATOM      4  N   UNL     1      36.623 -24.974 -13.042  0.00  0.00    -0.229 NA
ATOM      5  C   UNL     1      34.304 -24.024 -13.985  0.00  0.00    +0.151 C 
ATOM      6  C   UNL     1      35.333 -24.241 -14.887  0.00  0.00    +0.140 C 
ATOM      7  C   UNL     1      33.698 -23.498 -16.034  0.00  0.00    +0.221 C 
ATOM      8  C   UNL     1      36.528 -24.734 -14.372  0.00  0.00    +0.143 C 
ATOM      9  C   UNL     1      35.532 -24.714 -12.281  0.00  0.00    +0.253 C 
ATOM     10  N   UNL     1      37.625 -24.982 -15.215  0.00  0.00    -0.342 N 
ATOM     11  H   UNL     1      38.465 -25.332 -14.839  0.00  0.00    +0.144 HD
ATOM     12  H   UNL     1      37.553 -24.807 -16.181  0.00  0.00    +0.144 HD
ENDROOT
BRANCH   1  13
ATOM     13  C   UNL     1      31.958 -23.169 -14.259  0.00  0.00    +0.126 C 
BRANCH  13  14
ATOM     14  C   UNL     1      30.955 -24.311 -14.335  0.00  0.00    +0.164 C 
BRANCH  14  15
ATOM     15  O   UNL     1      30.274 -24.269 -15.582  0.00  0.00    -0.340 OA
BRANCH  15  16
ATOM     16  C   UNL     1      28.865 -24.261 -15.407  0.00  0.00    +0.258 C 
BRANCH  16  17
ATOM     17  P   UNL     1      28.279 -22.960 -16.472  0.00  0.00    +0.367 P 
ATOM     18  O   UNL     1      27.411 -21.938 -15.799  0.00  0.00    -0.256 OA
BRANCH  17  19
ATOM     19  O   UNL     1      27.586 -23.752 -17.698  0.00  0.00    -0.322 OA
ATOM     20  H   UNL     1      27.364 -23.126 -18.404  0.00  0.00    +0.220 HD
ENDBRANCH  17  19
BRANCH  17  21
ATOM     21  O   UNL     1      29.638 -22.379 -17.126  0.00  0.00    -0.322 OA
ATOM     22  H   UNL     1      30.402 -22.845 -16.751  0.00  0.00    +0.220 HD
ENDBRANCH  17  21
ENDBRANCH  16  17
ENDBRANCH  15  16
ENDBRANCH  14  15
ENDBRANCH  13  14
ENDBRANCH   1  13
TORSDOF 7
ENDMDL
MODEL 6
REMARK VINA RESULT:      -7.6      2.020      3.062
REMARK  Name = 60172
REMARK  7 active torsions:
REMARK  status: ('A' for Active; 'I' for Inactive)
REMARK    1  A    between atoms: N_1  and  C_13
REMARK    2  A    between atoms: C_13  and  C_14
REMARK    3  A    between atoms: C_14  and  O_15
REMARK    4  A    between atoms: O_15  and  C_16
REMARK    5  A    between atoms: C_16  and  P_17
REMARK    6  A    between atoms: P_17  and  O_19
REMARK    7  A    between atoms: P_17  and  O_21
REMARK                            x       y       z     vdW  Elec       q    Type
REMARK                         _______ _______ _______ _____ _____    ______ ____
ROOT
ATOM      1  N   UNL     1      32.885 -23.834 -14.969  0.00  0.00    -0.269 N 
ATOM      2  N   UNL     1      31.669 -25.295 -13.839  0.00  0.00    -0.242 NA
ATOM      3  N   UNL     1      31.180 -22.838 -16.379  0.00  0.00    -0.228 NA
ATOM      4  N   UNL     1      28.998 -23.841 -15.943  0.00  0.00    -0.229 NA
ATOM      5  C   UNL     1      31.622 -23.684 -15.435  0.00  0.00    +0.151 C 
ATOM      6  C   UNL     1      30.875 -24.604 -14.719  0.00  0.00    +0.140 C 
ATOM      7  C   UNL     1      32.877 -24.804 -14.018  0.00  0.00    +0.221 C 
ATOM      8  C   UNL     1      29.513 -24.666 -15.000  0.00  0.00    +0.143 C 
ATOM      9  C   UNL     1      29.851 -22.991 -16.564  0.00  0.00    +0.253 C 
ATOM     10  N   UNL     1      28.680 -25.570 -14.319  0.00  0.00    -0.342 N 
ATOM     11  H   UNL     1      27.718 -25.605 -14.528  0.00  0.00    +0.144 HD
ATOM     12  H   UNL     1      29.057 -26.168 -13.635  0.00  0.00    +0.144 HD
ENDROOT
BRANCH   1  13
ATOM     13  C   UNL     1      34.062 -23.086 -15.407  0.00  0.00    +0.126 C 
BRANCH  13  14
ATOM     14  C   UNL     1      35.327 -23.508 -14.673  0.00  0.00    +0.164 C 
BRANCH  14  15
ATOM     15  O   UNL     1      36.029 -24.473 -15.446  0.00  0.00    -0.340 OA
BRANCH  15  16
ATOM     16  C   UNL     1      37.308 -24.753 -14.894  0.00  0.00    +0.258 C 
BRANCH  16  17
ATOM     17  P   UNL     1      37.242 -26.472 -14.436  0.00  0.00    +0.367 P 
ATOM     18  O   UNL     1      38.509 -27.237 -14.677  0.00  0.00    -0.256 OA
BRANCH  17  19
ATOM     19  O   UNL     1      35.943 -27.026 -15.220  0.00  0.00    -0.322 OA
ATOM     20  H   UNL     1      35.493 -27.690 -14.674  0.00  0.00    +0.220 HD
ENDBRANCH  17  19
BRANCH  17  21
ATOM     21  O   UNL     1      36.753 -26.424 -12.896  0.00  0.00    -0.322 OA
ATOM     22  H   UNL     1      37.300 -25.792 -12.403  0.00  0.00    +0.220 HD
ENDBRANCH  17  21
ENDBRANCH  16  17
ENDBRANCH  15  16
ENDBRANCH  14  15
ENDBRANCH  13  14
ENDBRANCH   1  13
TORSDOF 7
ENDMDL
MODEL 7
REMARK VINA RESULT:      -7.6      2.432      3.578
REMARK  Name = 60172
REMARK  7 active torsions:
REMARK  status: ('A' for Active; 'I' for Inactive)
REMARK    1  A    between atoms: N_1  and  C_13
REMARK    2  A    between atoms: C_13  and  C_14
REMARK    3  A    between atoms: C_14  and  O_15
REMARK    4  A    between atoms: O_15  and  C_16
REMARK    5  A    between atoms: C_16  and  P_17
REMARK    6  A    between atoms: P_17  and  O_19
REMARK    7  A    between atoms: P_17  and  O_21
REMARK                            x       y       z     vdW  Elec       q    Type
REMARK                         _______ _______ _______ _____ _____    ______ ____
ROOT
ATOM      1  N   UNL     1      33.912 -23.317 -16.175  0.00  0.00    -0.269 N 
ATOM      2  N   UNL     1      32.341 -22.931 -17.683  0.00  0.00    -0.242 NA
ATOM      3  N   UNL     1      32.563 -23.474 -14.164  0.00  0.00    -0.228 NA
ATOM      4  N   UNL     1      30.199 -23.153 -14.676  0.00  0.00    -0.229 NA
ATOM      5  C   UNL     1      32.748 -23.299 -15.481  0.00  0.00    +0.151 C 
ATOM      6  C   UNL     1      31.776 -23.057 -16.439  0.00  0.00    +0.140 C 
ATOM      7  C   UNL     1      33.632 -23.094 -17.486  0.00  0.00    +0.221 C 
ATOM      8  C   UNL     1      30.459 -22.987 -15.995  0.00  0.00    +0.143 C 
ATOM      9  C   UNL     1      31.252 -23.384 -13.855  0.00  0.00    +0.253 C 
ATOM     10  N   UNL     1      29.409 -22.747 -16.899  0.00  0.00    -0.342 N 
ATOM     11  H   UNL     1      28.481 -22.698 -16.572  0.00  0.00    +0.144 HD
ATOM     12  H   UNL     1      29.601 -22.625 -17.856  0.00  0.00    +0.144 HD
ENDROOT
BRANCH   1  13
ATOM     13  C   UNL     1      35.245 -23.538 -15.618  0.00  0.00    +0.126 C 
BRANCH  13  14
ATOM     14  C   UNL     1      35.437 -24.960 -15.112  0.00  0.00    +0.164 C 
BRANCH  14  15
ATOM     15  O   UNL     1      36.499 -24.993 -14.167  0.00  0.00    -0.340 OA
BRANCH  15  16
ATOM     16  C   UNL     1      36.743 -23.708 -13.611  0.00  0.00    +0.258 C 
BRANCH  16  17
ATOM     17  P   UNL     1      36.275 -23.854 -11.900  0.00  0.00    +0.367 P 
ATOM     18  O   UNL     1      37.076 -23.009 -10.954  0.00  0.00    -0.256 OA
BRANCH  17  19
ATOM     19  O   UNL     1      36.334 -25.444 -11.622  0.00  0.00    -0.322 OA
ATOM     20  H   UNL     1      37.253 -25.712 -11.469  0.00  0.00    +0.220 HD
ENDBRANCH  17  19
BRANCH  17  21
ATOM     21  O   UNL     1      34.689 -23.540 -11.923  0.00  0.00    -0.322 OA
ATOM     22  H   UNL     1      34.392 -23.447 -12.842  0.00  0.00    +0.220 HD
ENDBRANCH  17  21
ENDBRANCH  16  17
ENDBRANCH  15  16
ENDBRANCH  14  15
ENDBRANCH  13  14
ENDBRANCH   1  13
TORSDOF 7
ENDMDL
MODEL 8
REMARK VINA RESULT:      -7.6      7.977      9.762
REMARK  Name = 60172
REMARK  7 active torsions:
REMARK  status: ('A' for Active; 'I' for Inactive)
REMARK    1  A    between atoms: N_1  and  C_13
REMARK    2  A    between atoms: C_13  and  C_14
REMARK    3  A    between atoms: C_14  and  O_15
REMARK    4  A    between atoms: O_15  and  C_16
REMARK    5  A    between atoms: C_16  and  P_17
REMARK    6  A    between atoms: P_17  and  O_19
REMARK    7  A    between atoms: P_17  and  O_21
REMARK                            x       y       z     vdW  Elec       q    Type
REMARK                         _______ _______ _______ _____ _____    ______ ____
ROOT
ATOM      1  N   UNL     1      34.699 -19.375 -21.105  0.00  0.00    -0.269 N 
ATOM      2  N   UNL     1      32.852 -20.432 -20.503  0.00  0.00    -0.242 NA
ATOM      3  N   UNL     1      36.343 -20.571 -19.782  0.00  0.00    -0.228 NA
ATOM      4  N   UNL     1      35.280 -22.317 -18.447  0.00  0.00    -0.229 NA
ATOM      5  C   UNL     1      35.099 -20.317 -20.217  0.00  0.00    +0.151 C 
ATOM      6  C   UNL     1      33.933 -20.969 -19.851  0.00  0.00    +0.140 C 
ATOM      7  C   UNL     1      33.351 -19.471 -21.251  0.00  0.00    +0.221 C 
ATOM      8  C   UNL     1      34.054 -22.005 -18.930  0.00  0.00    +0.143 C 
ATOM      9  C   UNL     1      36.333 -21.592 -18.896  0.00  0.00    +0.253 C 
ATOM     10  N   UNL     1      32.922 -22.722 -18.504  0.00  0.00    -0.342 N 
ATOM     11  H   UNL     1      33.020 -23.453 -17.851  0.00  0.00    +0.144 HD
ATOM     12  H   UNL     1      32.032 -22.492 -18.857  0.00  0.00    +0.144 HD
ENDROOT
BRANCH   1  13
ATOM     13  C   UNL     1      35.559 -18.414 -21.793  0.00  0.00    +0.126 C 
BRANCH  13  14
ATOM     14  C   UNL     1      35.332 -18.401 -23.297  0.00  0.00    +0.164 C 
BRANCH  14  15
ATOM     15  O   UNL     1      34.673 -17.197 -23.671  0.00  0.00    -0.340 OA
BRANCH  15  16
ATOM     16  C   UNL     1      34.893 -16.165 -22.721  0.00  0.00    +0.258 C 
BRANCH  16  17
ATOM     17  P   UNL     1      33.645 -14.945 -23.075  0.00  0.00    +0.367 P 
ATOM     18  O   UNL     1      32.449 -14.986 -22.171  0.00  0.00    -0.256 OA
BRANCH  17  19
ATOM     19  O   UNL     1      33.331 -15.166 -24.645  0.00  0.00    -0.322 OA
ATOM     20  H   UNL     1      32.504 -15.663 -24.742  0.00  0.00    +0.220 HD
ENDBRANCH  17  19
BRANCH  17  21
ATOM     21  O   UNL     1      34.472 -13.556 -23.054  0.00  0.00    -0.322 OA
ATOM     22  H   UNL     1      34.007 -12.896 -23.593  0.00  0.00    +0.220 HD
ENDBRANCH  17  21
ENDBRANCH  16  17
ENDBRANCH  15  16
ENDBRANCH  14  15
ENDBRANCH  13  14
ENDBRANCH   1  13
TORSDOF 7
ENDMDL
MODEL 9
REMARK VINA RESULT:      -7.5      7.509      9.284
REMARK  Name = 60172
REMARK  7 active torsions:
REMARK  status: ('A' for Active; 'I' for Inactive)
REMARK    1  A    between atoms: N_1  and  C_13
REMARK    2  A    between atoms: C_13  and  C_14
REMARK    3  A    between atoms: C_14  and  O_15
REMARK    4  A    between atoms: O_15  and  C_16
REMARK    5  A    between atoms: C_16  and  P_17
REMARK    6  A    between atoms: P_17  and  O_19
REMARK    7  A    between atoms: P_17  and  O_21
REMARK                            x       y       z     vdW  Elec       q    Type
REMARK                         _______ _______ _______ _____ _____    ______ ____
ROOT
ATOM      1  N   UNL     1      35.242 -17.489 -21.755  0.00  0.00    -0.269 N 
ATOM      2  N   UNL     1      34.253 -15.514 -21.646  0.00  0.00    -0.242 NA
ATOM      3  N   UNL     1      35.082 -17.931 -24.135  0.00  0.00    -0.228 NA
ATOM      4  N   UNL     1      33.960 -16.095 -25.286  0.00  0.00    -0.229 NA
ATOM      5  C   UNL     1      34.887 -17.196 -23.029  0.00  0.00    +0.151 C 
ATOM      6  C   UNL     1      34.270 -15.959 -22.943  0.00  0.00    +0.140 C 
ATOM      7  C   UNL     1      34.848 -16.464 -20.955  0.00  0.00    +0.221 C 
ATOM      8  C   UNL     1      33.798 -15.407 -24.131  0.00  0.00    +0.143 C 
ATOM      9  C   UNL     1      34.583 -17.296 -25.217  0.00  0.00    +0.253 C 
ATOM     10  N   UNL     1      33.161 -14.154 -24.136  0.00  0.00    -0.342 N 
ATOM     11  H   UNL     1      32.831 -13.774 -24.982  0.00  0.00    +0.144 HD
ATOM     12  H   UNL     1      33.045 -13.657 -23.294  0.00  0.00    +0.144 HD
ENDROOT
BRANCH   1  13
ATOM     13  C   UNL     1      35.930 -18.698 -21.306  0.00  0.00    +0.126 C 
BRANCH  13  14
ATOM     14  C   UNL     1      34.984 -19.877 -21.132  0.00  0.00    +0.164 C 
BRANCH  14  15
ATOM     15  O   UNL     1      35.030 -20.334 -19.787  0.00  0.00    -0.340 OA
BRANCH  15  16
ATOM     16  C   UNL     1      35.426 -21.696 -19.710  0.00  0.00    +0.258 C 
BRANCH  16  17
ATOM     17  P   UNL     1      34.031 -22.538 -18.992  0.00  0.00    +0.367 P 
ATOM     18  O   UNL     1      32.734 -21.789 -19.073  0.00  0.00    -0.256 OA
BRANCH  17  19
ATOM     19  O   UNL     1      34.528 -22.893 -17.497  0.00  0.00    -0.322 OA
ATOM     20  H   UNL     1      33.992 -22.406 -16.853  0.00  0.00    +0.220 HD
ENDBRANCH  17  19
BRANCH  17  21
ATOM     21  O   UNL     1      34.041 -23.971 -19.738  0.00  0.00    -0.322 OA
ATOM     22  H   UNL     1      33.341 -24.532 -19.369  0.00  0.00    +0.220 HD
ENDBRANCH  17  21
ENDBRANCH  16  17
ENDBRANCH  15  16
ENDBRANCH  14  15
ENDBRANCH  13  14
ENDBRANCH   1  13
TORSDOF 7
ENDMDL
