MODEL 1
REMARK VINA RESULT:      -8.7      0.000      0.000
REMARK  Name = 31477
REMARK  9 active torsions:
REMARK  status: ('A' for Active; 'I' for Inactive)
REMARK    1  A    between atoms: C_1  and  O_10
REMARK    2  A    between atoms: C_5  and  O_22
REMARK    3  A    between atoms: O_10  and  C_11
REMARK    4  A    between atoms: C_11  and  C_12
REMARK    5  A    between atoms: C_12  and  O_13
REMARK    6  A    between atoms: C_12  and  C_15
REMARK    7  A    between atoms: C_15  and  N_16
REMARK    8  A    between atoms: N_16  and  C_19
REMARK    9  A    between atoms: O_22  and  C_24
REMARK                            x       y       z     vdW  Elec       q    Type
REMARK                         _______ _______ _______ _____ _____    ______ ____
ROOT
ATOM      1  C   UNL     1      34.802 -18.717 -22.118  0.00  0.00    +0.134 C 
ATOM      2  C   UNL     1      34.812 -18.360 -23.463  0.00  0.00    +0.011 C 
ATOM      3  C   UNL     1      34.793 -17.011 -23.821  0.00  0.00    +0.011 C 
ATOM      4  C   UNL     1      34.755 -16.392 -21.486  0.00  0.00    +0.015 C 
ATOM      5  C   UNL     1      34.765 -16.028 -22.833  0.00  0.00    +0.140 C 
ATOM      6  C   UNL     1      34.773 -17.740 -21.129  0.00  0.00    +0.035 C 
ATOM      7  C   UNL     1      34.843 -19.420 -24.517  0.00  0.00    +0.034 C 
ATOM      8  C   UNL     1      34.805 -16.614 -25.263  0.00  0.00    +0.034 C 
ATOM      9  C   UNL     1      34.725 -15.354 -20.413  0.00  0.00    +0.034 C 
ENDROOT
BRANCH   1  10
ATOM     10  O   UNL     1      34.820 -20.035 -21.748  0.00  0.00    -0.473 OA
BRANCH  10  11
ATOM     11  C   UNL     1      34.755 -20.308 -20.351  0.00  0.00    +0.232 C 
BRANCH  11  12
ATOM     12  C   UNL     1      33.551 -21.209 -20.081  0.00  0.00    +0.133 C 
BRANCH  12  13
ATOM     13  O   UNL     1      32.465 -20.395 -19.631  0.00  0.00    -0.383 OA
ATOM     14  H   UNL     1      31.860 -20.225 -20.370  0.00  0.00    +0.210 HD
ENDBRANCH  12  13
BRANCH  12  15
ATOM     15  C   UNL     1      33.820 -22.278 -19.021  0.00  0.00    -0.048 C 
BRANCH  15  16
ATOM     16  N   UNL     1      32.635 -22.569 -18.223  0.00  0.00    +0.387 N 
ATOM     17  H   UNL     1      31.952 -23.054 -18.805  0.00  0.00    -0.084 HD
ATOM     18  H   UNL     1      32.251 -21.688 -17.880  0.00  0.00    -0.084 HD
BRANCH  16  19
ATOM     19  C   UNL     1      32.969 -23.406 -17.080  0.00  0.00    -0.062 C 
ATOM     20  C   UNL     1      31.977 -23.173 -15.944  0.00  0.00    -0.023 C 
ATOM     21  C   UNL     1      34.396 -23.106 -16.631  0.00  0.00    -0.023 C 
ENDBRANCH  16  19
ENDBRANCH  15  16
ENDBRANCH  12  15
ENDBRANCH  11  12
ENDBRANCH  10  11
ENDBRANCH   1  10
BRANCH   5  22
ATOM     22  O   UNL     1      34.746 -14.709 -23.180  0.00  0.00    -0.425 OA
BRANCH  22  24
ATOM     23  O   UNL     1      32.422 -14.655 -22.916  0.00  0.00    -0.250 OA
ATOM     24  C   UNL     1      33.459 -14.185 -23.367  0.00  0.00    +0.322 C 
ATOM     25  C   UNL     1      33.527 -12.947 -24.212  0.00  0.00    +0.122 C 
ENDBRANCH  22  24
ENDBRANCH   5  22
TORSDOF 9
ENDMDL
MODEL 2
REMARK VINA RESULT:      -8.5      4.648      7.624
REMARK  Name = 31477
REMARK  9 active torsions:
REMARK  status: ('A' for Active; 'I' for Inactive)
REMARK    1  A    between atoms: C_1  and  O_10
REMARK    2  A    between atoms: C_5  and  O_22
REMARK    3  A    between atoms: O_10  and  C_11
REMARK    4  A    between atoms: C_11  and  C_12
REMARK    5  A    between atoms: C_12  and  O_13
REMARK    6  A    between atoms: C_12  and  C_15
REMARK    7  A    between atoms: C_15  and  N_16
REMARK    8  A    between atoms: N_16  and  C_19
REMARK    9  A    between atoms: O_22  and  C_24
REMARK                            x       y       z     vdW  Elec       q    Type
REMARK                         _______ _______ _______ _____ _____    ______ ____
ROOT
ATOM      1  C   UNL     1      33.335 -12.020 -23.633  0.00  0.00    +0.134 C 
ATOM      2  C   UNL     1      33.762 -10.727 -23.920  0.00  0.00    +0.011 C 
ATOM      3  C   UNL     1      33.171  -9.642 -23.271  0.00  0.00    +0.011 C 
ATOM      4  C   UNL     1      31.734 -11.154 -22.053  0.00  0.00    +0.015 C 
ATOM      5  C   UNL     1      32.158  -9.856 -22.337  0.00  0.00    +0.140 C 
ATOM      6  C   UNL     1      32.324 -12.239 -22.702  0.00  0.00    +0.035 C 
ATOM      7  C   UNL     1      34.849 -10.506 -24.922  0.00  0.00    +0.034 C 
ATOM      8  C   UNL     1      33.622  -8.248 -23.571  0.00  0.00    +0.034 C 
ATOM      9  C   UNL     1      30.649 -11.404 -21.056  0.00  0.00    +0.034 C 
ENDROOT
BRANCH   1  10
ATOM     10  O   UNL     1      33.903 -13.096 -24.259  0.00  0.00    -0.473 OA
BRANCH  10  11
ATOM     11  C   UNL     1      33.010 -14.072 -24.790  0.00  0.00    +0.232 C 
BRANCH  11  12
ATOM     12  C   UNL     1      33.826 -15.241 -25.338  0.00  0.00    +0.133 C 
BRANCH  12  13
ATOM     13  O   UNL     1      33.041 -15.925 -26.318  0.00  0.00    -0.383 OA
ATOM     14  H   UNL     1      32.504 -15.282 -26.808  0.00  0.00    +0.210 HD
ENDBRANCH  12  13
BRANCH  12  15
ATOM     15  C   UNL     1      34.237 -16.250 -24.264  0.00  0.00    -0.048 C 
BRANCH  15  16
ATOM     16  N   UNL     1      34.913 -15.612 -23.142  0.00  0.00    +0.387 N 
ATOM     17  H   UNL     1      34.848 -14.599 -23.246  0.00  0.00    -0.084 HD
ATOM     18  H   UNL     1      35.888 -15.909 -23.139  0.00  0.00    -0.084 HD
BRANCH  16  19
ATOM     19  C   UNL     1      34.304 -16.001 -21.878  0.00  0.00    -0.062 C 
ATOM     20  C   UNL     1      34.358 -14.843 -20.885  0.00  0.00    -0.023 C 
ATOM     21  C   UNL     1      35.021 -17.229 -21.326  0.00  0.00    -0.023 C 
ENDBRANCH  16  19
ENDBRANCH  15  16
ENDBRANCH  12  15
ENDBRANCH  11  12
ENDBRANCH  10  11
ENDBRANCH   1  10
BRANCH   5  22
ATOM     22  O   UNL     1      31.579  -8.797 -21.701  0.00  0.00    -0.425 OA
BRANCH  22  24
ATOM     23  O   UNL     1      32.581  -9.190 -19.623  0.00  0.00    -0.250 OA
ATOM     24  C   UNL     1      32.218  -8.427 -20.509  0.00  0.00    +0.322 C 
ATOM     25  C   UNL     1      32.398  -6.938 -20.466  0.00  0.00    +0.122 C 
ENDBRANCH  22  24
ENDBRANCH   5  22
TORSDOF 9
ENDMDL
MODEL 3
REMARK VINA RESULT:      -8.5      3.372      5.178
REMARK  Name = 31477
REMARK  9 active torsions:
REMARK  status: ('A' for Active; 'I' for Inactive)
REMARK    1  A    between atoms: C_1  and  O_10
REMARK    2  A    between atoms: C_5  and  O_22
REMARK    3  A    between atoms: O_10  and  C_11
REMARK    4  A    between atoms: C_11  and  C_12
REMARK    5  A    between atoms: C_12  and  O_13
REMARK    6  A    between atoms: C_12  and  C_15
REMARK    7  A    between atoms: C_15  and  N_16
REMARK    8  A    between atoms: N_16  and  C_19
REMARK    9  A    between atoms: O_22  and  C_24
REMARK                            x       y       z     vdW  Elec       q    Type
REMARK                         _______ _______ _______ _____ _____    ______ ____
ROOT
ATOM      1  C   UNL     1      35.696 -21.506 -19.158  0.00  0.00    +0.134 C 
ATOM      2  C   UNL     1      34.369 -21.258 -19.497  0.00  0.00    +0.011 C 
ATOM      3  C   UNL     1      34.070 -20.301 -20.467  0.00  0.00    +0.011 C 
ATOM      4  C   UNL     1      36.426 -19.850 -20.750  0.00  0.00    +0.015 C 
ATOM      5  C   UNL     1      35.098 -19.597 -21.093  0.00  0.00    +0.140 C 
ATOM      6  C   UNL     1      36.726 -20.807 -19.779  0.00  0.00    +0.035 C 
ATOM      7  C   UNL     1      33.272 -22.017 -18.821  0.00  0.00    +0.034 C 
ATOM      8  C   UNL     1      32.648 -20.026 -20.841  0.00  0.00    +0.034 C 
ATOM      9  C   UNL     1      37.542 -19.107 -21.408  0.00  0.00    +0.034 C 
ENDROOT
BRANCH   1  10
ATOM     10  O   UNL     1      36.009 -22.441 -18.209  0.00  0.00    -0.473 OA
BRANCH  10  11
ATOM     11  C   UNL     1      36.523 -21.952 -16.973  0.00  0.00    +0.232 C 
BRANCH  11  12
ATOM     12  C   UNL     1      36.179 -22.948 -15.867  0.00  0.00    +0.133 C 
BRANCH  12  13
ATOM     13  O   UNL     1      35.116 -22.404 -15.080  0.00  0.00    -0.383 OA
ATOM     14  H   UNL     1      34.278 -22.821 -15.336  0.00  0.00    +0.210 HD
ENDBRANCH  12  13
BRANCH  12  15
ATOM     15  C   UNL     1      37.355 -23.254 -14.939  0.00  0.00    -0.048 C 
BRANCH  15  16
ATOM     16  N   UNL     1      38.281 -24.215 -15.524  0.00  0.00    +0.387 N 
ATOM     17  H   UNL     1      39.097 -23.718 -15.880  0.00  0.00    -0.084 HD
ATOM     18  H   UNL     1      37.804 -24.705 -16.281  0.00  0.00    -0.084 HD
BRANCH  16  19
ATOM     19  C   UNL     1      38.711 -25.193 -14.535  0.00  0.00    -0.062 C 
ATOM     20  C   UNL     1      40.181 -25.545 -14.744  0.00  0.00    -0.023 C 
ATOM     21  C   UNL     1      37.831 -26.435 -14.632  0.00  0.00    -0.023 C 
ENDBRANCH  16  19
ENDBRANCH  15  16
ENDBRANCH  12  15
ENDBRANCH  11  12
ENDBRANCH  10  11
ENDBRANCH   1  10
BRANCH   5  22
ATOM     22  O   UNL     1      34.808 -18.661 -22.042  0.00  0.00    -0.425 OA
BRANCH  22  24
ATOM     23  O   UNL     1      34.999 -16.976 -20.429  0.00  0.00    -0.250 OA
ATOM     24  C   UNL     1      34.938 -17.337 -21.597  0.00  0.00    +0.322 C 
ATOM     25  C   UNL     1      34.989 -16.405 -22.771  0.00  0.00    +0.122 C 
ENDBRANCH  22  24
ENDBRANCH   5  22
TORSDOF 9
ENDMDL
MODEL 4
REMARK VINA RESULT:      -8.4      4.240      7.549
REMARK  Name = 31477
REMARK  9 active torsions:
REMARK  status: ('A' for Active; 'I' for Inactive)
REMARK    1  A    between atoms: C_1  and  O_10
REMARK    2  A    between atoms: C_5  and  O_22
REMARK    3  A    between atoms: O_10  and  C_11
REMARK    4  A    between atoms: C_11  and  C_12
REMARK    5  A    between atoms: C_12  and  O_13
REMARK    6  A    between atoms: C_12  and  C_15
REMARK    7  A    between atoms: C_15  and  N_16
REMARK    8  A    between atoms: N_16  and  C_19
REMARK    9  A    between atoms: O_22  and  C_24
REMARK                            x       y       z     vdW  Elec       q    Type
REMARK                         _______ _______ _______ _____ _____    ______ ____
ROOT
ATOM      1  C   UNL     1      33.372 -11.875 -23.635  0.00  0.00    +0.134 C 
ATOM      2  C   UNL     1      33.796 -10.585 -23.941  0.00  0.00    +0.011 C 
ATOM      3  C   UNL     1      33.184  -9.491 -23.329  0.00  0.00    +0.011 C 
ATOM      4  C   UNL     1      31.729 -10.987 -22.111  0.00  0.00    +0.015 C 
ATOM      5  C   UNL     1      32.150  -9.692 -22.414  0.00  0.00    +0.140 C 
ATOM      6  C   UNL     1      32.341 -12.081 -22.724  0.00  0.00    +0.035 C 
ATOM      7  C   UNL     1      34.905 -10.378 -24.923  0.00  0.00    +0.034 C 
ATOM      8  C   UNL     1      33.632  -8.100 -23.649  0.00  0.00    +0.034 C 
ATOM      9  C   UNL     1      30.624 -11.223 -21.134  0.00  0.00    +0.034 C 
ENDROOT
BRANCH   1  10
ATOM     10  O   UNL     1      33.961 -12.960 -24.225  0.00  0.00    -0.473 OA
BRANCH  10  11
ATOM     11  C   UNL     1      33.166 -14.138 -24.337  0.00  0.00    +0.232 C 
BRANCH  11  12
ATOM     12  C   UNL     1      33.838 -15.262 -23.552  0.00  0.00    +0.133 C 
BRANCH  12  13
ATOM     13  O   UNL     1      34.875 -14.697 -22.745  0.00  0.00    -0.383 OA
ATOM     14  H   UNL     1      35.740 -14.945 -23.109  0.00  0.00    +0.210 HD
ENDBRANCH  12  13
BRANCH  12  15
ATOM     15  C   UNL     1      34.459 -16.339 -24.444  0.00  0.00    -0.048 C 
BRANCH  15  16
ATOM     16  N   UNL     1      35.594 -16.992 -23.806  0.00  0.00    +0.387 N 
ATOM     17  H   UNL     1      35.743 -16.578 -22.885  0.00  0.00    -0.084 HD
ATOM     18  H   UNL     1      36.417 -16.860 -24.393  0.00  0.00    -0.084 HD
BRANCH  16  19
ATOM     19  C   UNL     1      35.355 -18.420 -23.654  0.00  0.00    -0.062 C 
ATOM     20  C   UNL     1      34.414 -18.919 -24.747  0.00  0.00    -0.023 C 
ATOM     21  C   UNL     1      34.780 -18.695 -22.269  0.00  0.00    -0.023 C 
ENDBRANCH  16  19
ENDBRANCH  15  16
ENDBRANCH  12  15
ENDBRANCH  11  12
ENDBRANCH  10  11
ENDBRANCH   1  10
BRANCH   5  22
ATOM     22  O   UNL     1      31.550  -8.624 -21.815  0.00  0.00    -0.425 OA
BRANCH  22  24
ATOM     23  O   UNL     1      32.644  -8.917 -19.767  0.00  0.00    -0.250 OA
ATOM     24  C   UNL     1      32.188  -8.193 -20.643  0.00  0.00    +0.322 C 
ATOM     25  C   UNL     1      32.232  -6.694 -20.606  0.00  0.00    +0.122 C 
ENDBRANCH  22  24
ENDBRANCH   5  22
TORSDOF 9
ENDMDL
MODEL 5
REMARK VINA RESULT:      -8.3      2.696      4.389
REMARK  Name = 31477
REMARK  9 active torsions:
REMARK  status: ('A' for Active; 'I' for Inactive)
REMARK    1  A    between atoms: C_1  and  O_10
REMARK    2  A    between atoms: C_5  and  O_22
REMARK    3  A    between atoms: O_10  and  C_11
REMARK    4  A    between atoms: C_11  and  C_12
REMARK    5  A    between atoms: C_12  and  O_13
REMARK    6  A    between atoms: C_12  and  C_15
REMARK    7  A    between atoms: C_15  and  N_16
REMARK    8  A    between atoms: N_16  and  C_19
REMARK    9  A    between atoms: O_22  and  C_24
REMARK                            x       y       z     vdW  Elec       q    Type
REMARK                         _______ _______ _______ _____ _____    ______ ____
ROOT
ATOM      1  C   UNL     1      35.615 -21.394 -19.271  0.00  0.00    +0.134 C 
ATOM      2  C   UNL     1      34.298 -21.094 -19.605  0.00  0.00    +0.011 C 
ATOM      3  C   UNL     1      34.032 -20.106 -20.554  0.00  0.00    +0.011 C 
ATOM      4  C   UNL     1      36.403 -19.729 -20.825  0.00  0.00    +0.015 C 
ATOM      5  C   UNL     1      35.085 -19.424 -21.163  0.00  0.00    +0.140 C 
ATOM      6  C   UNL     1      36.668 -20.717 -19.875  0.00  0.00    +0.035 C 
ATOM      7  C   UNL     1      33.174 -21.829 -18.947  0.00  0.00    +0.034 C 
ATOM      8  C   UNL     1      32.621 -19.774 -20.922  0.00  0.00    +0.034 C 
ATOM      9  C   UNL     1      37.544 -19.010 -21.466  0.00  0.00    +0.034 C 
ENDROOT
BRANCH   1  10
ATOM     10  O   UNL     1      35.894 -22.361 -18.343  0.00  0.00    -0.473 OA
BRANCH  10  11
ATOM     11  C   UNL     1      36.794 -22.003 -17.297  0.00  0.00    +0.232 C 
BRANCH  11  12
ATOM     12  C   UNL     1      36.384 -22.736 -16.022  0.00  0.00    +0.133 C 
BRANCH  12  13
ATOM     13  O   UNL     1      37.251 -23.860 -15.844  0.00  0.00    -0.383 OA
ATOM     14  H   UNL     1      36.767 -24.676 -16.043  0.00  0.00    +0.210 HD
ENDBRANCH  12  13
BRANCH  12  15
ATOM     15  C   UNL     1      34.942 -23.245 -16.051  0.00  0.00    -0.048 C 
BRANCH  15  16
ATOM     16  N   UNL     1      34.177 -22.792 -14.896  0.00  0.00    +0.387 N 
ATOM     17  H   UNL     1      33.412 -22.198 -15.214  0.00  0.00    -0.084 HD
ATOM     18  H   UNL     1      34.800 -22.272 -14.278  0.00  0.00    -0.084 HD
BRANCH  16  19
ATOM     19  C   UNL     1      33.630 -23.922 -14.159  0.00  0.00    -0.062 C 
ATOM     20  C   UNL     1      32.207 -23.615 -13.699  0.00  0.00    -0.023 C 
ATOM     21  C   UNL     1      34.532 -24.239 -12.971  0.00  0.00    -0.023 C 
ENDBRANCH  16  19
ENDBRANCH  15  16
ENDBRANCH  12  15
ENDBRANCH  11  12
ENDBRANCH  10  11
ENDBRANCH   1  10
BRANCH   5  22
ATOM     22  O   UNL     1      34.828 -18.457 -22.091  0.00  0.00    -0.425 OA
BRANCH  22  24
ATOM     23  O   UNL     1      35.147 -16.838 -20.431  0.00  0.00    -0.250 OA
ATOM     24  C   UNL     1      34.914 -17.149 -21.593  0.00  0.00    +0.322 C 
ATOM     25  C   UNL     1      34.675 -16.163 -22.698  0.00  0.00    +0.122 C 
ENDBRANCH  22  24
ENDBRANCH   5  22
TORSDOF 9
ENDMDL
MODEL 6
REMARK VINA RESULT:      -8.2      3.833      8.656
REMARK  Name = 31477
REMARK  9 active torsions:
REMARK  status: ('A' for Active; 'I' for Inactive)
REMARK    1  A    between atoms: C_1  and  O_10
REMARK    2  A    between atoms: C_5  and  O_22
REMARK    3  A    between atoms: O_10  and  C_11
REMARK    4  A    between atoms: C_11  and  C_12
REMARK    5  A    between atoms: C_12  and  O_13
REMARK    6  A    between atoms: C_12  and  C_15
REMARK    7  A    between atoms: C_15  and  N_16
REMARK    8  A    between atoms: N_16  and  C_19
REMARK    9  A    between atoms: O_22  and  C_24
REMARK                            x       y       z     vdW  Elec       q    Type
REMARK                         _______ _______ _______ _____ _____    ______ ____
ROOT
ATOM      1  C   UNL     1      33.562 -15.126 -23.972  0.00  0.00    +0.134 C 
ATOM      2  C   UNL     1      33.660 -14.847 -22.612  0.00  0.00    +0.011 C 
ATOM      3  C   UNL     1      34.310 -15.746 -21.765  0.00  0.00    +0.011 C 
ATOM      4  C   UNL     1      34.758 -17.193 -23.647  0.00  0.00    +0.015 C 
ATOM      5  C   UNL     1      34.859 -16.919 -22.284  0.00  0.00    +0.140 C 
ATOM      6  C   UNL     1      34.108 -16.294 -24.493  0.00  0.00    +0.035 C 
ATOM      7  C   UNL     1      33.069 -13.588 -22.063  0.00  0.00    +0.034 C 
ATOM      8  C   UNL     1      34.422 -15.457 -20.302  0.00  0.00    +0.034 C 
ATOM      9  C   UNL     1      35.339 -18.444 -24.222  0.00  0.00    +0.034 C 
ENDROOT
BRANCH   1  10
ATOM     10  O   UNL     1      32.928 -14.255 -24.817  0.00  0.00    -0.473 OA
BRANCH  10  11
ATOM     11  C   UNL     1      33.088 -14.489 -26.213  0.00  0.00    +0.232 C 
BRANCH  11  12
ATOM     12  C   UNL     1      33.350 -13.155 -26.909  0.00  0.00    +0.133 C 
BRANCH  12  13
ATOM     13  O   UNL     1      34.111 -13.401 -28.095  0.00  0.00    -0.383 OA
ATOM     14  H   UNL     1      34.685 -14.171 -27.956  0.00  0.00    +0.210 HD
ENDBRANCH  12  13
BRANCH  12  15
ATOM     15  C   UNL     1      34.122 -12.159 -26.042  0.00  0.00    -0.048 C 
BRANCH  15  16
ATOM     16  N   UNL     1      33.259 -11.480 -25.085  0.00  0.00    +0.387 N 
ATOM     17  H   UNL     1      32.709 -12.175 -24.580  0.00  0.00    -0.084 HD
ATOM     18  H   UNL     1      32.647 -10.843 -25.595  0.00  0.00    -0.084 HD
BRANCH  16  19
ATOM     19  C   UNL     1      34.043 -10.708 -24.133  0.00  0.00    -0.062 C 
ATOM     20  C   UNL     1      33.138  -9.771 -23.336  0.00  0.00    -0.023 C 
ATOM     21  C   UNL     1      35.120  -9.925 -24.877  0.00  0.00    -0.023 C 
ENDBRANCH  16  19
ENDBRANCH  15  16
ENDBRANCH  12  15
ENDBRANCH  11  12
ENDBRANCH  10  11
ENDBRANCH   1  10
BRANCH   5  22
ATOM     22  O   UNL     1      35.495 -17.800 -21.458  0.00  0.00    -0.425 OA
BRANCH  22  24
ATOM     23  O   UNL     1      33.474 -18.889 -21.002  0.00  0.00    -0.250 OA
ATOM     24  C   UNL     1      34.697 -18.880 -21.052  0.00  0.00    +0.322 C 
ATOM     25  C   UNL     1      35.566 -20.044 -20.676  0.00  0.00    +0.122 C 
ENDBRANCH  22  24
ENDBRANCH   5  22
TORSDOF 9
ENDMDL
MODEL 7
REMARK VINA RESULT:      -8.1      5.102      7.993
REMARK  Name = 31477
REMARK  9 active torsions:
REMARK  status: ('A' for Active; 'I' for Inactive)
REMARK    1  A    between atoms: C_1  and  O_10
REMARK    2  A    between atoms: C_5  and  O_22
REMARK    3  A    between atoms: O_10  and  C_11
REMARK    4  A    between atoms: C_11  and  C_12
REMARK    5  A    between atoms: C_12  and  O_13
REMARK    6  A    between atoms: C_12  and  C_15
REMARK    7  A    between atoms: C_15  and  N_16
REMARK    8  A    between atoms: N_16  and  C_19
REMARK    9  A    between atoms: O_22  and  C_24
REMARK                            x       y       z     vdW  Elec       q    Type
REMARK                         _______ _______ _______ _____ _____    ______ ____
ROOT
ATOM      1  C   UNL     1      33.630 -11.696 -24.182  0.00  0.00    +0.134 C 
ATOM      2  C   UNL     1      34.254 -10.475 -24.428  0.00  0.00    +0.011 C 
ATOM      3  C   UNL     1      33.877  -9.347 -23.699  0.00  0.00    +0.011 C 
ATOM      4  C   UNL     1      32.260 -10.670 -22.486  0.00  0.00    +0.015 C 
ATOM      5  C   UNL     1      32.881  -9.444 -22.728  0.00  0.00    +0.140 C 
ATOM      6  C   UNL     1      32.636 -11.798 -23.215  0.00  0.00    +0.035 C 
ATOM      7  C   UNL     1      35.321 -10.379 -25.471  0.00  0.00    +0.034 C 
ATOM      8  C   UNL     1      34.540  -8.030 -23.953  0.00  0.00    +0.034 C 
ATOM      9  C   UNL     1      31.191 -10.794 -21.450  0.00  0.00    +0.034 C 
ENDROOT
BRANCH   1  10
ATOM     10  O   UNL     1      33.987 -12.813 -24.887  0.00  0.00    -0.473 OA
BRANCH  10  11
ATOM     11  C   UNL     1      32.924 -13.622 -25.384  0.00  0.00    +0.232 C 
BRANCH  11  12
ATOM     12  C   UNL     1      33.495 -14.965 -25.834  0.00  0.00    +0.133 C 
BRANCH  12  13
ATOM     13  O   UNL     1      32.496 -15.656 -26.588  0.00  0.00    -0.383 OA
ATOM     14  H   UNL     1      31.878 -16.094 -25.982  0.00  0.00    +0.210 HD
ENDBRANCH  12  13
BRANCH  12  15
ATOM     15  C   UNL     1      33.923 -15.863 -24.671  0.00  0.00    -0.048 C 
BRANCH  15  16
ATOM     16  N   UNL     1      33.523 -15.316 -23.381  0.00  0.00    +0.387 N 
ATOM     17  H   UNL     1      32.724 -15.843 -23.028  0.00  0.00    -0.084 HD
ATOM     18  H   UNL     1      33.275 -14.335 -23.507  0.00  0.00    -0.084 HD
BRANCH  16  19
ATOM     19  C   UNL     1      34.613 -15.400 -22.419  0.00  0.00    -0.062 C 
ATOM     20  C   UNL     1      35.128 -16.834 -22.327  0.00  0.00    -0.023 C 
ATOM     21  C   UNL     1      34.131 -14.903 -21.061  0.00  0.00    -0.023 C 
ENDBRANCH  16  19
ENDBRANCH  15  16
ENDBRANCH  12  15
ENDBRANCH  11  12
ENDBRANCH  10  11
ENDBRANCH   1  10
BRANCH   5  22
ATOM     22  O   UNL     1      32.511  -8.342 -22.014  0.00  0.00    -0.425 OA
BRANCH  22  24
ATOM     23  O   UNL     1      30.766  -7.883 -23.503  0.00  0.00    -0.250 OA
ATOM     24  C   UNL     1      31.588  -7.517 -22.672  0.00  0.00    +0.322 C 
ATOM     25  C   UNL     1      31.750  -6.099 -22.213  0.00  0.00    +0.122 C 
ENDBRANCH  22  24
ENDBRANCH   5  22
TORSDOF 9
ENDMDL
MODEL 8
REMARK VINA RESULT:      -8.1      4.693      9.489
REMARK  Name = 31477
REMARK  9 active torsions:
REMARK  status: ('A' for Active; 'I' for Inactive)
REMARK    1  A    between atoms: C_1  and  O_10
REMARK    2  A    between atoms: C_5  and  O_22
REMARK    3  A    between atoms: O_10  and  C_11
REMARK    4  A    between atoms: C_11  and  C_12
REMARK    5  A    between atoms: C_12  and  O_13
REMARK    6  A    between atoms: C_12  and  C_15
REMARK    7  A    between atoms: C_15  and  N_16
REMARK    8  A    between atoms: N_16  and  C_19
REMARK    9  A    between atoms: O_22  and  C_24
REMARK                            x       y       z     vdW  Elec       q    Type
REMARK                         _______ _______ _______ _____ _____    ______ ____
ROOT
ATOM      1  C   UNL     1      33.172 -13.145 -23.144  0.00  0.00    +0.134 C 
ATOM      2  C   UNL     1      32.623 -13.510 -21.918  0.00  0.00    +0.011 C 
ATOM      3  C   UNL     1      32.801 -14.808 -21.438  0.00  0.00    +0.011 C 
ATOM      4  C   UNL     1      34.076 -15.363 -23.414  0.00  0.00    +0.015 C 
ATOM      5  C   UNL     1      33.528 -15.734 -22.186  0.00  0.00    +0.140 C 
ATOM      6  C   UNL     1      33.897 -14.065 -23.894  0.00  0.00    +0.035 C 
ATOM      7  C   UNL     1      31.844 -12.511 -21.122  0.00  0.00    +0.034 C 
ATOM      8  C   UNL     1      32.216 -15.212 -20.122  0.00  0.00    +0.034 C 
ATOM      9  C   UNL     1      34.857 -16.340 -24.229  0.00  0.00    +0.034 C 
ENDROOT
BRANCH   1  10
ATOM     10  O   UNL     1      33.007 -11.877 -23.630  0.00  0.00    -0.473 OA
BRANCH  10  11
ATOM     11  C   UNL     1      33.871 -11.482 -24.693  0.00  0.00    +0.232 C 
BRANCH  11  12
ATOM     12  C   UNL     1      34.284 -10.027 -24.477  0.00  0.00    +0.133 C 
BRANCH  12  13
ATOM     13  O   UNL     1      35.679  -9.991 -24.167  0.00  0.00    -0.383 OA
ATOM     14  H   UNL     1      35.923  -9.097 -23.880  0.00  0.00    +0.210 HD
ENDBRANCH  12  13
BRANCH  12  15
ATOM     15  C   UNL     1      33.522  -9.342 -23.341  0.00  0.00    -0.048 C 
BRANCH  15  16
ATOM     16  N   UNL     1      32.186  -8.927 -23.748  0.00  0.00    +0.387 N 
ATOM     17  H   UNL     1      31.678  -9.737 -24.103  0.00  0.00    -0.084 HD
ATOM     18  H   UNL     1      32.275  -8.216 -24.474  0.00  0.00    -0.084 HD
BRANCH  16  19
ATOM     19  C   UNL     1      31.454  -8.357 -22.627  0.00  0.00    -0.062 C 
ATOM     20  C   UNL     1      31.335  -6.843 -22.785  0.00  0.00    -0.023 C 
ATOM     21  C   UNL     1      32.160  -8.717 -21.323  0.00  0.00    -0.023 C 
ENDBRANCH  16  19
ENDBRANCH  15  16
ENDBRANCH  12  15
ENDBRANCH  11  12
ENDBRANCH  10  11
ENDBRANCH   1  10
BRANCH   5  22
ATOM     22  O   UNL     1      33.703 -17.004 -21.719  0.00  0.00    -0.425 OA
BRANCH  22  24
ATOM     23  O   UNL     1      35.361 -16.403 -20.180  0.00  0.00    -0.250 OA
ATOM     24  C   UNL     1      34.890 -17.188 -20.994  0.00  0.00    +0.322 C 
ATOM     25  C   UNL     1      35.515 -18.500 -21.360  0.00  0.00    +0.122 C 
ENDBRANCH  22  24
ENDBRANCH   5  22
TORSDOF 9
ENDMDL
MODEL 9
REMARK VINA RESULT:      -8.0      7.685      9.996
REMARK  Name = 31477
REMARK  9 active torsions:
REMARK  status: ('A' for Active; 'I' for Inactive)
REMARK    1  A    between atoms: C_1  and  O_10
REMARK    2  A    between atoms: C_5  and  O_22
REMARK    3  A    between atoms: O_10  and  C_11
REMARK    4  A    between atoms: C_11  and  C_12
REMARK    5  A    between atoms: C_12  and  O_13
REMARK    6  A    between atoms: C_12  and  C_15
REMARK    7  A    between atoms: C_15  and  N_16
REMARK    8  A    between atoms: N_16  and  C_19
REMARK    9  A    between atoms: O_22  and  C_24
REMARK                            x       y       z     vdW  Elec       q    Type
REMARK                         _______ _______ _______ _____ _____    ______ ____
ROOT
ATOM      1  C   UNL     1      34.540 -23.667 -14.112  0.00  0.00    +0.134 C 
ATOM      2  C   UNL     1      34.459 -23.270 -15.443  0.00  0.00    +0.011 C 
ATOM      3  C   UNL     1      33.263 -23.434 -16.144  0.00  0.00    +0.011 C 
ATOM      4  C   UNL     1      32.241 -24.389 -14.174  0.00  0.00    +0.015 C 
ATOM      5  C   UNL     1      32.155 -23.994 -15.509  0.00  0.00    +0.140 C 
ATOM      6  C   UNL     1      33.437 -24.226 -13.474  0.00  0.00    +0.035 C 
ATOM      7  C   UNL     1      35.652 -22.671 -16.117  0.00  0.00    +0.034 C 
ATOM      8  C   UNL     1      33.164 -23.011 -17.575  0.00  0.00    +0.034 C 
ATOM      9  C   UNL     1      31.065 -24.991 -13.477  0.00  0.00    +0.034 C 
ENDROOT
BRANCH   1  10
ATOM     10  O   UNL     1      35.704 -23.513 -13.409  0.00  0.00    -0.473 OA
BRANCH  10  11
ATOM     11  C   UNL     1      35.642 -23.757 -12.006  0.00  0.00    +0.232 C 
BRANCH  11  12
ATOM     12  C   UNL     1      37.060 -23.742 -11.440  0.00  0.00    +0.133 C 
BRANCH  12  13
ATOM     13  O   UNL     1      37.492 -22.383 -11.328  0.00  0.00    -0.383 OA
ATOM     14  H   UNL     1      37.637 -22.166 -10.394  0.00  0.00    +0.210 HD
ENDBRANCH  12  13
BRANCH  12  15
ATOM     15  C   UNL     1      38.069 -24.494 -12.311  0.00  0.00    -0.048 C 
BRANCH  15  16
ATOM     16  N   UNL     1      37.555 -25.784 -12.754  0.00  0.00    +0.387 N 
ATOM     17  H   UNL     1      36.536 -25.758 -12.745  0.00  0.00    -0.084 HD
ATOM     18  H   UNL     1      37.899 -26.506 -12.121  0.00  0.00    -0.084 HD
BRANCH  16  19
ATOM     19  C   UNL     1      38.013 -26.091 -14.101  0.00  0.00    -0.062 C 
ATOM     20  C   UNL     1      38.725 -24.885 -14.707  0.00  0.00    -0.023 C 
ATOM     21  C   UNL     1      36.824 -26.512 -14.958  0.00  0.00    -0.023 C 
ENDBRANCH  16  19
ENDBRANCH  15  16
ENDBRANCH  12  15
ENDBRANCH  11  12
ENDBRANCH  10  11
ENDBRANCH   1  10
BRANCH   5  22
ATOM     22  O   UNL     1      30.985 -24.155 -16.191  0.00  0.00    -0.425 OA
BRANCH  22  24
ATOM     23  O   UNL     1      30.160 -22.148 -15.315  0.00  0.00    -0.250 OA
ATOM     24  C   UNL     1      29.981 -23.245 -15.830  0.00  0.00    +0.322 C 
ATOM     25  C   UNL     1      28.633 -23.810 -16.164  0.00  0.00    +0.122 C 
ENDBRANCH  22  24
ENDBRANCH   5  22
TORSDOF 9
ENDMDL
