MODEL 1
REMARK VINA RESULT:      -8.2      0.000      0.000
REMARK  Name = 28329
REMARK  5 active torsions:
REMARK  status: ('A' for Active; 'I' for Inactive)
REMARK    1  A    between atoms: N_3  and  C_14
REMARK    2  A    between atoms: C_14  and  C_15
REMARK    3  A    between atoms: C_15  and  N_16
REMARK    4  A    between atoms: N_16  and  C_18
REMARK    5  A    between atoms: N_16  and  C_20
REMARK                            x       y       z     vdW  Elec       q    Type
REMARK                         _______ _______ _______ _____ _____    ______ ____
ROOT
ATOM      1  O   UNL     1      34.608 -16.413 -21.018  0.00  0.00    -0.272 OA
ATOM      2  O   UNL     1      32.238 -13.013 -23.218  0.00  0.00    -0.252 OA
ATOM      3  N   UNL     1      35.113 -17.526 -23.748  0.00  0.00    -0.242 NA
ATOM      4  N   UNL     1      33.216 -14.682 -24.511  0.00  0.00    -0.228 N 
ATOM      5  N   UNL     1      33.416 -14.700 -22.098  0.00  0.00    -0.211 N 
ATOM      6  N   UNL     1      34.349 -16.569 -25.611  0.00  0.00    -0.240 NA
ATOM      7  C   UNL     1      34.427 -16.414 -23.353  0.00  0.00    +0.192 C 
ATOM      8  C   UNL     1      33.969 -15.848 -24.511  0.00  0.00    +0.136 C 
ATOM      9  C   UNL     1      35.038 -17.576 -25.116  0.00  0.00    +0.203 C 
ATOM     10  C   UNL     1      34.189 -15.889 -22.047  0.00  0.00    +0.254 C 
ATOM     11  C   UNL     1      32.905 -14.052 -23.280  0.00  0.00    +0.318 C 
ATOM     12  C   UNL     1      32.752 -14.117 -25.772  0.00  0.00    +0.123 C 
ATOM     13  C   UNL     1      33.105 -14.066 -20.819  0.00  0.00    +0.124 C 
ENDROOT
BRANCH   3  14
ATOM     14  C   UNL     1      35.795 -18.482 -22.909  0.00  0.00    +0.052 C 
BRANCH  14  15
ATOM     15  C   UNL     1      34.825 -19.470 -22.266  0.00  0.00    -0.060 C 
BRANCH  15  16
ATOM     16  N   UNL     1      35.025 -19.505 -20.823  0.00  0.00    +0.388 N 
ATOM     17  H   UNL     1      34.825 -18.576 -20.452  0.00  0.00    -0.080 HD
BRANCH  16  18
ATOM     18  C   UNL     1      36.414 -19.844 -20.504  0.00  0.00    -0.077 C 
ATOM     19  C   UNL     1      36.498 -21.156 -19.742  0.00  0.00    -0.025 C 
ENDBRANCH  16  18
BRANCH  16  20
ATOM     20  C   UNL     1      34.113 -20.464 -20.198  0.00  0.00    -0.077 C 
ATOM     21  C   UNL     1      32.663 -20.064 -20.415  0.00  0.00    -0.025 C 
ENDBRANCH  16  20
ENDBRANCH  15  16
ENDBRANCH  14  15
ENDBRANCH   3  14
TORSDOF 5
ENDMDL
MODEL 2
REMARK VINA RESULT:      -7.9      5.742     10.103
REMARK  Name = 28329
REMARK  5 active torsions:
REMARK  status: ('A' for Active; 'I' for Inactive)
REMARK    1  A    between atoms: N_3  and  C_14
REMARK    2  A    between atoms: C_14  and  C_15
REMARK    3  A    between atoms: C_15  and  N_16
REMARK    4  A    between atoms: N_16  and  C_18
REMARK    5  A    between atoms: N_16  and  C_20
REMARK                            x       y       z     vdW  Elec       q    Type
REMARK                         _______ _______ _______ _____ _____    ______ ____
ROOT
ATOM      1  O   UNL     1      33.084 -23.532 -16.632  0.00  0.00    -0.272 OA
ATOM      2  O   UNL     1      34.566 -24.373 -12.260  0.00  0.00    -0.252 OA
ATOM      3  N   UNL     1      35.841 -22.482 -17.130  0.00  0.00    -0.242 NA
ATOM      4  N   UNL     1      36.068 -23.427 -13.764  0.00  0.00    -0.228 N 
ATOM      5  N   UNL     1      33.803 -23.962 -14.437  0.00  0.00    -0.211 N 
ATOM      6  N   UNL     1      37.426 -22.439 -15.563  0.00  0.00    -0.240 NA
ATOM      7  C   UNL     1      35.278 -23.008 -16.002  0.00  0.00    +0.192 C 
ATOM      8  C   UNL     1      36.269 -22.970 -15.060  0.00  0.00    +0.136 C 
ATOM      9  C   UNL     1      37.134 -22.155 -16.815  0.00  0.00    +0.203 C 
ATOM     10  C   UNL     1      33.961 -23.507 -15.772  0.00  0.00    +0.254 C 
ATOM     11  C   UNL     1      34.803 -23.951 -13.398  0.00  0.00    +0.318 C 
ATOM     12  C   UNL     1      37.155 -23.366 -12.796  0.00  0.00    +0.123 C 
ATOM     13  C   UNL     1      32.493 -24.497 -14.078  0.00  0.00    +0.124 C 
ENDROOT
BRANCH   3  14
ATOM     14  C   UNL     1      35.216 -22.294 -18.418  0.00  0.00    +0.052 C 
BRANCH  14  15
ATOM     15  C   UNL     1      35.975 -21.286 -19.277  0.00  0.00    -0.060 C 
BRANCH  15  16
ATOM     16  N   UNL     1      35.046 -20.335 -19.873  0.00  0.00    +0.388 N 
ATOM     17  H   UNL     1      35.042 -19.492 -19.298  0.00  0.00    -0.080 HD
BRANCH  16  18
ATOM     18  C   UNL     1      33.689 -20.886 -19.900  0.00  0.00    -0.077 C 
ATOM     19  C   UNL     1      32.746 -19.987 -20.681  0.00  0.00    -0.025 C 
ENDBRANCH  16  18
BRANCH  16  20
ATOM     20  C   UNL     1      35.472 -19.975 -21.227  0.00  0.00    -0.077 C 
ATOM     21  C   UNL     1      36.185 -18.632 -21.238  0.00  0.00    -0.025 C 
ENDBRANCH  16  20
ENDBRANCH  15  16
ENDBRANCH  14  15
ENDBRANCH   3  14
TORSDOF 5
ENDMDL
MODEL 3
REMARK VINA RESULT:      -7.9      5.678      9.916
REMARK  Name = 28329
REMARK  5 active torsions:
REMARK  status: ('A' for Active; 'I' for Inactive)
REMARK    1  A    between atoms: N_3  and  C_14
REMARK    2  A    between atoms: C_14  and  C_15
REMARK    3  A    between atoms: C_15  and  N_16
REMARK    4  A    between atoms: N_16  and  C_18
REMARK    5  A    between atoms: N_16  and  C_20
REMARK                            x       y       z     vdW  Elec       q    Type
REMARK                         _______ _______ _______ _____ _____    ______ ____
ROOT
ATOM      1  O   UNL     1      37.273 -22.404 -15.584  0.00  0.00    -0.272 OA
ATOM      2  O   UNL     1      34.511 -24.416 -12.368  0.00  0.00    -0.252 OA
ATOM      3  N   UNL     1      34.923 -22.626 -17.422  0.00  0.00    -0.242 NA
ATOM      4  N   UNL     1      33.629 -24.034 -14.487  0.00  0.00    -0.228 N 
ATOM      5  N   UNL     1      35.909 -23.411 -13.957  0.00  0.00    -0.211 N 
ATOM      6  N   UNL     1      32.973 -23.510 -16.800  0.00  0.00    -0.240 NA
ATOM      7  C   UNL     1      35.071 -22.999 -16.116  0.00  0.00    +0.192 C 
ATOM      8  C   UNL     1      33.864 -23.536 -15.761  0.00  0.00    +0.136 C 
ATOM      9  C   UNL     1      33.644 -22.954 -17.788  0.00  0.00    +0.203 C 
ATOM     10  C   UNL     1      36.197 -22.890 -15.245  0.00  0.00    +0.254 C 
ATOM     11  C   UNL     1      34.662 -23.988 -13.518  0.00  0.00    +0.318 C 
ATOM     12  C   UNL     1      32.326 -24.597 -14.156  0.00  0.00    +0.123 C 
ATOM     13  C   UNL     1      36.986 -23.356 -12.973  0.00  0.00    +0.124 C 
ENDROOT
BRANCH   3  14
ATOM     14  C   UNL     1      35.908 -22.006 -18.275  0.00  0.00    +0.052 C 
BRANCH  14  15
ATOM     15  C   UNL     1      35.353 -21.715 -19.667  0.00  0.00    -0.060 C 
BRANCH  15  16
ATOM     16  N   UNL     1      35.339 -20.279 -19.912  0.00  0.00    +0.388 N 
ATOM     17  H   UNL     1      35.158 -19.806 -19.026  0.00  0.00    -0.080 HD
BRANCH  16  18
ATOM     18  C   UNL     1      34.273 -19.927 -20.853  0.00  0.00    -0.077 C 
ATOM     19  C   UNL     1      32.909 -20.314 -20.309  0.00  0.00    -0.025 C 
ENDBRANCH  16  18
BRANCH  16  20
ATOM     20  C   UNL     1      36.635 -19.828 -20.424  0.00  0.00    -0.077 C 
ATOM     21  C   UNL     1      36.464 -18.718 -21.448  0.00  0.00    -0.025 C 
ENDBRANCH  16  20
ENDBRANCH  15  16
ENDBRANCH  14  15
ENDBRANCH   3  14
TORSDOF 5
ENDMDL
MODEL 4
REMARK VINA RESULT:      -7.8      1.167      1.947
REMARK  Name = 28329
REMARK  5 active torsions:
REMARK  status: ('A' for Active; 'I' for Inactive)
REMARK    1  A    between atoms: N_3  and  C_14
REMARK    2  A    between atoms: C_14  and  C_15
REMARK    3  A    between atoms: C_15  and  N_16
REMARK    4  A    between atoms: N_16  and  C_18
REMARK    5  A    between atoms: N_16  and  C_20
REMARK                            x       y       z     vdW  Elec       q    Type
REMARK                         _______ _______ _______ _____ _____    ______ ____
ROOT
ATOM      1  O   UNL     1      34.873 -16.310 -20.361  0.00  0.00    -0.272 OA
ATOM      2  O   UNL     1      32.925 -13.623 -23.677  0.00  0.00    -0.252 OA
ATOM      3  N   UNL     1      35.438 -18.246 -22.570  0.00  0.00    -0.242 NA
ATOM      4  N   UNL     1      33.831 -15.668 -24.315  0.00  0.00    -0.228 N 
ATOM      5  N   UNL     1      33.892 -14.947 -22.004  0.00  0.00    -0.211 N 
ATOM      6  N   UNL     1      34.863 -17.870 -24.691  0.00  0.00    -0.240 NA
ATOM      7  C   UNL     1      34.825 -17.026 -22.590  0.00  0.00    +0.192 C 
ATOM      8  C   UNL     1      34.483 -16.821 -23.899  0.00  0.00    +0.136 C 
ATOM      9  C   UNL     1      35.437 -18.714 -23.858  0.00  0.00    +0.203 C 
ATOM     10  C   UNL     1      34.558 -16.107 -21.530  0.00  0.00    +0.254 C 
ATOM     11  C   UNL     1      33.505 -14.669 -23.365  0.00  0.00    +0.318 C 
ATOM     12  C   UNL     1      33.488 -15.496 -25.721  0.00  0.00    +0.123 C 
ATOM     13  C   UNL     1      33.563 -13.930 -21.010  0.00  0.00    +0.124 C 
ENDROOT
BRANCH   3  14
ATOM     14  C   UNL     1      35.989 -18.934 -21.427  0.00  0.00    +0.052 C 
BRANCH  14  15
ATOM     15  C   UNL     1      34.931 -19.749 -20.689  0.00  0.00    -0.060 C 
BRANCH  15  16
ATOM     16  N   UNL     1      35.470 -21.050 -20.315  0.00  0.00    +0.388 N 
ATOM     17  H   UNL     1      35.657 -21.574 -21.170  0.00  0.00    -0.080 HD
BRANCH  16  18
ATOM     18  C   UNL     1      34.500 -21.800 -19.514  0.00  0.00    -0.077 C 
ATOM     19  C   UNL     1      33.129 -21.147 -19.559  0.00  0.00    -0.025 C 
ENDBRANCH  16  18
BRANCH  16  20
ATOM     20  C   UNL     1      36.725 -20.898 -19.577  0.00  0.00    -0.077 C 
ATOM     21  C   UNL     1      36.652 -21.583 -18.222  0.00  0.00    -0.025 C 
ENDBRANCH  16  20
ENDBRANCH  15  16
ENDBRANCH  14  15
ENDBRANCH   3  14
TORSDOF 5
ENDMDL
MODEL 5
REMARK VINA RESULT:      -7.8      2.707      6.710
REMARK  Name = 28329
REMARK  5 active torsions:
REMARK  status: ('A' for Active; 'I' for Inactive)
REMARK    1  A    between atoms: N_3  and  C_14
REMARK    2  A    between atoms: C_14  and  C_15
REMARK    3  A    between atoms: C_15  and  N_16
REMARK    4  A    between atoms: N_16  and  C_18
REMARK    5  A    between atoms: N_16  and  C_20
REMARK                            x       y       z     vdW  Elec       q    Type
REMARK                         _______ _______ _______ _____ _____    ______ ____
ROOT
ATOM      1  O   UNL     1      33.983 -14.195 -21.904  0.00  0.00    -0.272 OA
ATOM      2  O   UNL     1      35.221 -18.686 -22.471  0.00  0.00    -0.252 OA
ATOM      3  N   UNL     1      33.366 -14.224 -24.831  0.00  0.00    -0.242 NA
ATOM      4  N   UNL     1      34.467 -17.512 -24.333  0.00  0.00    -0.228 N 
ATOM      5  N   UNL     1      34.609 -16.446 -22.163  0.00  0.00    -0.211 N 
ATOM      6  N   UNL     1      33.638 -16.029 -26.112  0.00  0.00    -0.240 NA
ATOM      7  C   UNL     1      33.838 -15.209 -24.011  0.00  0.00    +0.192 C 
ATOM      8  C   UNL     1      33.996 -16.300 -24.819  0.00  0.00    +0.136 C 
ATOM      9  C   UNL     1      33.262 -14.766 -26.085  0.00  0.00    +0.203 C 
ATOM     10  C   UNL     1      34.131 -15.187 -22.614  0.00  0.00    +0.254 C 
ATOM     11  C   UNL     1      34.797 -17.632 -22.960  0.00  0.00    +0.318 C 
ATOM     12  C   UNL     1      34.618 -18.647 -25.234  0.00  0.00    +0.123 C 
ATOM     13  C   UNL     1      34.944 -16.549 -20.746  0.00  0.00    +0.124 C 
ENDROOT
BRANCH   3  14
ATOM     14  C   UNL     1      33.033 -12.866 -24.473  0.00  0.00    +0.052 C 
BRANCH  14  15
ATOM     15  C   UNL     1      33.960 -11.856 -25.143  0.00  0.00    -0.060 C 
BRANCH  15  16
ATOM     16  N   UNL     1      34.390 -10.852 -24.180  0.00  0.00    +0.388 N 
ATOM     17  H   UNL     1      34.914 -11.322 -23.442  0.00  0.00    -0.080 HD
BRANCH  16  18
ATOM     18  C   UNL     1      33.232 -10.187 -23.576  0.00  0.00    -0.077 C 
ATOM     19  C   UNL     1      33.524  -8.723 -23.296  0.00  0.00    -0.025 C 
ENDBRANCH  16  18
BRANCH  16  20
ATOM     20  C   UNL     1      35.264  -9.865 -24.817  0.00  0.00    -0.077 C 
ATOM     21  C   UNL     1      35.673 -10.313 -26.210  0.00  0.00    -0.025 C 
ENDBRANCH  16  20
ENDBRANCH  15  16
ENDBRANCH  14  15
ENDBRANCH   3  14
TORSDOF 5
ENDMDL
MODEL 6
REMARK VINA RESULT:      -7.7      1.353      2.667
REMARK  Name = 28329
REMARK  5 active torsions:
REMARK  status: ('A' for Active; 'I' for Inactive)
REMARK    1  A    between atoms: N_3  and  C_14
REMARK    2  A    between atoms: C_14  and  C_15
REMARK    3  A    between atoms: C_15  and  N_16
REMARK    4  A    between atoms: N_16  and  C_18
REMARK    5  A    between atoms: N_16  and  C_20
REMARK                            x       y       z     vdW  Elec       q    Type
REMARK                         _______ _______ _______ _____ _____    ______ ____
ROOT
ATOM      1  O   UNL     1      34.956 -17.207 -24.807  0.00  0.00    -0.272 OA
ATOM      2  O   UNL     1      32.235 -13.394 -24.541  0.00  0.00    -0.252 OA
ATOM      3  N   UNL     1      35.123 -17.027 -21.826  0.00  0.00    -0.242 NA
ATOM      4  N   UNL     1      33.073 -14.283 -22.561  0.00  0.00    -0.228 N 
ATOM      5  N   UNL     1      33.591 -15.297 -24.699  0.00  0.00    -0.211 N 
ATOM      6  N   UNL     1      34.096 -15.439 -20.645  0.00  0.00    -0.240 NA
ATOM      7  C   UNL     1      34.466 -16.242 -22.730  0.00  0.00    +0.192 C 
ATOM      8  C   UNL     1      33.848 -15.279 -21.982  0.00  0.00    +0.136 C 
ATOM      9  C   UNL     1      34.870 -16.504 -20.585  0.00  0.00    +0.203 C 
ATOM     10  C   UNL     1      34.392 -16.334 -24.153  0.00  0.00    +0.254 C 
ATOM     11  C   UNL     1      32.912 -14.255 -23.969  0.00  0.00    +0.318 C 
ATOM     12  C   UNL     1      32.433 -13.279 -21.721  0.00  0.00    +0.123 C 
ATOM     13  C   UNL     1      33.439 -15.284 -26.151  0.00  0.00    +0.124 C 
ENDROOT
BRANCH   3  14
ATOM     14  C   UNL     1      35.935 -18.189 -22.098  0.00  0.00    +0.052 C 
BRANCH  14  15
ATOM     15  C   UNL     1      35.163 -19.487 -21.880  0.00  0.00    -0.060 C 
BRANCH  15  16
ATOM     16  N   UNL     1      35.195 -19.860 -20.471  0.00  0.00    +0.388 N 
ATOM     17  H   UNL     1      35.184 -19.005 -19.915  0.00  0.00    -0.080 HD
BRANCH  16  18
ATOM     18  C   UNL     1      36.419 -20.601 -20.162  0.00  0.00    -0.077 C 
ATOM     19  C   UNL     1      36.217 -21.524 -18.972  0.00  0.00    -0.025 C 
ENDBRANCH  16  18
BRANCH  16  20
ATOM     20  C   UNL     1      34.018 -20.658 -20.121  0.00  0.00    -0.077 C 
ATOM     21  C   UNL     1      32.734 -19.942 -20.507  0.00  0.00    -0.025 C 
ENDBRANCH  16  20
ENDBRANCH  15  16
ENDBRANCH  14  15
ENDBRANCH   3  14
TORSDOF 5
ENDMDL
MODEL 7
REMARK VINA RESULT:      -7.6      8.539     11.342
REMARK  Name = 28329
REMARK  5 active torsions:
REMARK  status: ('A' for Active; 'I' for Inactive)
REMARK    1  A    between atoms: N_3  and  C_14
REMARK    2  A    between atoms: C_14  and  C_15
REMARK    3  A    between atoms: C_15  and  N_16
REMARK    4  A    between atoms: N_16  and  C_18
REMARK    5  A    between atoms: N_16  and  C_20
REMARK                            x       y       z     vdW  Elec       q    Type
REMARK                         _______ _______ _______ _____ _____    ______ ____
ROOT
ATOM      1  O   UNL     1      36.111 -23.154 -16.520  0.00  0.00    -0.272 OA
ATOM      2  O   UNL     1      31.423 -23.203 -16.717  0.00  0.00    -0.252 OA
ATOM      3  N   UNL     1      35.777 -23.825 -13.624  0.00  0.00    -0.242 NA
ATOM      4  N   UNL     1      32.439 -23.652 -14.673  0.00  0.00    -0.228 N 
ATOM      5  N   UNL     1      33.764 -23.172 -16.643  0.00  0.00    -0.211 N 
ATOM      6  N   UNL     1      33.784 -24.088 -12.659  0.00  0.00    -0.240 NA
ATOM      7  C   UNL     1      34.848 -23.620 -14.603  0.00  0.00    +0.192 C 
ATOM      8  C   UNL     1      33.638 -23.786 -13.986  0.00  0.00    +0.136 C 
ATOM      9  C   UNL     1      35.088 -24.104 -12.472  0.00  0.00    +0.203 C 
ATOM     10  C   UNL     1      35.015 -23.299 -15.984  0.00  0.00    +0.254 C 
ATOM     11  C   UNL     1      32.458 -23.335 -16.054  0.00  0.00    +0.318 C 
ATOM     12  C   UNL     1      31.176 -23.838 -13.972  0.00  0.00    +0.123 C 
ATOM     13  C   UNL     1      33.804 -22.844 -18.065  0.00  0.00    +0.124 C 
ENDROOT
BRANCH   3  14
ATOM     14  C   UNL     1      37.214 -23.766 -13.750  0.00  0.00    +0.052 C 
BRANCH  14  15
ATOM     15  C   UNL     1      37.908 -24.773 -12.836  0.00  0.00    -0.060 C 
BRANCH  15  16
ATOM     16  N   UNL     1      38.336 -25.936 -13.604  0.00  0.00    +0.388 N 
ATOM     17  H   UNL     1      39.044 -26.431 -13.062  0.00  0.00    -0.080 HD
BRANCH  16  18
ATOM     18  C   UNL     1      38.928 -25.523 -14.878  0.00  0.00    -0.077 C 
ATOM     19  C   UNL     1      40.442 -25.448 -14.781  0.00  0.00    -0.025 C 
ENDBRANCH  16  18
BRANCH  16  20
ATOM     20  C   UNL     1      37.210 -26.842 -13.839  0.00  0.00    -0.077 C 
ATOM     21  C   UNL     1      36.830 -26.874 -15.311  0.00  0.00    -0.025 C 
ENDBRANCH  16  20
ENDBRANCH  15  16
ENDBRANCH  14  15
ENDBRANCH   3  14
TORSDOF 5
ENDMDL
MODEL 8
REMARK VINA RESULT:      -7.4      3.074      4.905
REMARK  Name = 28329
REMARK  5 active torsions:
REMARK  status: ('A' for Active; 'I' for Inactive)
REMARK    1  A    between atoms: N_3  and  C_14
REMARK    2  A    between atoms: C_14  and  C_15
REMARK    3  A    between atoms: C_15  and  N_16
REMARK    4  A    between atoms: N_16  and  C_18
REMARK    5  A    between atoms: N_16  and  C_20
REMARK                            x       y       z     vdW  Elec       q    Type
REMARK                         _______ _______ _______ _____ _____    ______ ____
ROOT
ATOM      1  O   UNL     1      31.889 -13.405 -21.650  0.00  0.00    -0.272 OA
ATOM      2  O   UNL     1      31.695  -8.727 -21.340  0.00  0.00    -0.252 OA
ATOM      3  N   UNL     1      33.517 -12.955 -24.119  0.00  0.00    -0.242 NA
ATOM      4  N   UNL     1      32.866  -9.660 -23.121  0.00  0.00    -0.228 N 
ATOM      5  N   UNL     1      31.778 -11.064 -21.474  0.00  0.00    -0.211 N 
ATOM      6  N   UNL     1      34.026 -10.924 -24.885  0.00  0.00    -0.240 NA
ATOM      7  C   UNL     1      32.949 -12.065 -23.253  0.00  0.00    +0.192 C 
ATOM      8  C   UNL     1      33.275 -10.831 -23.745  0.00  0.00    +0.136 C 
ATOM      9  C   UNL     1      34.154 -12.219 -25.085  0.00  0.00    +0.203 C 
ATOM     10  C   UNL     1      32.172 -12.288 -22.076  0.00  0.00    +0.254 C 
ATOM     11  C   UNL     1      32.088  -9.735 -21.939  0.00  0.00    +0.318 C 
ATOM     12  C   UNL     1      33.239  -8.369 -23.683  0.00  0.00    +0.123 C 
ATOM     13  C   UNL     1      30.975 -11.162 -20.258  0.00  0.00    +0.124 C 
ENDROOT
BRANCH   3  14
ATOM     14  C   UNL     1      33.470 -14.396 -24.055  0.00  0.00    +0.052 C 
BRANCH  14  15
ATOM     15  C   UNL     1      34.544 -14.960 -23.130  0.00  0.00    -0.060 C 
BRANCH  15  16
ATOM     16  N   UNL     1      35.190 -16.109 -23.751  0.00  0.00    +0.388 N 
ATOM     17  H   UNL     1      36.126 -15.827 -24.045  0.00  0.00    -0.080 HD
BRANCH  16  18
ATOM     18  C   UNL     1      34.443 -16.543 -24.934  0.00  0.00    -0.077 C 
ATOM     19  C   UNL     1      34.449 -18.057 -25.062  0.00  0.00    -0.025 C 
ENDBRANCH  16  18
BRANCH  16  20
ATOM     20  C   UNL     1      35.313 -17.212 -22.797  0.00  0.00    -0.077 C 
ATOM     21  C   UNL     1      34.881 -16.783 -21.404  0.00  0.00    -0.025 C 
ENDBRANCH  16  20
ENDBRANCH  15  16
ENDBRANCH  14  15
ENDBRANCH   3  14
TORSDOF 5
ENDMDL
MODEL 9
REMARK VINA RESULT:      -7.4      9.175     11.133
REMARK  Name = 28329
REMARK  5 active torsions:
REMARK  status: ('A' for Active; 'I' for Inactive)
REMARK    1  A    between atoms: N_3  and  C_14
REMARK    2  A    between atoms: C_14  and  C_15
REMARK    3  A    between atoms: C_15  and  N_16
REMARK    4  A    between atoms: N_16  and  C_18
REMARK    5  A    between atoms: N_16  and  C_20
REMARK                            x       y       z     vdW  Elec       q    Type
REMARK                         _______ _______ _______ _____ _____    ______ ____
ROOT
ATOM      1  O   UNL     1      33.211 -24.306 -13.137  0.00  0.00    -0.272 OA
ATOM      2  O   UNL     1      37.766 -23.204 -13.374  0.00  0.00    -0.252 OA
ATOM      3  N   UNL     1      33.112 -23.591 -16.040  0.00  0.00    -0.242 NA
ATOM      4  N   UNL     1      36.487 -23.005 -15.308  0.00  0.00    -0.228 N 
ATOM      5  N   UNL     1      35.494 -23.759 -13.231  0.00  0.00    -0.211 N 
ATOM      6  N   UNL     1      34.895 -22.893 -17.181  0.00  0.00    -0.240 NA
ATOM      7  C   UNL     1      34.152 -23.579 -15.155  0.00  0.00    +0.192 C 
ATOM      8  C   UNL     1      35.230 -23.148 -15.878  0.00  0.00    +0.136 C 
ATOM      9  C   UNL     1      33.609 -23.170 -17.246  0.00  0.00    +0.203 C 
ATOM     10  C   UNL     1      34.191 -23.921 -13.770  0.00  0.00    +0.254 C 
ATOM     11  C   UNL     1      36.670 -23.312 -13.936  0.00  0.00    +0.318 C 
ATOM     12  C   UNL     1      37.605 -22.542 -16.120  0.00  0.00    +0.123 C 
ATOM     13  C   UNL     1      35.662 -24.080 -11.817  0.00  0.00    +0.124 C 
ENDROOT
BRANCH   3  14
ATOM     14  C   UNL     1      31.743 -23.968 -15.782  0.00  0.00    +0.052 C 
BRANCH  14  15
ATOM     15  C   UNL     1      30.823 -22.753 -15.695  0.00  0.00    -0.060 C 
BRANCH  15  16
ATOM     16  N   UNL     1      29.437 -23.180 -15.566  0.00  0.00    +0.388 N 
ATOM     17  H   UNL     1      29.131 -22.984 -14.613  0.00  0.00    -0.080 HD
BRANCH  16  18
ATOM     18  C   UNL     1      29.316 -24.621 -15.805  0.00  0.00    -0.077 C 
ATOM     19  C   UNL     1      28.881 -25.352 -14.547  0.00  0.00    -0.025 C 
ENDBRANCH  16  18
BRANCH  16  20
ATOM     20  C   UNL     1      28.579 -22.440 -16.493  0.00  0.00    -0.077 C 
ATOM     21  C   UNL     1      27.166 -22.309 -15.948  0.00  0.00    -0.025 C 
ENDBRANCH  16  20
ENDBRANCH  15  16
ENDBRANCH  14  15
ENDBRANCH   3  14
TORSDOF 5
ENDMDL
