MODEL 1
REMARK VINA RESULT:      -8.1      0.000      0.000
REMARK  Name = 3242
REMARK  2 active torsions:
REMARK  status: ('A' for Active; 'I' for Inactive)
REMARK    1  A    between atoms: C_5  and  O_14
REMARK    2  A    between atoms: C_11  and  O_16
REMARK                            x       y       z     vdW  Elec       q    Type
REMARK                         _______ _______ _______ _____ _____    ______ ____
ROOT
ATOM      1  N   UNL     1      31.033 -22.990 -16.482  0.00  0.00    -0.079 N 
ATOM      2  N   UNL     1      29.916 -22.514 -17.067  0.00  0.00    -0.165 NA
ATOM      3  N   UNL     1      32.273 -22.120 -18.247  0.00  0.00    -0.335 NA
ATOM      4  N   UNL     1      33.339 -23.297 -16.435  0.00  0.00    -0.293 NA
ATOM      5  C   UNL     1      30.793 -23.641 -15.303  0.00  0.00    +0.229 C 
ATOM      6  C   UNL     1      32.270 -22.794 -17.082  0.00  0.00    +0.231 C 
ATOM      7  C   UNL     1      28.946 -22.882 -16.225  0.00  0.00    +0.082 C 
ATOM      8  C   UNL     1      29.434 -23.587 -15.108  0.00  0.00    +0.072 C 
ATOM      9  C   UNL     1      33.491 -21.947 -18.801  0.00  0.00    +0.111 C 
ATOM     10  C   UNL     1      27.547 -22.537 -16.526  0.00  0.00    +0.054 C 
ATOM     11  C   UNL     1      34.524 -23.088 -17.045  0.00  0.00    +0.272 C 
ATOM     12  C   UNL     1      34.662 -22.414 -18.240  0.00  0.00    +0.155 C 
ATOM     13  C   UNL     1      33.540 -21.205 -20.094  0.00  0.00    +0.063 C 
ENDROOT
BRANCH   5  14
ATOM     14  O   UNL     1      31.765 -24.179 -14.580  0.00  0.00    -0.457 OA
ATOM     15  C   UNL     1      31.406 -25.100 -13.529  0.00  0.00    +0.254 C 
ENDBRANCH   5  14
BRANCH  11  16
ATOM     16  O   UNL     1      35.640 -23.583 -16.423  0.00  0.00    -0.450 OA
ATOM     17  C   UNL     1      36.694 -22.661 -16.170  0.00  0.00    +0.255 C 
ENDBRANCH  11  16
TORSDOF 2
ENDMDL
MODEL 2
REMARK VINA RESULT:      -8.0      3.391      6.397
REMARK  Name = 3242
REMARK  2 active torsions:
REMARK  status: ('A' for Active; 'I' for Inactive)
REMARK    1  A    between atoms: C_5  and  O_14
REMARK    2  A    between atoms: C_11  and  O_16
REMARK                            x       y       z     vdW  Elec       q    Type
REMARK                         _______ _______ _______ _____ _____    ______ ____
ROOT
ATOM      1  N   UNL     1      36.349 -24.785 -14.111  0.00  0.00    -0.079 N 
ATOM      2  N   UNL     1      37.389 -24.858 -14.965  0.00  0.00    -0.165 NA
ATOM      3  N   UNL     1      35.043 -23.946 -15.843  0.00  0.00    -0.335 NA
ATOM      4  N   UNL     1      34.129 -24.272 -13.638  0.00  0.00    -0.293 NA
ATOM      5  C   UNL     1      36.654 -25.212 -12.847  0.00  0.00    +0.229 C 
ATOM      6  C   UNL     1      35.119 -24.313 -14.550  0.00  0.00    +0.231 C 
ATOM      7  C   UNL     1      38.375 -25.346 -14.209  0.00  0.00    +0.082 C 
ATOM      8  C   UNL     1      37.975 -25.585 -12.880  0.00  0.00    +0.072 C 
ATOM      9  C   UNL     1      33.834 -23.493 -16.236  0.00  0.00    +0.111 C 
ATOM     10  C   UNL     1      39.705 -25.572 -14.799  0.00  0.00    +0.054 C 
ATOM     11  C   UNL     1      32.949 -23.809 -14.098  0.00  0.00    +0.272 C 
ATOM     12  C   UNL     1      32.741 -23.401 -15.399  0.00  0.00    +0.155 C 
ATOM     13  C   UNL     1      33.706 -23.075 -17.662  0.00  0.00    +0.063 C 
ENDROOT
BRANCH   5  14
ATOM     14  O   UNL     1      35.762 -25.215 -11.866  0.00  0.00    -0.457 OA
ATOM     15  C   UNL     1      35.916 -24.255 -10.799  0.00  0.00    +0.254 C 
ENDBRANCH   5  14
BRANCH  11  16
ATOM     16  O   UNL     1      31.912 -23.749 -13.205  0.00  0.00    -0.450 OA
ATOM     17  C   UNL     1      30.745 -24.497 -13.526  0.00  0.00    +0.255 C 
ENDBRANCH  11  16
TORSDOF 2
ENDMDL
MODEL 3
REMARK VINA RESULT:      -7.9      0.905      4.738
REMARK  Name = 3242
REMARK  2 active torsions:
REMARK  status: ('A' for Active; 'I' for Inactive)
REMARK    1  A    between atoms: C_5  and  O_14
REMARK    2  A    between atoms: C_11  and  O_16
REMARK                            x       y       z     vdW  Elec       q    Type
REMARK                         _______ _______ _______ _____ _____    ______ ____
ROOT
ATOM      1  N   UNL     1      32.649 -22.532 -17.713  0.00  0.00    -0.079 N 
ATOM      2  N   UNL     1      32.360 -21.687 -18.722  0.00  0.00    -0.165 NA
ATOM      3  N   UNL     1      30.410 -22.474 -17.085  0.00  0.00    -0.335 NA
ATOM      4  N   UNL     1      32.013 -23.799 -15.868  0.00  0.00    -0.293 NA
ATOM      5  C   UNL     1      33.969 -22.890 -17.665  0.00  0.00    +0.229 C 
ATOM      6  C   UNL     1      31.646 -22.953 -16.850  0.00  0.00    +0.231 C 
ATOM      7  C   UNL     1      33.539 -21.511 -19.324  0.00  0.00    +0.082 C 
ATOM      8  C   UNL     1      34.578 -22.236 -18.708  0.00  0.00    +0.072 C 
ATOM      9  C   UNL     1      29.460 -22.904 -16.228  0.00  0.00    +0.111 C 
ATOM     10  C   UNL     1      33.636 -20.630 -20.499  0.00  0.00    +0.054 C 
ATOM     11  C   UNL     1      31.014 -24.188 -15.048  0.00  0.00    +0.272 C 
ATOM     12  C   UNL     1      29.707 -23.769 -15.182  0.00  0.00    +0.155 C 
ATOM     13  C   UNL     1      28.076 -22.397 -16.452  0.00  0.00    +0.063 C 
ENDROOT
BRANCH   5  14
ATOM     14  O   UNL     1      34.446 -23.714 -16.743  0.00  0.00    -0.457 OA
ATOM     15  C   UNL     1      35.430 -23.207 -15.817  0.00  0.00    +0.254 C 
ENDBRANCH   5  14
BRANCH  11  16
ATOM     16  O   UNL     1      31.340 -25.049 -14.034  0.00  0.00    -0.450 OA
ATOM     17  C   UNL     1      32.663 -24.959 -13.517  0.00  0.00    +0.255 C 
ENDBRANCH  11  16
TORSDOF 2
ENDMDL
MODEL 4
REMARK VINA RESULT:      -7.9      3.126      5.153
REMARK  Name = 3242
REMARK  2 active torsions:
REMARK  status: ('A' for Active; 'I' for Inactive)
REMARK    1  A    between atoms: C_5  and  O_14
REMARK    2  A    between atoms: C_11  and  O_16
REMARK                            x       y       z     vdW  Elec       q    Type
REMARK                         _______ _______ _______ _____ _____    ______ ____
ROOT
ATOM      1  N   UNL     1      34.679 -23.887 -15.508  0.00  0.00    -0.079 N 
ATOM      2  N   UNL     1      34.918 -23.539 -16.789  0.00  0.00    -0.165 NA
ATOM      3  N   UNL     1      36.931 -24.421 -15.281  0.00  0.00    -0.335 NA
ATOM      4  N   UNL     1      35.397 -24.673 -13.440  0.00  0.00    -0.293 NA
ATOM      5  C   UNL     1      33.371 -23.730 -15.139  0.00  0.00    +0.229 C 
ATOM      6  C   UNL     1      35.715 -24.348 -14.708  0.00  0.00    +0.231 C 
ATOM      7  C   UNL     1      33.719 -23.154 -17.232  0.00  0.00    +0.082 C 
ATOM      8  C   UNL     1      32.717 -23.252 -16.248  0.00  0.00    +0.072 C 
ATOM      9  C   UNL     1      37.914 -24.872 -14.474  0.00  0.00    +0.111 C 
ATOM     10  C   UNL     1      33.567 -22.694 -18.622  0.00  0.00    +0.054 C 
ATOM     11  C   UNL     1      36.427 -25.116 -12.690  0.00  0.00    +0.272 C 
ATOM     12  C   UNL     1      37.719 -25.238 -13.159  0.00  0.00    +0.155 C 
ATOM     13  C   UNL     1      39.278 -24.969 -15.070  0.00  0.00    +0.063 C 
ENDROOT
BRANCH   5  14
ATOM     14  O   UNL     1      32.940 -24.019 -13.919  0.00  0.00    -0.457 OA
ATOM     15  C   UNL     1      31.845 -24.950 -13.783  0.00  0.00    +0.254 C 
ENDBRANCH   5  14
BRANCH  11  16
ATOM     16  O   UNL     1      36.151 -25.459 -11.393  0.00  0.00    -0.450 OA
ATOM     17  C   UNL     1      35.668 -24.424 -10.545  0.00  0.00    +0.255 C 
ENDBRANCH  11  16
TORSDOF 2
ENDMDL
MODEL 5
REMARK VINA RESULT:      -7.8      1.416      1.646
REMARK  Name = 3242
REMARK  2 active torsions:
REMARK  status: ('A' for Active; 'I' for Inactive)
REMARK    1  A    between atoms: C_5  and  O_14
REMARK    2  A    between atoms: C_11  and  O_16
REMARK                            x       y       z     vdW  Elec       q    Type
REMARK                         _______ _______ _______ _____ _____    ______ ____
ROOT
ATOM      1  N   UNL     1      32.201 -23.021 -16.844  0.00  0.00    -0.079 N 
ATOM      2  N   UNL     1      30.880 -22.843 -17.045  0.00  0.00    -0.165 NA
ATOM      3  N   UNL     1      32.615 -21.770 -18.760  0.00  0.00    -0.335 NA
ATOM      4  N   UNL     1      34.421 -22.691 -17.457  0.00  0.00    -0.293 NA
ATOM      5  C   UNL     1      32.485 -23.765 -15.730  0.00  0.00    +0.229 C 
ATOM      6  C   UNL     1      33.120 -22.470 -17.727  0.00  0.00    +0.231 C 
ATOM      7  C   UNL     1      30.322 -23.497 -16.023  0.00  0.00    +0.082 C 
ATOM      8  C   UNL     1      31.273 -24.091 -15.172  0.00  0.00    +0.072 C 
ATOM      9  C   UNL     1      33.537 -21.248 -19.597  0.00  0.00    +0.111 C 
ATOM     10  C   UNL     1      28.856 -23.533 -15.893  0.00  0.00    +0.054 C 
ATOM     11  C   UNL     1      35.286 -22.141 -18.334  0.00  0.00    +0.272 C 
ATOM     12  C   UNL     1      34.897 -21.403 -19.432  0.00  0.00    +0.155 C 
ATOM     13  C   UNL     1      33.021 -20.465 -20.757  0.00  0.00    +0.063 C 
ENDROOT
BRANCH   5  14
ATOM     14  O   UNL     1      33.727 -24.048 -15.366  0.00  0.00    -0.457 OA
ATOM     15  C   UNL     1      34.029 -24.109 -13.956  0.00  0.00    +0.254 C 
ENDBRANCH   5  14
BRANCH  11  16
ATOM     16  O   UNL     1      36.621 -22.339 -18.100  0.00  0.00    -0.450 OA
ATOM     17  C   UNL     1      37.123 -21.908 -16.840  0.00  0.00    +0.255 C 
ENDBRANCH  11  16
TORSDOF 2
ENDMDL
MODEL 6
REMARK VINA RESULT:      -7.7      2.491      5.372
REMARK  Name = 3242
REMARK  2 active torsions:
REMARK  status: ('A' for Active; 'I' for Inactive)
REMARK    1  A    between atoms: C_5  and  O_14
REMARK    2  A    between atoms: C_11  and  O_16
REMARK                            x       y       z     vdW  Elec       q    Type
REMARK                         _______ _______ _______ _____ _____    ______ ____
ROOT
ATOM      1  N   UNL     1      34.597 -23.800 -14.187  0.00  0.00    -0.079 N 
ATOM      2  N   UNL     1      34.333 -23.964 -12.875  0.00  0.00    -0.165 NA
ATOM      3  N   UNL     1      32.331 -23.425 -14.550  0.00  0.00    -0.335 NA
ATOM      4  N   UNL     1      33.912 -23.367 -16.367  0.00  0.00    -0.293 NA
ATOM      5  C   UNL     1      35.924 -23.939 -14.494  0.00  0.00    +0.229 C 
ATOM      6  C   UNL     1      33.567 -23.519 -15.074  0.00  0.00    +0.231 C 
ATOM      7  C   UNL     1      35.534 -24.213 -12.347  0.00  0.00    +0.082 C 
ATOM      8  C   UNL     1      36.562 -24.210 -13.309  0.00  0.00    +0.072 C 
ATOM      9  C   UNL     1      31.355 -23.150 -15.441  0.00  0.00    +0.111 C 
ATOM     10  C   UNL     1      35.660 -24.453 -10.900  0.00  0.00    +0.054 C 
ATOM     11  C   UNL     1      32.888 -23.095 -17.202  0.00  0.00    +0.272 C 
ATOM     12  C   UNL     1      31.577 -22.973 -16.791  0.00  0.00    +0.155 C 
ATOM     13  C   UNL     1      29.968 -23.037 -14.902  0.00  0.00    +0.063 C 
ENDROOT
BRANCH   5  14
ATOM     14  O   UNL     1      36.380 -23.813 -15.732  0.00  0.00    -0.457 OA
ATOM     15  C   UNL     1      37.364 -22.791 -15.998  0.00  0.00    +0.254 C 
ENDBRANCH   5  14
BRANCH  11  16
ATOM     16  O   UNL     1      33.191 -22.932 -18.528  0.00  0.00    -0.450 OA
ATOM     17  C   UNL     1      34.426 -22.294 -18.830  0.00  0.00    +0.255 C 
ENDBRANCH  11  16
TORSDOF 2
ENDMDL
MODEL 7
REMARK VINA RESULT:      -7.7      9.265     10.966
REMARK  Name = 3242
REMARK  2 active torsions:
REMARK  status: ('A' for Active; 'I' for Inactive)
REMARK    1  A    between atoms: C_5  and  O_14
REMARK    2  A    between atoms: C_11  and  O_16
REMARK                            x       y       z     vdW  Elec       q    Type
REMARK                         _______ _______ _______ _____ _____    ______ ____
ROOT
ATOM      1  N   UNL     1      32.844 -14.205 -22.547  0.00  0.00    -0.079 N 
ATOM      2  N   UNL     1      32.317 -12.994 -22.278  0.00  0.00    -0.165 NA
ATOM      3  N   UNL     1      32.823 -13.661 -24.808  0.00  0.00    -0.335 NA
ATOM      4  N   UNL     1      33.642 -15.795 -24.046  0.00  0.00    -0.293 NA
ATOM      5  C   UNL     1      33.058 -14.964 -21.429  0.00  0.00    +0.229 C 
ATOM      6  C   UNL     1      33.115 -14.570 -23.859  0.00  0.00    +0.231 C 
ATOM      7  C   UNL     1      32.198 -12.998 -20.948  0.00  0.00    +0.082 C 
ATOM      8  C   UNL     1      32.645 -14.200 -20.365  0.00  0.00    +0.072 C 
ATOM      9  C   UNL     1      33.101 -14.049 -26.071  0.00  0.00    +0.111 C 
ATOM     10  C   UNL     1      31.646 -11.819 -20.260  0.00  0.00    +0.054 C 
ATOM     11  C   UNL     1      33.893 -16.117 -25.332  0.00  0.00    +0.272 C 
ATOM     12  C   UNL     1      33.640 -15.276 -26.395  0.00  0.00    +0.155 C 
ATOM     13  C   UNL     1      32.793 -13.071 -27.155  0.00  0.00    +0.063 C 
ENDROOT
BRANCH   5  14
ATOM     14  O   UNL     1      33.570 -16.185 -21.490  0.00  0.00    -0.457 OA
ATOM     15  C   UNL     1      34.831 -16.431 -20.833  0.00  0.00    +0.254 C 
ENDBRANCH   5  14
BRANCH  11  16
ATOM     16  O   UNL     1      34.430 -17.355 -25.571  0.00  0.00    -0.450 OA
ATOM     17  C   UNL     1      34.770 -18.137 -24.432  0.00  0.00    +0.255 C 
ENDBRANCH  11  16
TORSDOF 2
ENDMDL
MODEL 8
REMARK VINA RESULT:      -7.6      2.475      4.857
REMARK  Name = 3242
REMARK  2 active torsions:
REMARK  status: ('A' for Active; 'I' for Inactive)
REMARK    1  A    between atoms: C_5  and  O_14
REMARK    2  A    between atoms: C_11  and  O_16
REMARK                            x       y       z     vdW  Elec       q    Type
REMARK                         _______ _______ _______ _____ _____    ______ ____
ROOT
ATOM      1  N   UNL     1      33.970 -23.390 -15.871  0.00  0.00    -0.079 N 
ATOM      2  N   UNL     1      32.723 -23.449 -15.365  0.00  0.00    -0.165 NA
ATOM      3  N   UNL     1      34.797 -23.994 -13.783  0.00  0.00    -0.335 NA
ATOM      4  N   UNL     1      36.276 -23.593 -15.642  0.00  0.00    -0.293 NA
ATOM      5  C   UNL     1      34.003 -23.043 -17.195  0.00  0.00    +0.229 C 
ATOM      6  C   UNL     1      35.063 -23.672 -15.063  0.00  0.00    +0.231 C 
ATOM      7  C   UNL     1      31.951 -23.127 -16.406  0.00  0.00    +0.082 C 
ATOM      8  C   UNL     1      32.695 -22.863 -17.573  0.00  0.00    +0.072 C 
ATOM      9  C   UNL     1      35.882 -24.262 -13.027  0.00  0.00    +0.111 C 
ATOM     10  C   UNL     1      30.489 -23.080 -16.246  0.00  0.00    +0.054 C 
ATOM     11  C   UNL     1      37.316 -23.872 -14.829  0.00  0.00    +0.272 C 
ATOM     12  C   UNL     1      37.177 -24.216 -13.500  0.00  0.00    +0.155 C 
ATOM     13  C   UNL     1      35.633 -24.625 -11.601  0.00  0.00    +0.063 C 
ENDROOT
BRANCH   5  14
ATOM     14  O   UNL     1      35.138 -22.932 -17.870  0.00  0.00    -0.457 OA
ATOM     15  C   UNL     1      35.206 -21.966 -18.940  0.00  0.00    +0.254 C 
ENDBRANCH   5  14
BRANCH  11  16
ATOM     16  O   UNL     1      38.570 -23.805 -15.375  0.00  0.00    -0.450 OA
ATOM     17  C   UNL     1      39.466 -24.864 -15.056  0.00  0.00    +0.255 C 
ENDBRANCH  11  16
TORSDOF 2
ENDMDL
MODEL 9
REMARK VINA RESULT:      -7.6      2.392      5.389
REMARK  Name = 3242
REMARK  2 active torsions:
REMARK  status: ('A' for Active; 'I' for Inactive)
REMARK    1  A    between atoms: C_5  and  O_14
REMARK    2  A    between atoms: C_11  and  O_16
REMARK                            x       y       z     vdW  Elec       q    Type
REMARK                         _______ _______ _______ _____ _____    ______ ____
ROOT
ATOM      1  N   UNL     1      34.567 -22.952 -16.730  0.00  0.00    -0.079 N 
ATOM      2  N   UNL     1      35.618 -22.394 -17.363  0.00  0.00    -0.165 NA
ATOM      3  N   UNL     1      35.878 -23.147 -14.819  0.00  0.00    -0.335 NA
ATOM      4  N   UNL     1      33.589 -23.898 -14.843  0.00  0.00    -0.293 NA
ATOM      5  C   UNL     1      33.454 -23.060 -17.520  0.00  0.00    +0.229 C 
ATOM      6  C   UNL     1      34.684 -23.350 -15.405  0.00  0.00    +0.231 C 
ATOM      7  C   UNL     1      35.146 -22.146 -18.587  0.00  0.00    +0.082 C 
ATOM      8  C   UNL     1      33.803 -22.541 -18.742  0.00  0.00    +0.072 C 
ATOM      9  C   UNL     1      35.956 -23.544 -13.532  0.00  0.00    +0.111 C 
ATOM     10  C   UNL     1      36.019 -21.524 -19.595  0.00  0.00    +0.054 C 
ATOM     11  C   UNL     1      33.737 -24.273 -13.556  0.00  0.00    +0.272 C 
ATOM     12  C   UNL     1      34.908 -24.119 -12.843  0.00  0.00    +0.155 C 
ATOM     13  C   UNL     1      37.263 -23.337 -12.844  0.00  0.00    +0.063 C 
ENDROOT
BRANCH   5  14
ATOM     14  O   UNL     1      32.320 -23.584 -17.076  0.00  0.00    -0.457 OA
ATOM     15  C   UNL     1      31.217 -22.695 -16.804  0.00  0.00    +0.254 C 
ENDBRANCH   5  14
BRANCH  11  16
ATOM     16  O   UNL     1      32.649 -24.836 -12.942  0.00  0.00    -0.450 OA
ATOM     17  C   UNL     1      31.484 -25.014 -13.739  0.00  0.00    +0.255 C 
ENDBRANCH  11  16
TORSDOF 2
ENDMDL
