MODEL 1
REMARK VINA RESULT:      -7.0      0.000      0.000
REMARK  Name = 675
REMARK  0 active torsions:
REMARK  status: ('A' for Active; 'I' for Inactive)
REMARK                            x       y       z     vdW  Elec       q    Type
REMARK                         _______ _______ _______ _____ _____    ______ ____
ROOT
ATOM      1  N   UNL     1      32.690 -22.100 -18.888  0.00  0.00    -0.315 N 
ATOM      2  N   UNL     1      34.698 -22.687 -18.138  0.00  0.00    -0.315 N 
ATOM      3  C   UNL     1      33.579 -21.293 -19.552  0.00  0.00    +0.059 C 
ATOM      4  C   UNL     1      34.562 -19.663 -20.977  0.00  0.00    -0.024 C 
ATOM      5  C   UNL     1      35.827 -20.028 -20.510  0.00  0.00    -0.024 C 
ATOM      6  C   UNL     1      34.825 -21.680 -19.067  0.00  0.00    +0.059 C 
ATOM      7  C   UNL     1      33.405 -20.291 -20.506  0.00  0.00    +0.011 C 
ATOM      8  C   UNL     1      35.977 -21.038 -19.551  0.00  0.00    +0.011 C 
ATOM      9  C   UNL     1      34.415 -18.582 -22.001  0.00  0.00    +0.031 C 
ATOM     10  C   UNL     1      37.054 -19.347 -21.024  0.00  0.00    +0.031 C 
ATOM     11  C   UNL     1      33.406 -22.914 -18.055  0.00  0.00    +0.182 C 
ATOM     12  H   UNL     1      31.710 -22.093 -18.992  0.00  0.00    +0.148 HD
ATOM     13  H   UNL     1      35.419 -23.140 -17.644  0.00  0.00    +0.148 HD
ENDROOT
TORSDOF 0
ENDMDL
MODEL 2
REMARK VINA RESULT:      -7.0      0.060      2.150
REMARK  Name = 675
REMARK  0 active torsions:
REMARK  status: ('A' for Active; 'I' for Inactive)
REMARK                            x       y       z     vdW  Elec       q    Type
REMARK                         _______ _______ _______ _____ _____    ______ ____
ROOT
ATOM      1  N   UNL     1      34.725 -22.666 -18.185  0.00  0.00    -0.315 N 
ATOM      2  N   UNL     1      32.679 -22.107 -18.852  0.00  0.00    -0.315 N 
ATOM      3  C   UNL     1      34.900 -21.654 -19.095  0.00  0.00    +0.059 C 
ATOM      4  C   UNL     1      35.842 -20.005 -20.527  0.00  0.00    -0.024 C 
ATOM      5  C   UNL     1      34.558 -19.650 -20.950  0.00  0.00    -0.024 C 
ATOM      6  C   UNL     1      33.609 -21.323 -19.496  0.00  0.00    +0.059 C 
ATOM      7  C   UNL     1      36.041 -21.020 -19.585  0.00  0.00    +0.011 C 
ATOM      8  C   UNL     1      33.427 -20.301 -20.443  0.00  0.00    +0.011 C 
ATOM      9  C   UNL     1      37.043 -19.302 -21.076  0.00  0.00    +0.031 C 
ATOM     10  C   UNL     1      34.362 -18.563 -21.957  0.00  0.00    +0.031 C 
ATOM     11  C   UNL     1      33.382 -22.900 -18.074  0.00  0.00    +0.182 C 
ATOM     12  H   UNL     1      35.439 -23.139 -17.699  0.00  0.00    +0.148 HD
ATOM     13  H   UNL     1      31.701 -22.080 -18.952  0.00  0.00    +0.148 HD
ENDROOT
TORSDOF 0
ENDMDL
MODEL 3
REMARK VINA RESULT:      -6.9      2.765      4.190
REMARK  Name = 675
REMARK  0 active torsions:
REMARK  status: ('A' for Active; 'I' for Inactive)
REMARK                            x       y       z     vdW  Elec       q    Type
REMARK                         _______ _______ _______ _____ _____    ______ ____
ROOT
ATOM      1  N   UNL     1      34.249 -17.957 -22.587  0.00  0.00    -0.315 N 
ATOM      2  N   UNL     1      36.454 -18.041 -22.315  0.00  0.00    -0.315 N 
ATOM      3  C   UNL     1      34.465 -18.939 -21.655  0.00  0.00    +0.059 C 
ATOM      4  C   UNL     1      34.179 -20.681 -20.061  0.00  0.00    -0.024 C 
ATOM      5  C   UNL     1      35.564 -20.739 -19.886  0.00  0.00    -0.024 C 
ATOM      6  C   UNL     1      35.849 -18.972 -21.502  0.00  0.00    +0.059 C 
ATOM      7  C   UNL     1      33.597 -19.776 -20.954  0.00  0.00    +0.011 C 
ATOM      8  C   UNL     1      36.417 -19.888 -20.601  0.00  0.00    +0.011 C 
ATOM      9  C   UNL     1      33.279 -21.595 -19.292  0.00  0.00    +0.031 C 
ATOM     10  C   UNL     1      36.170 -21.712 -18.927  0.00  0.00    +0.031 C 
ATOM     11  C   UNL     1      35.466 -17.450 -22.951  0.00  0.00    +0.182 C 
ATOM     12  H   UNL     1      33.374 -17.667 -22.933  0.00  0.00    +0.148 HD
ATOM     13  H   UNL     1      37.417 -17.856 -22.401  0.00  0.00    +0.148 HD
ENDROOT
TORSDOF 0
ENDMDL
MODEL 4
REMARK VINA RESULT:      -6.9      4.134      5.859
REMARK  Name = 675
REMARK  0 active torsions:
REMARK  status: ('A' for Active; 'I' for Inactive)
REMARK                            x       y       z     vdW  Elec       q    Type
REMARK                         _______ _______ _______ _____ _____    ______ ____
ROOT
ATOM      1  N   UNL     1      36.093 -17.855 -22.911  0.00  0.00    -0.315 N 
ATOM      2  N   UNL     1      35.527 -17.991 -20.765  0.00  0.00    -0.315 N 
ATOM      3  C   UNL     1      35.282 -16.774 -22.677  0.00  0.00    +0.059 C 
ATOM      4  C   UNL     1      33.997 -14.786 -22.914  0.00  0.00    -0.024 C 
ATOM      5  C   UNL     1      33.638 -14.867 -21.566  0.00  0.00    -0.024 C 
ATOM      6  C   UNL     1      34.942 -16.881 -21.331  0.00  0.00    +0.059 C 
ATOM      7  C   UNL     1      34.831 -15.743 -23.501  0.00  0.00    +0.011 C 
ATOM      8  C   UNL     1      34.104 -15.911 -20.757  0.00  0.00    +0.011 C 
ATOM      9  C   UNL     1      33.494 -13.666 -23.767  0.00  0.00    +0.031 C 
ATOM     10  C   UNL     1      32.746 -13.836 -20.953  0.00  0.00    +0.031 C 
ATOM     11  C   UNL     1      36.209 -18.551 -21.740  0.00  0.00    +0.182 C 
ATOM     12  H   UNL     1      36.516 -18.089 -23.769  0.00  0.00    +0.148 HD
ATOM     13  H   UNL     1      35.451 -18.299 -19.834  0.00  0.00    +0.148 HD
ENDROOT
TORSDOF 0
ENDMDL
MODEL 5
REMARK VINA RESULT:      -6.9      4.169      5.935
REMARK  Name = 675
REMARK  0 active torsions:
REMARK  status: ('A' for Active; 'I' for Inactive)
REMARK                            x       y       z     vdW  Elec       q    Type
REMARK                         _______ _______ _______ _____ _____    ______ ____
ROOT
ATOM      1  N   UNL     1      35.469 -17.914 -20.794  0.00  0.00    -0.315 N 
ATOM      2  N   UNL     1      36.087 -17.847 -22.928  0.00  0.00    -0.315 N 
ATOM      3  C   UNL     1      34.865 -16.798 -21.314  0.00  0.00    +0.059 C 
ATOM      4  C   UNL     1      33.590 -14.810 -21.597  0.00  0.00    -0.024 C 
ATOM      5  C   UNL     1      33.975 -14.763 -22.939  0.00  0.00    -0.024 C 
ATOM      6  C   UNL     1      35.266 -16.778 -22.647  0.00  0.00    +0.059 C 
ATOM      7  C   UNL     1      34.029 -15.834 -20.752  0.00  0.00    +0.011 C 
ATOM      8  C   UNL     1      34.816 -15.742 -23.483  0.00  0.00    +0.011 C 
ATOM      9  C   UNL     1      32.692 -13.758 -21.028  0.00  0.00    +0.031 C 
ATOM     10  C   UNL     1      33.497 -13.662 -23.830  0.00  0.00    +0.031 C 
ATOM     11  C   UNL     1      36.187 -18.506 -21.796  0.00  0.00    +0.182 C 
ATOM     12  H   UNL     1      35.398 -18.232 -19.864  0.00  0.00    +0.148 HD
ATOM     13  H   UNL     1      36.507 -18.069 -23.790  0.00  0.00    +0.148 HD
ENDROOT
TORSDOF 0
ENDMDL
MODEL 6
REMARK VINA RESULT:      -6.9      2.806      4.718
REMARK  Name = 675
REMARK  0 active torsions:
REMARK  status: ('A' for Active; 'I' for Inactive)
REMARK                            x       y       z     vdW  Elec       q    Type
REMARK                         _______ _______ _______ _____ _____    ______ ____
ROOT
ATOM      1  N   UNL     1      36.477 -17.962 -22.336  0.00  0.00    -0.315 N 
ATOM      2  N   UNL     1      34.288 -17.947 -22.720  0.00  0.00    -0.315 N 
ATOM      3  C   UNL     1      35.954 -18.923 -21.508  0.00  0.00    +0.059 C 
ATOM      4  C   UNL     1      35.683 -20.656 -19.902  0.00  0.00    -0.024 C 
ATOM      5  C   UNL     1      34.306 -20.651 -20.139  0.00  0.00    -0.024 C 
ATOM      6  C   UNL     1      34.586 -18.894 -21.767  0.00  0.00    +0.059 C 
ATOM      7  C   UNL     1      36.541 -19.788 -20.585  0.00  0.00    +0.011 C 
ATOM      8  C   UNL     1      33.739 -19.773 -21.072  0.00  0.00    +0.011 C 
ATOM      9  C   UNL     1      36.277 -21.599 -18.904  0.00  0.00    +0.031 C 
ATOM     10  C   UNL     1      33.403 -21.585 -19.401  0.00  0.00    +0.031 C 
ATOM     11  C   UNL     1      35.444 -17.408 -23.038  0.00  0.00    +0.182 C 
ATOM     12  H   UNL     1      37.428 -17.716 -22.410  0.00  0.00    +0.148 HD
ATOM     13  H   UNL     1      33.402 -17.722 -23.083  0.00  0.00    +0.148 HD
ENDROOT
TORSDOF 0
ENDMDL
MODEL 7
REMARK VINA RESULT:      -6.6      5.883      7.486
REMARK  Name = 675
REMARK  0 active torsions:
REMARK  status: ('A' for Active; 'I' for Inactive)
REMARK                            x       y       z     vdW  Elec       q    Type
REMARK                         _______ _______ _______ _____ _____    ______ ____
ROOT
ATOM      1  N   UNL     1      33.362 -15.211 -26.265  0.00  0.00    -0.315 N 
ATOM      2  N   UNL     1      33.173 -13.811 -24.549  0.00  0.00    -0.315 N 
ATOM      3  C   UNL     1      33.841 -15.898 -25.179  0.00  0.00    +0.059 C 
ATOM      4  C   UNL     1      34.761 -17.562 -23.750  0.00  0.00    -0.024 C 
ATOM      5  C   UNL     1      34.645 -16.686 -22.668  0.00  0.00    -0.024 C 
ATOM      6  C   UNL     1      33.713 -15.003 -24.120  0.00  0.00    +0.059 C 
ATOM      7  C   UNL     1      34.360 -17.184 -25.036  0.00  0.00    +0.011 C 
ATOM      8  C   UNL     1      34.121 -15.398 -22.836  0.00  0.00    +0.011 C 
ATOM      9  C   UNL     1      35.322 -18.935 -23.558  0.00  0.00    +0.031 C 
ATOM     10  C   UNL     1      35.078 -17.105 -21.300  0.00  0.00    +0.031 C 
ATOM     11  C   UNL     1      32.976 -13.971 -25.839  0.00  0.00    +0.182 C 
ATOM     12  H   UNL     1      33.307 -15.550 -27.188  0.00  0.00    +0.148 HD
ATOM     13  H   UNL     1      32.978 -13.013 -24.007  0.00  0.00    +0.148 HD
ENDROOT
TORSDOF 0
ENDMDL
MODEL 8
REMARK VINA RESULT:      -6.6      5.758      7.484
REMARK  Name = 675
REMARK  0 active torsions:
REMARK  status: ('A' for Active; 'I' for Inactive)
REMARK                            x       y       z     vdW  Elec       q    Type
REMARK                         _______ _______ _______ _____ _____    ______ ____
ROOT
ATOM      1  N   UNL     1      33.404 -13.851 -24.439  0.00  0.00    -0.315 N 
ATOM      2  N   UNL     1      33.307 -15.144 -26.244  0.00  0.00    -0.315 N 
ATOM      3  C   UNL     1      33.891 -15.070 -24.042  0.00  0.00    +0.059 C 
ATOM      4  C   UNL     1      34.796 -16.867 -22.774  0.00  0.00    -0.024 C 
ATOM      5  C   UNL     1      34.737 -17.685 -23.905  0.00  0.00    -0.024 C 
ATOM      6  C   UNL     1      33.820 -15.860 -25.186  0.00  0.00    +0.059 C 
ATOM      7  C   UNL     1      34.372 -15.535 -22.818  0.00  0.00    +0.011 C 
ATOM      8  C   UNL     1      34.250 -17.196 -25.124  0.00  0.00    +0.011 C 
ATOM      9  C   UNL     1      35.319 -17.401 -21.478  0.00  0.00    +0.031 C 
ATOM     10  C   UNL     1      35.195 -19.106 -23.841  0.00  0.00    +0.031 C 
ATOM     11  C   UNL     1      33.069 -13.945 -25.761  0.00  0.00    +0.182 C 
ATOM     12  H   UNL     1      33.312 -13.050 -23.873  0.00  0.00    +0.148 HD
ATOM     13  H   UNL     1      33.152 -15.462 -27.162  0.00  0.00    +0.148 HD
ENDROOT
TORSDOF 0
ENDMDL
MODEL 9
REMARK VINA RESULT:      -6.5      4.400      6.362
REMARK  Name = 675
REMARK  0 active torsions:
REMARK  status: ('A' for Active; 'I' for Inactive)
REMARK                            x       y       z     vdW  Elec       q    Type
REMARK                         _______ _______ _______ _____ _____    ______ ____
ROOT
ATOM      1  N   UNL     1      35.406 -17.298 -21.524  0.00  0.00    -0.315 N 
ATOM      2  N   UNL     1      35.812 -18.327 -23.451  0.00  0.00    -0.315 N 
ATOM      3  C   UNL     1      34.771 -16.547 -22.480  0.00  0.00    +0.059 C 
ATOM      4  C   UNL     1      33.504 -14.881 -23.610  0.00  0.00    -0.024 C 
ATOM      5  C   UNL     1      33.756 -15.524 -24.825  0.00  0.00    -0.024 C 
ATOM      6  C   UNL     1      35.039 -17.210 -23.674  0.00  0.00    +0.059 C 
ATOM      7  C   UNL     1      34.008 -15.381 -22.405  0.00  0.00    +0.011 C 
ATOM      8  C   UNL     1      34.524 -16.693 -24.875  0.00  0.00    +0.011 C 
ATOM      9  C   UNL     1      32.681 -13.632 -23.569  0.00  0.00    +0.031 C 
ATOM     10  C   UNL     1      33.209 -14.976 -26.103  0.00  0.00    +0.031 C 
ATOM     11  C   UNL     1      36.013 -18.349 -22.153  0.00  0.00    +0.182 C 
ATOM     12  H   UNL     1      35.421 -17.112 -20.556  0.00  0.00    +0.148 HD
ATOM     13  H   UNL     1      36.142 -18.969 -24.119  0.00  0.00    +0.148 HD
ENDROOT
TORSDOF 0
ENDMDL
