MODEL 1
REMARK VINA RESULT:      -6.1      0.000      0.000
REMARK  Name = 161658
REMARK  10 active torsions:
REMARK  status: ('A' for Active; 'I' for Inactive)
REMARK    1  A    between atoms: C_1  and  O_2
REMARK    2  A    between atoms: C_1  and  C_4
REMARK    3  A    between atoms: C_1  and  C_12
REMARK    4  A    between atoms: C_4  and  O_5
REMARK    5  A    between atoms: C_4  and  C_7
REMARK    6  A    between atoms: C_7  and  O_8
REMARK    7  A    between atoms: C_7  and  C_11
REMARK    8  A    between atoms: C_12  and  O_13
REMARK    9  A    between atoms: C_12  and  C_15
REMARK   10  A    between atoms: C_15  and  O_16
REMARK                            x       y       z     vdW  Elec       q    Type
REMARK                         _______ _______ _______ _____ _____    ______ ____
ROOT
ATOM      1  C   UNL     1      37.733 -25.768 -14.796  0.00  0.00    +0.169 C 
ENDROOT
BRANCH   1   2
ATOM      2  O   UNL     1      38.143 -27.117 -14.548  0.00  0.00    -0.379 OA
ATOM      3  H   UNL     1      39.107 -27.183 -14.636  0.00  0.00    +0.211 HD
ENDBRANCH   1   2
BRANCH   1   4
ATOM      4  C   UNL     1      36.522 -25.417 -13.914  0.00  0.00    +0.174 C 
BRANCH   4   5
ATOM      5  O   UNL     1      35.938 -24.224 -14.450  0.00  0.00    -0.379 OA
ATOM      6  H   UNL     1      35.084 -24.059 -14.018  0.00  0.00    +0.211 HD
ENDBRANCH   4   5
BRANCH   4   7
ATOM      7  C   UNL     1      36.783 -25.236 -12.412  0.00  0.00    +0.205 C 
BRANCH   7   8
ATOM      8  O   UNL     1      37.070 -26.517 -11.861  0.00  0.00    -0.375 OA
ATOM      9  H   UNL     1      38.026 -26.606 -11.730  0.00  0.00    +0.211 HD
ENDBRANCH   7   8
BRANCH   7  11
ATOM     10  O   UNL     1      35.270 -25.019 -10.527  0.00  0.00    -0.286 OA
ATOM     11  C   UNL     1      35.609 -24.658 -11.651  0.00  0.00    +0.239 C 
ENDBRANCH   7  11
ENDBRANCH   4   7
ENDBRANCH   1   4
BRANCH   1  12
ATOM     12  C   UNL     1      38.968 -24.875 -14.610  0.00  0.00    +0.169 C 
BRANCH  12  13
ATOM     13  O   UNL     1      38.941 -23.868 -15.631  0.00  0.00    -0.379 OA
ATOM     14  H   UNL     1      39.052 -24.284 -16.500  0.00  0.00    +0.211 HD
ENDBRANCH  12  13
BRANCH  12  15
ATOM     15  C   UNL     1      40.295 -25.614 -14.746  0.00  0.00    +0.169 C 
BRANCH  15  16
ATOM     16  O   UNL     1      40.487 -25.966 -16.113  0.00  0.00    -0.379 OA
ATOM     17  H   UNL     1      40.139 -26.858 -16.269  0.00  0.00    +0.211 HD
ENDBRANCH  15  16
ENDBRANCH  12  15
ENDBRANCH   1  12
TORSDOF 10
ENDMDL
MODEL 2
REMARK VINA RESULT:      -6.0      0.615      4.764
REMARK  Name = 161658
REMARK  10 active torsions:
REMARK  status: ('A' for Active; 'I' for Inactive)
REMARK    1  A    between atoms: C_1  and  O_2
REMARK    2  A    between atoms: C_1  and  C_4
REMARK    3  A    between atoms: C_1  and  C_12
REMARK    4  A    between atoms: C_4  and  O_5
REMARK    5  A    between atoms: C_4  and  C_7
REMARK    6  A    between atoms: C_7  and  O_8
REMARK    7  A    between atoms: C_7  and  C_11
REMARK    8  A    between atoms: C_12  and  O_13
REMARK    9  A    between atoms: C_12  and  C_15
REMARK   10  A    between atoms: C_15  and  O_16
REMARK                            x       y       z     vdW  Elec       q    Type
REMARK                         _______ _______ _______ _____ _____    ______ ____
ROOT
ATOM      1  C   UNL     1      36.568 -25.501 -14.137  0.00  0.00    +0.169 C 
ENDROOT
BRANCH   1   2
ATOM      2  O   UNL     1      36.045 -24.298 -14.708  0.00  0.00    -0.379 OA
ATOM      3  H   UNL     1      35.087 -24.391 -14.837  0.00  0.00    +0.211 HD
ENDBRANCH   1   2
BRANCH   1   4
ATOM      4  C   UNL     1      37.855 -25.915 -14.872  0.00  0.00    +0.174 C 
BRANCH   4   5
ATOM      5  O   UNL     1      38.155 -27.260 -14.479  0.00  0.00    -0.379 OA
ATOM      6  H   UNL     1      39.116 -27.397 -14.503  0.00  0.00    +0.211 HD
ENDBRANCH   4   5
BRANCH   4   7
ATOM      7  C   UNL     1      39.090 -25.028 -14.667  0.00  0.00    +0.205 C 
BRANCH   7   8
ATOM      8  O   UNL     1      38.951 -23.885 -15.504  0.00  0.00    -0.375 OA
ATOM      9  H   UNL     1      38.602 -23.144 -14.984  0.00  0.00    +0.211 HD
ENDBRANCH   7   8
BRANCH   7  11
ATOM     10  O   UNL     1      41.015 -26.454 -14.274  0.00  0.00    -0.286 OA
ATOM     11  C   UNL     1      40.397 -25.704 -15.025  0.00  0.00    +0.239 C 
ENDBRANCH   7  11
ENDBRANCH   4   7
ENDBRANCH   1   4
BRANCH   1  12
ATOM     12  C   UNL     1      36.717 -25.261 -12.628  0.00  0.00    +0.169 C 
BRANCH  12  13
ATOM     13  O   UNL     1      36.863 -26.539 -11.991  0.00  0.00    -0.379 OA
ATOM     14  H   UNL     1      36.140 -27.123 -12.267  0.00  0.00    +0.211 HD
ENDBRANCH  12  13
BRANCH  12  15
ATOM     15  C   UNL     1      35.515 -24.578 -11.986  0.00  0.00    +0.169 C 
BRANCH  15  16
ATOM     16  O   UNL     1      35.335 -25.102 -10.673  0.00  0.00    -0.379 OA
ATOM     17  H   UNL     1      35.156 -26.054 -10.726  0.00  0.00    +0.211 HD
ENDBRANCH  15  16
ENDBRANCH  12  15
ENDBRANCH   1  12
TORSDOF 10
ENDMDL
MODEL 3
REMARK VINA RESULT:      -5.9      1.352      4.776
REMARK  Name = 161658
REMARK  10 active torsions:
REMARK  status: ('A' for Active; 'I' for Inactive)
REMARK    1  A    between atoms: C_1  and  O_2
REMARK    2  A    between atoms: C_1  and  C_4
REMARK    3  A    between atoms: C_1  and  C_12
REMARK    4  A    between atoms: C_4  and  O_5
REMARK    5  A    between atoms: C_4  and  C_7
REMARK    6  A    between atoms: C_7  and  O_8
REMARK    7  A    between atoms: C_7  and  C_11
REMARK    8  A    between atoms: C_12  and  O_13
REMARK    9  A    between atoms: C_12  and  C_15
REMARK   10  A    between atoms: C_15  and  O_16
REMARK                            x       y       z     vdW  Elec       q    Type
REMARK                         _______ _______ _______ _____ _____    ______ ____
ROOT
ATOM      1  C   UNL     1      37.707 -25.367 -12.446  0.00  0.00    +0.169 C 
ENDROOT
BRANCH   1   2
ATOM      2  O   UNL     1      36.836 -26.413 -12.005  0.00  0.00    -0.379 OA
ATOM      3  H   UNL     1      36.873 -26.478 -11.037  0.00  0.00    +0.211 HD
ENDBRANCH   1   2
BRANCH   1   4
ATOM      4  C   UNL     1      38.049 -25.560 -13.934  0.00  0.00    +0.174 C 
BRANCH   4   5
ATOM      5  O   UNL     1      38.103 -26.972 -14.177  0.00  0.00    -0.379 OA
ATOM      6  H   UNL     1      38.299 -27.435 -13.348  0.00  0.00    +0.211 HD
ENDBRANCH   4   5
BRANCH   4   7
ATOM      7  C   UNL     1      39.336 -24.899 -14.444  0.00  0.00    +0.205 C 
BRANCH   7   8
ATOM      8  O   UNL     1      38.989 -24.054 -15.537  0.00  0.00    -0.375 OA
ATOM      9  H   UNL     1      39.465 -24.342 -16.332  0.00  0.00    +0.211 HD
ENDBRANCH   7   8
BRANCH   7  11
ATOM     10  O   UNL     1      41.080 -26.569 -14.197  0.00  0.00    -0.286 OA
ATOM     11  C   UNL     1      40.378 -25.882 -14.934  0.00  0.00    +0.239 C 
ENDBRANCH   7  11
ENDBRANCH   4   7
ENDBRANCH   1   4
BRANCH   1  12
ATOM     12  C   UNL     1      37.033 -24.033 -12.090  0.00  0.00    +0.169 C 
BRANCH  12  13
ATOM     13  O   UNL     1      37.975 -23.251 -11.341  0.00  0.00    -0.379 OA
ATOM     14  H   UNL     1      38.823 -23.228 -11.811  0.00  0.00    +0.211 HD
ENDBRANCH  12  13
BRANCH  12  15
ATOM     15  C   UNL     1      35.785 -24.178 -11.226  0.00  0.00    +0.169 C 
BRANCH  15  16
ATOM     16  O   UNL     1      36.177 -24.228  -9.857  0.00  0.00    -0.379 OA
ATOM     17  H   UNL     1      37.127 -24.044  -9.786  0.00  0.00    +0.211 HD
ENDBRANCH  15  16
ENDBRANCH  12  15
ENDBRANCH   1  12
TORSDOF 10
ENDMDL
MODEL 4
REMARK VINA RESULT:      -5.9      1.373      2.192
REMARK  Name = 161658
REMARK  10 active torsions:
REMARK  status: ('A' for Active; 'I' for Inactive)
REMARK    1  A    between atoms: C_1  and  O_2
REMARK    2  A    between atoms: C_1  and  C_4
REMARK    3  A    between atoms: C_1  and  C_12
REMARK    4  A    between atoms: C_4  and  O_5
REMARK    5  A    between atoms: C_4  and  C_7
REMARK    6  A    between atoms: C_7  and  O_8
REMARK    7  A    between atoms: C_7  and  C_11
REMARK    8  A    between atoms: C_12  and  O_13
REMARK    9  A    between atoms: C_12  and  C_15
REMARK   10  A    between atoms: C_15  and  O_16
REMARK                            x       y       z     vdW  Elec       q    Type
REMARK                         _______ _______ _______ _____ _____    ______ ____
ROOT
ATOM      1  C   UNL     1      37.229 -25.031 -14.138  0.00  0.00    +0.169 C 
ENDROOT
BRANCH   1   2
ATOM      2  O   UNL     1      36.016 -25.789 -14.070  0.00  0.00    -0.379 OA
ATOM      3  H   UNL     1      35.558 -25.744 -14.924  0.00  0.00    +0.211 HD
ENDBRANCH   1   2
BRANCH   1   4
ATOM      4  C   UNL     1      37.694 -24.656 -12.720  0.00  0.00    +0.174 C 
BRANCH   4   5
ATOM      5  O   UNL     1      37.700 -25.859 -11.942  0.00  0.00    -0.379 OA
ATOM      6  H   UNL     1      37.003 -25.813 -11.269  0.00  0.00    +0.211 HD
ENDBRANCH   4   5
BRANCH   4   7
ATOM      7  C   UNL     1      36.891 -23.572 -11.988  0.00  0.00    +0.205 C 
BRANCH   7   8
ATOM      8  O   UNL     1      37.810 -22.764 -11.260  0.00  0.00    -0.375 OA
ATOM      9  H   UNL     1      37.772 -21.853 -11.590  0.00  0.00    +0.211 HD
ENDBRANCH   7   8
BRANCH   7  11
ATOM     10  O   UNL     1      35.030 -24.962 -11.282  0.00  0.00    -0.286 OA
ATOM     11  C   UNL     1      35.878 -24.118 -11.004  0.00  0.00    +0.239 C 
ENDBRANCH   7  11
ENDBRANCH   4   7
ENDBRANCH   1   4
BRANCH   1  12
ATOM     12  C   UNL     1      38.230 -25.848 -14.968  0.00  0.00    +0.169 C 
BRANCH  12  13
ATOM     13  O   UNL     1      38.191 -27.203 -14.496  0.00  0.00    -0.379 OA
ATOM     14  H   UNL     1      37.277 -27.527 -14.517  0.00  0.00    +0.211 HD
ENDBRANCH  12  13
BRANCH  12  15
ATOM     15  C   UNL     1      39.673 -25.373 -14.844  0.00  0.00    +0.169 C 
BRANCH  15  16
ATOM     16  O   UNL     1      40.414 -25.857 -15.961  0.00  0.00    -0.379 OA
ATOM     17  H   UNL     1      40.185 -25.340 -16.749  0.00  0.00    +0.211 HD
ENDBRANCH  15  16
ENDBRANCH  12  15
ENDBRANCH   1  12
TORSDOF 10
ENDMDL
MODEL 5
REMARK VINA RESULT:      -5.8      1.582      4.735
REMARK  Name = 161658
REMARK  10 active torsions:
REMARK  status: ('A' for Active; 'I' for Inactive)
REMARK    1  A    between atoms: C_1  and  O_2
REMARK    2  A    between atoms: C_1  and  C_4
REMARK    3  A    between atoms: C_1  and  C_12
REMARK    4  A    between atoms: C_4  and  O_5
REMARK    5  A    between atoms: C_4  and  C_7
REMARK    6  A    between atoms: C_7  and  O_8
REMARK    7  A    between atoms: C_7  and  C_11
REMARK    8  A    between atoms: C_12  and  O_13
REMARK    9  A    between atoms: C_12  and  C_15
REMARK   10  A    between atoms: C_15  and  O_16
REMARK                            x       y       z     vdW  Elec       q    Type
REMARK                         _______ _______ _______ _____ _____    ______ ____
ROOT
ATOM      1  C   UNL     1      36.851 -25.779 -12.615  0.00  0.00    +0.169 C 
ENDROOT
BRANCH   1   2
ATOM      2  O   UNL     1      36.149 -25.991 -13.844  0.00  0.00    -0.379 OA
ATOM      3  H   UNL     1      36.736 -25.793 -14.591  0.00  0.00    +0.211 HD
ENDBRANCH   1   2
BRANCH   1   4
ATOM      4  C   UNL     1      38.346 -25.551 -12.898  0.00  0.00    +0.174 C 
BRANCH   4   5
ATOM      5  O   UNL     1      38.643 -24.194 -12.548  0.00  0.00    -0.379 OA
ATOM      6  H   UNL     1      38.703 -24.114 -11.583  0.00  0.00    +0.211 HD
ENDBRANCH   4   5
BRANCH   4   7
ATOM      7  C   UNL     1      38.837 -25.837 -14.323  0.00  0.00    +0.205 C 
BRANCH   7   8
ATOM      8  O   UNL     1      38.462 -27.169 -14.656  0.00  0.00    -0.375 OA
ATOM      9  H   UNL     1      37.528 -27.307 -14.433  0.00  0.00    +0.211 HD
ENDBRANCH   7   8
BRANCH   7  11
ATOM     10  O   UNL     1      40.968 -24.676 -14.397  0.00  0.00    -0.286 OA
ATOM     11  C   UNL     1      40.338 -25.726 -14.489  0.00  0.00    +0.239 C 
ENDBRANCH   7  11
ENDBRANCH   4   7
ENDBRANCH   1   4
BRANCH   1  12
ATOM     12  C   UNL     1      36.137 -24.640 -11.874  0.00  0.00    +0.169 C 
BRANCH  12  13
ATOM     13  O   UNL     1      35.474 -25.204 -10.733  0.00  0.00    -0.379 OA
ATOM     14  H   UNL     1      34.953 -25.973 -11.009  0.00  0.00    +0.211 HD
ENDBRANCH  12  13
BRANCH  12  15
ATOM     15  C   UNL     1      35.072 -23.929 -12.703  0.00  0.00    +0.169 C 
BRANCH  15  16
ATOM     16  O   UNL     1      33.871 -24.694 -12.662  0.00  0.00    -0.379 OA
ATOM     17  H   UNL     1      33.289 -24.345 -11.969  0.00  0.00    +0.211 HD
ENDBRANCH  15  16
ENDBRANCH  12  15
ENDBRANCH   1  12
TORSDOF 10
ENDMDL
MODEL 6
REMARK VINA RESULT:      -5.7      1.582      3.115
REMARK  Name = 161658
REMARK  10 active torsions:
REMARK  status: ('A' for Active; 'I' for Inactive)
REMARK    1  A    between atoms: C_1  and  O_2
REMARK    2  A    between atoms: C_1  and  C_4
REMARK    3  A    between atoms: C_1  and  C_12
REMARK    4  A    between atoms: C_4  and  O_5
REMARK    5  A    between atoms: C_4  and  C_7
REMARK    6  A    between atoms: C_7  and  O_8
REMARK    7  A    between atoms: C_7  and  C_11
REMARK    8  A    between atoms: C_12  and  O_13
REMARK    9  A    between atoms: C_12  and  C_15
REMARK   10  A    between atoms: C_15  and  O_16
REMARK                            x       y       z     vdW  Elec       q    Type
REMARK                         _______ _______ _______ _____ _____    ______ ____
ROOT
ATOM      1  C   UNL     1      38.143 -25.553 -13.951  0.00  0.00    +0.169 C 
ENDROOT
BRANCH   1   2
ATOM      2  O   UNL     1      38.470 -24.348 -14.651  0.00  0.00    -0.379 OA
ATOM      3  H   UNL     1      37.662 -23.833 -14.804  0.00  0.00    +0.211 HD
ENDBRANCH   1   2
BRANCH   1   4
ATOM      4  C   UNL     1      37.926 -25.251 -12.458  0.00  0.00    +0.174 C 
BRANCH   4   5
ATOM      5  O   UNL     1      37.023 -26.241 -11.951  0.00  0.00    -0.379 OA
ATOM      6  H   UNL     1      37.529 -26.978 -11.574  0.00  0.00    +0.211 HD
ENDBRANCH   4   5
BRANCH   4   7
ATOM      7  C   UNL     1      37.412 -23.851 -12.098  0.00  0.00    +0.205 C 
BRANCH   7   8
ATOM      8  O   UNL     1      38.511 -23.097 -11.597  0.00  0.00    -0.375 OA
ATOM      9  H   UNL     1      38.624 -23.280 -10.652  0.00  0.00    +0.211 HD
ENDBRANCH   7   8
BRANCH   7  11
ATOM     10  O   UNL     1      35.181 -24.238 -11.224  0.00  0.00    -0.286 OA
ATOM     11  C   UNL     1      36.330 -23.848 -11.038  0.00  0.00    +0.239 C 
ENDBRANCH   7  11
ENDBRANCH   4   7
ENDBRANCH   1   4
BRANCH   1  12
ATOM     12  C   UNL     1      36.950 -26.191 -14.677  0.00  0.00    +0.169 C 
BRANCH  12  13
ATOM     13  O   UNL     1      37.434 -26.766 -15.900  0.00  0.00    -0.379 OA
ATOM     14  H   UNL     1      36.869 -27.512 -16.153  0.00  0.00    +0.211 HD
ENDBRANCH  12  13
BRANCH  12  15
ATOM     15  C   UNL     1      35.850 -25.204 -15.053  0.00  0.00    +0.169 C 
BRANCH  15  16
ATOM     16  O   UNL     1      34.854 -25.215 -14.035  0.00  0.00    -0.379 OA
ATOM     17  H   UNL     1      34.728 -26.123 -13.717  0.00  0.00    +0.211 HD
ENDBRANCH  15  16
ENDBRANCH  12  15
ENDBRANCH   1  12
TORSDOF 10
ENDMDL
MODEL 7
REMARK VINA RESULT:      -5.6      1.495      2.275
REMARK  Name = 161658
REMARK  10 active torsions:
REMARK  status: ('A' for Active; 'I' for Inactive)
REMARK    1  A    between atoms: C_1  and  O_2
REMARK    2  A    between atoms: C_1  and  C_4
REMARK    3  A    between atoms: C_1  and  C_12
REMARK    4  A    between atoms: C_4  and  O_5
REMARK    5  A    between atoms: C_4  and  C_7
REMARK    6  A    between atoms: C_7  and  O_8
REMARK    7  A    between atoms: C_7  and  C_11
REMARK    8  A    between atoms: C_12  and  O_13
REMARK    9  A    between atoms: C_12  and  C_15
REMARK   10  A    between atoms: C_15  and  O_16
REMARK                            x       y       z     vdW  Elec       q    Type
REMARK                         _______ _______ _______ _____ _____    ______ ____
ROOT
ATOM      1  C   UNL     1      38.475 -25.652 -13.007  0.00  0.00    +0.169 C 
ENDROOT
BRANCH   1   2
ATOM      2  O   UNL     1      38.955 -24.338 -12.704  0.00  0.00    -0.379 OA
ATOM      3  H   UNL     1      38.691 -24.098 -11.801  0.00  0.00    +0.211 HD
ENDBRANCH   1   2
BRANCH   1   4
ATOM      4  C   UNL     1      37.015 -25.798 -12.545  0.00  0.00    +0.174 C 
BRANCH   4   5
ATOM      5  O   UNL     1      36.220 -26.026 -13.715  0.00  0.00    -0.379 OA
ATOM      6  H   UNL     1      36.796 -26.064 -14.495  0.00  0.00    +0.211 HD
ENDBRANCH   4   5
BRANCH   4   7
ATOM      7  C   UNL     1      36.421 -24.638 -11.735  0.00  0.00    +0.205 C 
BRANCH   7   8
ATOM      8  O   UNL     1      35.455 -25.179 -10.840  0.00  0.00    -0.375 OA
ATOM      9  H   UNL     1      34.852 -24.476 -10.551  0.00  0.00    +0.211 HD
ENDBRANCH   7   8
BRANCH   7  11
ATOM     10  O   UNL     1      36.190 -23.128 -13.622  0.00  0.00    -0.286 OA
ATOM     11  C   UNL     1      35.730 -23.590 -12.581  0.00  0.00    +0.239 C 
ENDBRANCH   7  11
ENDBRANCH   4   7
ENDBRANCH   1   4
BRANCH   1  12
ATOM     12  C   UNL     1      38.723 -25.893 -14.503  0.00  0.00    +0.169 C 
BRANCH  12  13
ATOM     13  O   UNL     1      38.487 -27.283 -14.770  0.00  0.00    -0.379 OA
ATOM     14  H   UNL     1      37.862 -27.370 -15.506  0.00  0.00    +0.211 HD
ENDBRANCH  12  13
BRANCH  12  15
ATOM     15  C   UNL     1      40.147 -25.587 -14.955  0.00  0.00    +0.169 C 
BRANCH  15  16
ATOM     16  O   UNL     1      41.054 -26.353 -14.168  0.00  0.00    -0.379 OA
ATOM     17  H   UNL     1      40.768 -27.279 -14.155  0.00  0.00    +0.211 HD
ENDBRANCH  15  16
ENDBRANCH  12  15
ENDBRANCH   1  12
TORSDOF 10
ENDMDL
MODEL 8
REMARK VINA RESULT:      -5.6      1.806      3.358
REMARK  Name = 161658
REMARK  10 active torsions:
REMARK  status: ('A' for Active; 'I' for Inactive)
REMARK    1  A    between atoms: C_1  and  O_2
REMARK    2  A    between atoms: C_1  and  C_4
REMARK    3  A    between atoms: C_1  and  C_12
REMARK    4  A    between atoms: C_4  and  O_5
REMARK    5  A    between atoms: C_4  and  C_7
REMARK    6  A    between atoms: C_7  and  O_8
REMARK    7  A    between atoms: C_7  and  C_11
REMARK    8  A    between atoms: C_12  and  O_13
REMARK    9  A    between atoms: C_12  and  C_15
REMARK   10  A    between atoms: C_15  and  O_16
REMARK                            x       y       z     vdW  Elec       q    Type
REMARK                         _______ _______ _______ _____ _____    ______ ____
ROOT
ATOM      1  C   UNL     1      36.562 -26.126 -14.839  0.00  0.00    +0.169 C 
ENDROOT
BRANCH   1   2
ATOM      2  O   UNL     1      36.621 -27.074 -15.910  0.00  0.00    -0.379 OA
ATOM      3  H   UNL     1      36.530 -26.610 -16.758  0.00  0.00    +0.211 HD
ENDBRANCH   1   2
BRANCH   1   4
ATOM      4  C   UNL     1      37.956 -25.954 -14.213  0.00  0.00    +0.174 C 
BRANCH   4   5
ATOM      5  O   UNL     1      38.753 -27.067 -14.636  0.00  0.00    -0.379 OA
ATOM      6  H   UNL     1      38.452 -27.871 -14.183  0.00  0.00    +0.211 HD
ENDBRANCH   4   5
BRANCH   4   7
ATOM      7  C   UNL     1      38.022 -25.823 -12.685  0.00  0.00    +0.205 C 
BRANCH   7   8
ATOM      8  O   UNL     1      36.856 -26.435 -12.144  0.00  0.00    -0.375 OA
ATOM      9  H   UNL     1      36.392 -26.922 -12.843  0.00  0.00    +0.211 HD
ENDBRANCH   7   8
BRANCH   7  11
ATOM     10  O   UNL     1      38.105 -23.409 -12.929  0.00  0.00    -0.286 OA
ATOM     11  C   UNL     1      38.061 -24.391 -12.193  0.00  0.00    +0.239 C 
ENDBRANCH   7  11
ENDBRANCH   4   7
ENDBRANCH   1   4
BRANCH   1  12
ATOM     12  C   UNL     1      35.926 -24.846 -15.400  0.00  0.00    +0.169 C 
BRANCH  12  13
ATOM     13  O   UNL     1      36.987 -23.950 -15.764  0.00  0.00    -0.379 OA
ATOM     14  H   UNL     1      36.642 -23.046 -15.822  0.00  0.00    +0.211 HD
ENDBRANCH  12  13
BRANCH  12  15
ATOM     15  C   UNL     1      35.038 -24.105 -14.405  0.00  0.00    +0.169 C 
BRANCH  15  16
ATOM     16  O   UNL     1      34.640 -25.012 -13.380  0.00  0.00    -0.379 OA
ATOM     17  H   UNL     1      34.724 -24.580 -12.516  0.00  0.00    +0.211 HD
ENDBRANCH  15  16
ENDBRANCH  12  15
ENDBRANCH   1  12
TORSDOF 10
ENDMDL
MODEL 9
REMARK VINA RESULT:      -5.5      1.854      2.562
REMARK  Name = 161658
REMARK  10 active torsions:
REMARK  status: ('A' for Active; 'I' for Inactive)
REMARK    1  A    between atoms: C_1  and  O_2
REMARK    2  A    between atoms: C_1  and  C_4
REMARK    3  A    between atoms: C_1  and  C_12
REMARK    4  A    between atoms: C_4  and  O_5
REMARK    5  A    between atoms: C_4  and  C_7
REMARK    6  A    between atoms: C_7  and  O_8
REMARK    7  A    between atoms: C_7  and  C_11
REMARK    8  A    between atoms: C_12  and  O_13
REMARK    9  A    between atoms: C_12  and  C_15
REMARK   10  A    between atoms: C_15  and  O_16
REMARK                            x       y       z     vdW  Elec       q    Type
REMARK                         _______ _______ _______ _____ _____    ______ ____
ROOT
ATOM      1  C   UNL     1      37.779 -25.444 -13.404  0.00  0.00    +0.169 C 
ENDROOT
BRANCH   1   2
ATOM      2  O   UNL     1      39.023 -26.055 -13.047  0.00  0.00    -0.379 OA
ATOM      3  H   UNL     1      38.853 -26.855 -12.525  0.00  0.00    +0.211 HD
ENDBRANCH   1   2
BRANCH   1   4
ATOM      4  C   UNL     1      37.765 -23.975 -12.946  0.00  0.00    +0.174 C 
BRANCH   4   5
ATOM      5  O   UNL     1      39.007 -23.727 -12.275  0.00  0.00    -0.379 OA
ATOM      6  H   UNL     1      39.475 -24.566 -12.141  0.00  0.00    +0.211 HD
ENDBRANCH   4   5
BRANCH   4   7
ATOM      7  C   UNL     1      36.598 -23.535 -12.052  0.00  0.00    +0.205 C 
BRANCH   7   8
ATOM      8  O   UNL     1      37.144 -23.013 -10.846  0.00  0.00    -0.375 OA
ATOM      9  H   UNL     1      36.436 -22.615 -10.315  0.00  0.00    +0.211 HD
ENDBRANCH   7   8
BRANCH   7  11
ATOM     10  O   UNL     1      35.375 -24.975 -10.527  0.00  0.00    -0.286 OA
ATOM     11  C   UNL     1      35.652 -24.659 -11.681  0.00  0.00    +0.239 C 
ENDBRANCH   7  11
ENDBRANCH   4   7
ENDBRANCH   1   4
BRANCH   1  12
ATOM     12  C   UNL     1      37.577 -25.670 -14.909  0.00  0.00    +0.169 C 
BRANCH  12  13
ATOM     13  O   UNL     1      37.179 -24.420 -15.492  0.00  0.00    -0.379 OA
ATOM     14  H   UNL     1      36.284 -24.194 -15.196  0.00  0.00    +0.211 HD
ENDBRANCH  12  13
BRANCH  12  15
ATOM     15  C   UNL     1      36.490 -26.685 -15.245  0.00  0.00    +0.169 C 
BRANCH  15  16
ATOM     16  O   UNL     1      36.864 -27.385 -16.428  0.00  0.00    -0.379 OA
ATOM     17  H   UNL     1      36.823 -26.782 -17.187  0.00  0.00    +0.211 HD
ENDBRANCH  15  16
ENDBRANCH  12  15
ENDBRANCH   1  12
TORSDOF 10
ENDMDL
