MODEL 1
REMARK VINA RESULT:      -7.7      0.000      0.000
REMARK  Name = 449597
REMARK  4 active torsions:
REMARK  status: ('A' for Active; 'I' for Inactive)
REMARK    1  A    between atoms: N_2  and  C_12
REMARK    2  A    between atoms: N_4  and  C_18
REMARK    3  A    between atoms: C_12  and  C_15
REMARK    4  A    between atoms: C_12  and  C_16
REMARK                            x       y       z     vdW  Elec       q    Type
REMARK                         _______ _______ _______ _____ _____    ______ ____
ROOT
ATOM      1 CL   UNL     1      34.751 -22.070 -19.640  0.00  0.00    +0.026 Cl
ATOM      2  N   UNL     1      30.646 -22.759 -16.967  0.00  0.00    -0.248 N 
ATOM      3  N   UNL     1      32.689 -23.368 -15.989  0.00  0.00    -0.247 NA
ATOM      4  N   UNL     1      34.764 -23.956 -15.066  0.00  0.00    -0.258 N 
ATOM      5  N   UNL     1      32.612 -22.449 -18.204  0.00  0.00    -0.249 NA
ATOM      6  N   UNL     1      34.719 -23.060 -17.231  0.00  0.00    -0.249 NA
ATOM      7  C   UNL     1      32.020 -22.862 -17.056  0.00  0.00    +0.222 C 
ATOM      8  C   UNL     1      34.021 -23.436 -16.147  0.00  0.00    +0.221 C 
ATOM      9  C   UNL     1      33.949 -22.577 -18.219  0.00  0.00    +0.227 C 
ATOM     10  H   UNL     1      30.154 -22.392 -17.737  0.00  0.00    +0.161 HD
ATOM     11  H   UNL     1      35.743 -24.019 -15.153  0.00  0.00    +0.160 HD
ENDROOT
BRANCH   2  12
ATOM     12  C   UNL     1      29.887 -23.166 -15.797  0.00  0.00    +0.144 C 
ATOM     13  C   UNL     1      30.645 -22.680 -14.554  0.00  0.00    +0.036 C 
BRANCH  12  15
ATOM     14  N   UNL     1      27.503 -22.042 -15.848  0.00  0.00    -0.194 NA
ATOM     15  C   UNL     1      28.552 -22.538 -15.827  0.00  0.00    +0.090 C 
ENDBRANCH  12  15
BRANCH  12  16
ATOM     16  C   UNL     1      29.774 -24.706 -15.762  0.00  0.00    +0.033 C 
ATOM     17  C   UNL     1      30.228 -25.352 -14.454  0.00  0.00    +0.003 C 
ENDBRANCH  12  16
ENDBRANCH   2  12
BRANCH   4  18
ATOM     18  C   UNL     1      34.156 -24.395 -13.849  0.00  0.00    +0.099 C 
ATOM     19  C   UNL     1      35.015 -23.997 -12.663  0.00  0.00    +0.024 C 
ENDBRANCH   4  18
TORSDOF 4
ENDMDL
MODEL 2
REMARK VINA RESULT:      -7.7      2.411      5.629
REMARK  Name = 449597
REMARK  4 active torsions:
REMARK  status: ('A' for Active; 'I' for Inactive)
REMARK    1  A    between atoms: N_2  and  C_12
REMARK    2  A    between atoms: N_4  and  C_18
REMARK    3  A    between atoms: C_12  and  C_15
REMARK    4  A    between atoms: C_12  and  C_16
REMARK                            x       y       z     vdW  Elec       q    Type
REMARK                         _______ _______ _______ _____ _____    ______ ____
ROOT
ATOM      1 CL   UNL     1      29.311 -22.803 -15.334  0.00  0.00    +0.026 Cl
ATOM      2  N   UNL     1      34.064 -23.638 -14.243  0.00  0.00    -0.248 N 
ATOM      3  N   UNL     1      33.538 -23.123 -16.470  0.00  0.00    -0.247 NA
ATOM      4  N   UNL     1      32.950 -22.602 -18.680  0.00  0.00    -0.258 N 
ATOM      5  N   UNL     1      31.822 -23.238 -14.798  0.00  0.00    -0.249 NA
ATOM      6  N   UNL     1      31.252 -22.707 -17.068  0.00  0.00    -0.249 NA
ATOM      7  C   UNL     1      33.115 -23.325 -15.197  0.00  0.00    +0.222 C 
ATOM      8  C   UNL     1      32.562 -22.821 -17.341  0.00  0.00    +0.221 C 
ATOM      9  C   UNL     1      30.956 -22.929 -15.777  0.00  0.00    +0.227 C 
ATOM     10  H   UNL     1      33.763 -23.785 -13.317  0.00  0.00    +0.161 HD
ATOM     11  H   UNL     1      32.255 -22.379 -19.342  0.00  0.00    +0.160 HD
ENDROOT
BRANCH   2  12
ATOM     12  C   UNL     1      35.481 -23.764 -14.535  0.00  0.00    +0.144 C 
ATOM     13  C   UNL     1      36.246 -23.618 -13.213  0.00  0.00    +0.036 C 
BRANCH  12  15
ATOM     14  N   UNL     1      35.966 -26.145 -15.559  0.00  0.00    -0.194 NA
ATOM     15  C   UNL     1      35.754 -25.096 -15.109  0.00  0.00    +0.090 C 
ENDBRANCH  12  15
BRANCH  12  16
ATOM     16  C   UNL     1      35.912 -22.643 -15.507  0.00  0.00    +0.033 C 
ATOM     17  C   UNL     1      37.355 -22.740 -15.997  0.00  0.00    +0.003 C 
ENDBRANCH  12  16
ENDBRANCH   2  12
BRANCH   4  18
ATOM     18  C   UNL     1      34.308 -22.688 -19.117  0.00  0.00    +0.099 C 
ATOM     19  C   UNL     1      34.807 -21.321 -19.547  0.00  0.00    +0.024 C 
ENDBRANCH   4  18
TORSDOF 4
ENDMDL
MODEL 3
REMARK VINA RESULT:      -7.2      2.908      6.166
REMARK  Name = 449597
REMARK  4 active torsions:
REMARK  status: ('A' for Active; 'I' for Inactive)
REMARK    1  A    between atoms: N_2  and  C_12
REMARK    2  A    between atoms: N_4  and  C_18
REMARK    3  A    between atoms: C_12  and  C_15
REMARK    4  A    between atoms: C_12  and  C_16
REMARK                            x       y       z     vdW  Elec       q    Type
REMARK                         _______ _______ _______ _____ _____    ______ ____
ROOT
ATOM      1 CL   UNL     1      30.066 -24.070 -13.099  0.00  0.00    +0.026 Cl
ATOM      2  N   UNL     1      34.961 -24.759 -13.291  0.00  0.00    -0.248 N 
ATOM      3  N   UNL     1      33.909 -23.924 -15.213  0.00  0.00    -0.247 NA
ATOM      4  N   UNL     1      32.800 -23.090 -17.104  0.00  0.00    -0.258 N 
ATOM      5  N   UNL     1      32.642 -24.421 -13.238  0.00  0.00    -0.249 NA
ATOM      6  N   UNL     1      31.537 -23.567 -15.188  0.00  0.00    -0.249 NA
ATOM      7  C   UNL     1      33.806 -24.357 -13.932  0.00  0.00    +0.222 C 
ATOM      8  C   UNL     1      32.747 -23.549 -15.771  0.00  0.00    +0.221 C 
ATOM      9  C   UNL     1      31.561 -24.014 -13.923  0.00  0.00    +0.227 C 
ATOM     10  H   UNL     1      34.893 -25.073 -12.360  0.00  0.00    +0.161 HD
ATOM     11  H   UNL     1      31.963 -22.809 -17.540  0.00  0.00    +0.160 HD
ENDROOT
BRANCH   2  12
ATOM     12  C   UNL     1      36.271 -24.743 -13.917  0.00  0.00    +0.144 C 
ATOM     13  C   UNL     1      37.310 -25.080 -12.839  0.00  0.00    +0.036 C 
BRANCH  12  15
ATOM     14  N   UNL     1      36.367 -26.567 -15.819  0.00  0.00    -0.194 NA
ATOM     15  C   UNL     1      36.326 -25.765 -14.981  0.00  0.00    +0.090 C 
ENDBRANCH  12  15
BRANCH  12  16
ATOM     16  C   UNL     1      36.557 -23.336 -14.486  0.00  0.00    +0.033 C 
ATOM     17  C   UNL     1      37.606 -23.294 -15.596  0.00  0.00    +0.003 C 
ENDBRANCH  12  16
ENDBRANCH   2  12
BRANCH   4  18
ATOM     18  C   UNL     1      34.017 -23.016 -17.850  0.00  0.00    +0.099 C 
ATOM     19  C   UNL     1      33.828 -22.136 -19.072  0.00  0.00    +0.024 C 
ENDBRANCH   4  18
TORSDOF 4
ENDMDL
MODEL 4
REMARK VINA RESULT:      -7.0      2.440      5.602
REMARK  Name = 449597
REMARK  4 active torsions:
REMARK  status: ('A' for Active; 'I' for Inactive)
REMARK    1  A    between atoms: N_2  and  C_12
REMARK    2  A    between atoms: N_4  and  C_18
REMARK    3  A    between atoms: C_12  and  C_15
REMARK    4  A    between atoms: C_12  and  C_16
REMARK                            x       y       z     vdW  Elec       q    Type
REMARK                         _______ _______ _______ _____ _____    ______ ____
ROOT
ATOM      1 CL   UNL     1      29.115 -23.052 -15.290  0.00  0.00    +0.026 Cl
ATOM      2  N   UNL     1      33.867 -23.666 -14.059  0.00  0.00    -0.248 N 
ATOM      3  N   UNL     1      33.389 -23.107 -16.285  0.00  0.00    -0.247 NA
ATOM      4  N   UNL     1      32.848 -22.545 -18.498  0.00  0.00    -0.258 N 
ATOM      5  N   UNL     1      31.626 -23.368 -14.679  0.00  0.00    -0.249 NA
ATOM      6  N   UNL     1      31.105 -22.795 -16.950  0.00  0.00    -0.249 NA
ATOM      7  C   UNL     1      32.936 -23.373 -15.035  0.00  0.00    +0.222 C 
ATOM      8  C   UNL     1      32.428 -22.829 -17.180  0.00  0.00    +0.221 C 
ATOM      9  C   UNL     1      30.778 -23.074 -15.678  0.00  0.00    +0.227 C 
ATOM     10  H   UNL     1      33.544 -23.859 -13.148  0.00  0.00    +0.161 HD
ATOM     11  H   UNL     1      32.165 -22.338 -19.176  0.00  0.00    +0.160 HD
ENDROOT
BRANCH   2  12
ATOM     12  C   UNL     1      35.298 -23.707 -14.304  0.00  0.00    +0.144 C 
ATOM     13  C   UNL     1      35.641 -22.558 -15.262  0.00  0.00    +0.036 C 
BRANCH  12  15
ATOM     14  N   UNL     1      36.601 -23.364 -12.038  0.00  0.00    -0.194 NA
ATOM     15  C   UNL     1      36.026 -23.514 -13.034  0.00  0.00    +0.090 C 
ENDBRANCH  12  15
BRANCH  12  16
ATOM     16  C   UNL     1      35.674 -25.054 -14.960  0.00  0.00    +0.033 C 
ATOM     17  C   UNL     1      37.168 -25.372 -14.958  0.00  0.00    +0.003 C 
ENDBRANCH  12  16
ENDBRANCH   2  12
BRANCH   4  18
ATOM     18  C   UNL     1      34.223 -22.545 -18.889  0.00  0.00    +0.099 C 
ATOM     19  C   UNL     1      34.537 -21.295 -19.691  0.00  0.00    +0.024 C 
ENDBRANCH   4  18
TORSDOF 4
ENDMDL
MODEL 5
REMARK VINA RESULT:      -7.0      2.331      5.651
REMARK  Name = 449597
REMARK  4 active torsions:
REMARK  status: ('A' for Active; 'I' for Inactive)
REMARK    1  A    between atoms: N_2  and  C_12
REMARK    2  A    between atoms: N_4  and  C_18
REMARK    3  A    between atoms: C_12  and  C_15
REMARK    4  A    between atoms: C_12  and  C_16
REMARK                            x       y       z     vdW  Elec       q    Type
REMARK                         _______ _______ _______ _____ _____    ______ ____
ROOT
ATOM      1 CL   UNL     1      36.682 -20.723 -19.959  0.00  0.00    +0.026 Cl
ATOM      2  N   UNL     1      37.229 -23.309 -15.777  0.00  0.00    -0.248 N 
ATOM      3  N   UNL     1      35.067 -23.137 -16.668  0.00  0.00    -0.247 NA
ATOM      4  N   UNL     1      32.928 -22.930 -17.609  0.00  0.00    -0.258 N 
ATOM      5  N   UNL     1      36.931 -22.091 -17.757  0.00  0.00    -0.249 NA
ATOM      6  N   UNL     1      34.731 -21.897 -18.694  0.00  0.00    -0.249 NA
ATOM      7  C   UNL     1      36.386 -22.832 -16.760  0.00  0.00    +0.222 C 
ATOM      8  C   UNL     1      34.309 -22.641 -17.659  0.00  0.00    +0.221 C 
ATOM      9  C   UNL     1      36.052 -21.662 -18.678  0.00  0.00    +0.227 C 
ATOM     10  H   UNL     1      38.188 -23.093 -15.839  0.00  0.00    +0.161 HD
ATOM     11  H   UNL     1      32.347 -22.579 -18.322  0.00  0.00    +0.160 HD
ENDROOT
BRANCH   2  12
ATOM     12  C   UNL     1      36.777 -24.113 -14.655  0.00  0.00    +0.144 C 
ATOM     13  C   UNL     1      35.562 -23.409 -14.035  0.00  0.00    +0.036 C 
BRANCH  12  15
ATOM     14  N   UNL     1      36.056 -26.501 -15.510  0.00  0.00    -0.194 NA
ATOM     15  C   UNL     1      36.372 -25.450 -15.132  0.00  0.00    +0.090 C 
ENDBRANCH  12  15
BRANCH  12  16
ATOM     16  C   UNL     1      37.904 -24.218 -13.604  0.00  0.00    +0.033 C 
ATOM     17  C   UNL     1      39.026 -25.190 -13.963  0.00  0.00    +0.003 C 
ENDBRANCH  12  16
ENDBRANCH   2  12
BRANCH   4  18
ATOM     18  C   UNL     1      32.337 -23.710 -16.567  0.00  0.00    +0.099 C 
ATOM     19  C   UNL     1      31.126 -22.993 -16.001  0.00  0.00    +0.024 C 
ENDBRANCH   4  18
TORSDOF 4
ENDMDL
MODEL 6
REMARK VINA RESULT:      -7.0      2.717      6.008
REMARK  Name = 449597
REMARK  4 active torsions:
REMARK  status: ('A' for Active; 'I' for Inactive)
REMARK    1  A    between atoms: N_2  and  C_12
REMARK    2  A    between atoms: N_4  and  C_18
REMARK    3  A    between atoms: C_12  and  C_15
REMARK    4  A    between atoms: C_12  and  C_16
REMARK                            x       y       z     vdW  Elec       q    Type
REMARK                         _______ _______ _______ _____ _____    ______ ____
ROOT
ATOM      1 CL   UNL     1      35.901 -21.651 -18.668  0.00  0.00    +0.026 Cl
ATOM      2  N   UNL     1      37.892 -23.823 -14.694  0.00  0.00    -0.248 N 
ATOM      3  N   UNL     1      35.553 -23.800 -14.858  0.00  0.00    -0.247 NA
ATOM      4  N   UNL     1      33.218 -23.746 -15.078  0.00  0.00    -0.258 N 
ATOM      5  N   UNL     1      36.913 -22.801 -16.563  0.00  0.00    -0.249 NA
ATOM      6  N   UNL     1      34.522 -22.762 -16.759  0.00  0.00    -0.249 NA
ATOM      7  C   UNL     1      36.755 -23.465 -15.390  0.00  0.00    +0.222 C 
ATOM      8  C   UNL     1      34.493 -23.421 -15.589  0.00  0.00    +0.221 C 
ATOM      9  C   UNL     1      35.765 -22.486 -17.185  0.00  0.00    +0.227 C 
ATOM     10  H   UNL     1      38.768 -23.583 -15.076  0.00  0.00    +0.161 HD
ATOM     11  H   UNL     1      32.421 -23.480 -15.593  0.00  0.00    +0.160 HD
ENDROOT
BRANCH   2  12
ATOM     12  C   UNL     1      37.865 -24.533 -13.428  0.00  0.00    +0.144 C 
ATOM     13  C   UNL     1      39.234 -25.199 -13.235  0.00  0.00    +0.036 C 
BRANCH  12  15
ATOM     14  N   UNL     1      37.444 -22.831 -11.459  0.00  0.00    -0.194 NA
ATOM     15  C   UNL     1      37.630 -23.579 -12.327  0.00  0.00    +0.090 C 
ENDBRANCH  12  15
BRANCH  12  16
ATOM     16  C   UNL     1      36.766 -25.618 -13.465  0.00  0.00    +0.033 C 
ATOM     17  C   UNL     1      37.165 -26.911 -14.173  0.00  0.00    +0.003 C 
ENDBRANCH  12  16
ENDBRANCH   2  12
BRANCH   4  18
ATOM     18  C   UNL     1      33.033 -24.445 -13.845  0.00  0.00    +0.099 C 
ATOM     19  C   UNL     1      31.625 -25.005 -13.768  0.00  0.00    +0.024 C 
ENDBRANCH   4  18
TORSDOF 4
ENDMDL
MODEL 7
REMARK VINA RESULT:      -6.9      1.719      5.216
REMARK  Name = 449597
REMARK  4 active torsions:
REMARK  status: ('A' for Active; 'I' for Inactive)
REMARK    1  A    between atoms: N_2  and  C_12
REMARK    2  A    between atoms: N_4  and  C_18
REMARK    3  A    between atoms: C_12  and  C_15
REMARK    4  A    between atoms: C_12  and  C_16
REMARK                            x       y       z     vdW  Elec       q    Type
REMARK                         _______ _______ _______ _____ _____    ______ ____
ROOT
ATOM      1 CL   UNL     1      33.468 -21.497 -19.936  0.00  0.00    +0.026 Cl
ATOM      2  N   UNL     1      35.971 -23.443 -16.138  0.00  0.00    -0.248 N 
ATOM      3  N   UNL     1      33.630 -23.570 -16.071  0.00  0.00    -0.247 NA
ATOM      4  N   UNL     1      31.287 -23.667 -16.061  0.00  0.00    -0.258 N 
ATOM      5  N   UNL     1      34.751 -22.530 -17.920  0.00  0.00    -0.249 NA
ATOM      6  N   UNL     1      32.355 -22.645 -17.881  0.00  0.00    -0.249 NA
ATOM      7  C   UNL     1      34.751 -23.173 -16.725  0.00  0.00    +0.222 C 
ATOM      8  C   UNL     1      32.482 -23.275 -16.702  0.00  0.00    +0.221 C 
ATOM      9  C   UNL     1      33.531 -22.303 -18.431  0.00  0.00    +0.227 C 
ATOM     10  H   UNL     1      36.788 -23.159 -16.609  0.00  0.00    +0.161 HD
ATOM     11  H   UNL     1      30.429 -23.463 -16.500  0.00  0.00    +0.160 HD
ENDROOT
BRANCH   2  12
ATOM     12  C   UNL     1      36.113 -24.122 -14.862  0.00  0.00    +0.144 C 
ATOM     13  C   UNL     1      35.640 -25.570 -15.048  0.00  0.00    +0.036 C 
BRANCH  12  15
ATOM     14  N   UNL     1      38.646 -24.125 -14.130  0.00  0.00    -0.194 NA
ATOM     15  C   UNL     1      37.532 -24.123 -14.454  0.00  0.00    +0.090 C 
ENDBRANCH  12  15
BRANCH  12  16
ATOM     16  C   UNL     1      35.232 -23.425 -13.803  0.00  0.00    +0.033 C 
ATOM     17  C   UNL     1      35.195 -24.119 -12.443  0.00  0.00    +0.003 C 
ENDBRANCH  12  16
ENDBRANCH   2  12
BRANCH   4  18
ATOM     18  C   UNL     1      31.268 -24.345 -14.803  0.00  0.00    +0.099 C 
ATOM     19  C   UNL     1      30.150 -25.371 -14.780  0.00  0.00    +0.024 C 
ENDBRANCH   4  18
TORSDOF 4
ENDMDL
MODEL 8
REMARK VINA RESULT:      -6.9     13.371     15.122
REMARK  Name = 449597
REMARK  4 active torsions:
REMARK  status: ('A' for Active; 'I' for Inactive)
REMARK    1  A    between atoms: N_2  and  C_12
REMARK    2  A    between atoms: N_4  and  C_18
REMARK    3  A    between atoms: C_12  and  C_15
REMARK    4  A    between atoms: C_12  and  C_16
REMARK                            x       y       z     vdW  Elec       q    Type
REMARK                         _______ _______ _______ _____ _____    ______ ____
ROOT
ATOM      1 CL   UNL     1      33.774 -14.377 -24.541  0.00  0.00    +0.026 Cl
ATOM      2  N   UNL     1      33.727  -9.453 -24.073  0.00  0.00    -0.248 N 
ATOM      3  N   UNL     1      32.389 -10.693 -22.599  0.00  0.00    -0.247 NA
ATOM      4  N   UNL     1      31.072 -11.988 -21.153  0.00  0.00    -0.258 N 
ATOM      5  N   UNL     1      33.723 -11.789 -24.265  0.00  0.00    -0.249 NA
ATOM      6  N   UNL     1      32.365 -13.085 -22.772  0.00  0.00    -0.249 NA
ATOM      7  C   UNL     1      33.267 -10.678 -23.634  0.00  0.00    +0.222 C 
ATOM      8  C   UNL     1      31.987 -11.918 -22.226  0.00  0.00    +0.221 C 
ATOM      9  C   UNL     1      33.234 -12.944 -23.785  0.00  0.00    +0.227 C 
ATOM     10  H   UNL     1      34.366  -9.435 -24.823  0.00  0.00    +0.161 HD
ATOM     11  H   UNL     1      30.758 -12.873 -20.858  0.00  0.00    +0.160 HD
ENDROOT
BRANCH   2  12
ATOM     12  C   UNL     1      33.319  -8.187 -23.487  0.00  0.00    +0.144 C 
ATOM     13  C   UNL     1      34.201  -7.086 -24.091  0.00  0.00    +0.036 C 
BRANCH  12  15
ATOM     14  N   UNL     1      30.798  -7.702 -24.087  0.00  0.00    -0.194 NA
ATOM     15  C   UNL     1      31.907  -7.917 -23.822  0.00  0.00    +0.090 C 
ENDBRANCH  12  15
BRANCH  12  16
ATOM     16  C   UNL     1      33.528  -8.233 -21.957  0.00  0.00    +0.033 C 
ATOM     17  C   UNL     1      32.594  -7.328 -21.157  0.00  0.00    +0.003 C 
ENDBRANCH  12  16
ENDBRANCH   2  12
BRANCH   4  18
ATOM     18  C   UNL     1      30.582 -10.828 -20.476  0.00  0.00    +0.099 C 
ATOM     19  C   UNL     1      31.305 -10.651 -19.154  0.00  0.00    +0.024 C 
ENDBRANCH   4  18
TORSDOF 4
ENDMDL
MODEL 9
REMARK VINA RESULT:      -6.8      9.270     11.127
REMARK  Name = 449597
REMARK  4 active torsions:
REMARK  status: ('A' for Active; 'I' for Inactive)
REMARK    1  A    between atoms: N_2  and  C_12
REMARK    2  A    between atoms: N_4  and  C_18
REMARK    3  A    between atoms: C_12  and  C_15
REMARK    4  A    between atoms: C_12  and  C_16
REMARK                            x       y       z     vdW  Elec       q    Type
REMARK                         _______ _______ _______ _____ _____    ______ ____
ROOT
ATOM      1 CL   UNL     1      32.677 -13.643 -27.420  0.00  0.00    +0.026 Cl
ATOM      2  N   UNL     1      32.641 -13.912 -22.480  0.00  0.00    -0.248 N 
ATOM      3  N   UNL     1      33.809 -15.578 -23.647  0.00  0.00    -0.247 NA
ATOM      4  N   UNL     1      34.961 -17.215 -24.870  0.00  0.00    -0.258 N 
ATOM      5  N   UNL     1      32.679 -13.818 -24.822  0.00  0.00    -0.249 NA
ATOM      6  N   UNL     1      33.866 -15.508 -26.044  0.00  0.00    -0.249 NA
ATOM      7  C   UNL     1      33.054 -14.451 -23.682  0.00  0.00    +0.222 C 
ATOM      8  C   UNL     1      34.174 -16.044 -24.852  0.00  0.00    +0.221 C 
ATOM      9  C   UNL     1      33.117 -14.398 -25.952  0.00  0.00    +0.227 C 
ATOM     10  H   UNL     1      32.094 -13.094 -22.499  0.00  0.00    +0.161 HD
ATOM     11  H   UNL     1      35.244 -17.581 -25.740  0.00  0.00    +0.160 HD
ENDROOT
BRANCH   2  12
ATOM     12  C   UNL     1      32.971 -14.490 -21.189  0.00  0.00    +0.144 C 
ATOM     13  C   UNL     1      32.566 -13.479 -20.107  0.00  0.00    +0.036 C 
BRANCH  12  15
ATOM     14  N   UNL     1      31.611 -16.722 -20.845  0.00  0.00    -0.194 NA
ATOM     15  C   UNL     1      32.210 -15.740 -20.994  0.00  0.00    +0.090 C 
ENDBRANCH  12  15
BRANCH  12  16
ATOM     16  C   UNL     1      34.491 -14.749 -21.109  0.00  0.00    +0.033 C 
ATOM     17  C   UNL     1      34.882 -16.076 -20.463  0.00  0.00    +0.003 C 
ENDBRANCH  12  16
ENDBRANCH   2  12
BRANCH   4  18
ATOM     18  C   UNL     1      35.366 -17.894 -23.679  0.00  0.00    +0.099 C 
ATOM     19  C   UNL     1      34.791 -19.298 -23.657  0.00  0.00    +0.024 C 
ENDBRANCH   4  18
TORSDOF 4
ENDMDL
