MODEL 1
REMARK VINA RESULT:      -4.2      0.000      0.000
REMARK  Name = 6419721
REMARK  4 active torsions:
REMARK  status: ('A' for Active; 'I' for Inactive)
REMARK    1  A    between atoms: CA_1  and  N_2
REMARK    2  A    between atoms: CA_1  and  C_8
REMARK    3  A    between atoms: CA_1  and  CB_9
REMARK    4  A    between atoms: CB_9  and  SG_10
REMARK                            x       y       z     vdW  Elec       q    Type
REMARK                         _______ _______ _______ _____ _____    ______ ____
ROOT
ATOM      1  CA  CYS A   1      38.864 -25.677 -14.544  0.00  0.00    +0.051 C 
ENDROOT
BRANCH   1   2
ATOM      2  N   CYS A   1      38.251 -24.500 -15.240  0.00  0.00    +0.389 N 
ATOM      3  H1  CYS A   1      38.912 -23.724 -15.243  0.00  0.00    -0.088 HD
ATOM      4  H2  CYS A   1      37.401 -24.220 -14.749  0.00  0.00    -0.088 HD
ATOM      5  H3  CYS A   1      38.021 -24.755 -16.201  0.00  0.00    -0.088 HD
ENDBRANCH   1   2
BRANCH   1   8
ATOM      6  O   CYS A   1      40.955 -26.793 -14.589  0.00  0.00    -0.248 OA
ATOM      7  OXT CYS A   1      40.938 -24.520 -14.406  0.00  0.00    -0.248 OA
ATOM      8  C   CYS A   1      40.403 -25.659 -14.519  0.00  0.00    +0.346 C 
ENDBRANCH   1   8
BRANCH   1   9
ATOM      9  CB  CYS A   1      38.173 -25.850 -13.187  0.00  0.00    +0.043 C 
BRANCH   9  10
ATOM     10  SG  CYS A   1      38.032 -24.300 -12.239  0.00  0.00    -0.170 S 
ATOM     11  HG  CYS A   1      36.736 -23.890 -12.230  0.00  0.00    +0.102 HD
ENDBRANCH   9  10
ENDBRANCH   1   9
TORSDOF 4
ENDMDL
MODEL 2
REMARK VINA RESULT:      -4.2     10.755     11.170
REMARK  Name = 6419721
REMARK  4 active torsions:
REMARK  status: ('A' for Active; 'I' for Inactive)
REMARK    1  A    between atoms: CA_1  and  N_2
REMARK    2  A    between atoms: CA_1  and  C_8
REMARK    3  A    between atoms: CA_1  and  CB_9
REMARK    4  A    between atoms: CB_9  and  SG_10
REMARK                            x       y       z     vdW  Elec       q    Type
REMARK                         _______ _______ _______ _____ _____    ______ ____
ROOT
ATOM      1  CA  CYS A   1      29.307 -23.197 -16.196  0.00  0.00    +0.051 C 
ENDROOT
BRANCH   1   2
ATOM      2  N   CYS A   1      30.594 -22.719 -16.796  0.00  0.00    +0.389 N 
ATOM      3  H1  CYS A   1      30.663 -23.047 -17.759  0.00  0.00    -0.088 HD
ATOM      4  H2  CYS A   1      31.377 -23.086 -16.255  0.00  0.00    -0.088 HD
ATOM      5  H3  CYS A   1      30.618 -21.699 -16.781  0.00  0.00    -0.088 HD
ENDBRANCH   1   2
BRANCH   1   8
ATOM      6  O   CYS A   1      27.659 -21.675 -16.968  0.00  0.00    -0.248 OA
ATOM      7  OXT CYS A   1      27.570 -23.837 -17.691  0.00  0.00    -0.248 OA
ATOM      8  C   CYS A   1      28.062 -22.871 -17.042  0.00  0.00    +0.346 C 
ENDBRANCH   1   8
BRANCH   1   9
ATOM      9  CB  CYS A   1      29.477 -24.664 -15.790  0.00  0.00    +0.043 C 
BRANCH   9  10
ATOM     10  SG  CYS A   1      30.610 -24.903 -14.382  0.00  0.00    -0.170 S 
ATOM     11  HG  CYS A   1      31.716 -24.131 -14.555  0.00  0.00    +0.102 HD
ENDBRANCH   9  10
ENDBRANCH   1   9
TORSDOF 4
ENDMDL
MODEL 3
REMARK VINA RESULT:      -4.2      1.796      2.153
REMARK  Name = 6419721
REMARK  4 active torsions:
REMARK  status: ('A' for Active; 'I' for Inactive)
REMARK    1  A    between atoms: CA_1  and  N_2
REMARK    2  A    between atoms: CA_1  and  C_8
REMARK    3  A    between atoms: CA_1  and  CB_9
REMARK    4  A    between atoms: CB_9  and  SG_10
REMARK                            x       y       z     vdW  Elec       q    Type
REMARK                         _______ _______ _______ _____ _____    ______ ____
ROOT
ATOM      1  CA  CYS A   1      38.829 -25.460 -14.310  0.00  0.00    +0.051 C 
ENDROOT
BRANCH   1   2
ATOM      2  N   CYS A   1      38.249 -26.841 -14.366  0.00  0.00    +0.389 N 
ATOM      3  H1  CYS A   1      38.999 -27.528 -14.288  0.00  0.00    -0.088 HD
ATOM      4  H2  CYS A   1      37.762 -26.968 -15.254  0.00  0.00    -0.088 HD
ATOM      5  H3  CYS A   1      37.592 -26.965 -13.596  0.00  0.00    -0.088 HD
ENDBRANCH   1   2
BRANCH   1   8
ATOM      6  O   CYS A   1      41.016 -24.547 -14.237  0.00  0.00    -0.248 OA
ATOM      7  OXT CYS A   1      40.530 -26.084 -15.851  0.00  0.00    -0.248 OA
ATOM      8  C   CYS A   1      40.268 -25.362 -14.848  0.00  0.00    +0.346 C 
ENDBRANCH   1   8
BRANCH   1   9
ATOM      9  CB  CYS A   1      37.817 -24.485 -14.918  0.00  0.00    +0.043 C 
BRANCH   9  10
ATOM     10  SG  CYS A   1      36.093 -25.072 -14.825  0.00  0.00    -0.170 S 
ATOM     11  HG  CYS A   1      35.915 -25.772 -13.672  0.00  0.00    +0.102 HD
ENDBRANCH   9  10
ENDBRANCH   1   9
TORSDOF 4
ENDMDL
MODEL 4
REMARK VINA RESULT:      -4.0      3.435      3.824
REMARK  Name = 6419721
REMARK  4 active torsions:
REMARK  status: ('A' for Active; 'I' for Inactive)
REMARK    1  A    between atoms: CA_1  and  N_2
REMARK    2  A    between atoms: CA_1  and  C_8
REMARK    3  A    between atoms: CA_1  and  CB_9
REMARK    4  A    between atoms: CB_9  and  SG_10
REMARK                            x       y       z     vdW  Elec       q    Type
REMARK                         _______ _______ _______ _____ _____    ______ ____
ROOT
ATOM      1  CA  CYS A   1      37.599 -26.407 -14.226  0.00  0.00    +0.051 C 
ENDROOT
BRANCH   1   2
ATOM      2  N   CYS A   1      36.945 -26.514 -12.883  0.00  0.00    +0.389 N 
ATOM      3  H1  CYS A   1      35.952 -26.709 -13.002  0.00  0.00    -0.088 HD
ATOM      4  H2  CYS A   1      37.061 -25.635 -12.378  0.00  0.00    -0.088 HD
ATOM      5  H3  CYS A   1      37.379 -27.271 -12.352  0.00  0.00    -0.088 HD
ENDBRANCH   1   2
BRANCH   1   8
ATOM      6  O   CYS A   1      35.720 -25.577 -15.411  0.00  0.00    -0.248 OA
ATOM      7  OXT CYS A   1      36.798 -27.414 -16.227  0.00  0.00    -0.248 OA
ATOM      8  C   CYS A   1      36.616 -26.469 -15.409  0.00  0.00    +0.346 C 
ENDBRANCH   1   8
BRANCH   1   9
ATOM      9  CB  CYS A   1      38.551 -25.207 -14.207  0.00  0.00    +0.043 C 
BRANCH   9  10
ATOM     10  SG  CYS A   1      40.236 -25.605 -14.780  0.00  0.00    -0.170 S 
ATOM     11  HG  CYS A   1      41.120 -24.731 -14.229  0.00  0.00    +0.102 HD
ENDBRANCH   9  10
ENDBRANCH   1   9
TORSDOF 4
ENDMDL
MODEL 5
REMARK VINA RESULT:      -4.0     10.509     10.858
REMARK  Name = 6419721
REMARK  4 active torsions:
REMARK  status: ('A' for Active; 'I' for Inactive)
REMARK    1  A    between atoms: CA_1  and  N_2
REMARK    2  A    between atoms: CA_1  and  C_8
REMARK    3  A    between atoms: CA_1  and  CB_9
REMARK    4  A    between atoms: CB_9  and  SG_10
REMARK                            x       y       z     vdW  Elec       q    Type
REMARK                         _______ _______ _______ _____ _____    ______ ____
ROOT
ATOM      1  CA  CYS A   1      29.417 -23.820 -15.887  0.00  0.00    +0.051 C 
ENDROOT
BRANCH   1   2
ATOM      2  N   CYS A   1      28.845 -24.893 -15.013  0.00  0.00    +0.389 N 
ATOM      3  H1  CYS A   1      29.599 -25.483 -14.660  0.00  0.00    -0.088 HD
ATOM      4  H2  CYS A   1      28.194 -25.462 -15.555  0.00  0.00    -0.088 HD
ATOM      5  H3  CYS A   1      28.352 -24.466 -14.228  0.00  0.00    -0.088 HD
ENDBRANCH   1   2
BRANCH   1   8
ATOM      6  O   CYS A   1      27.723 -24.106 -17.521  0.00  0.00    -0.248 OA
ATOM      7  OXT CYS A   1      28.429 -21.990 -17.042  0.00  0.00    -0.248 OA
ATOM      8  C   CYS A   1      28.420 -23.247 -16.911  0.00  0.00    +0.346 C 
ENDBRANCH   1   8
BRANCH   1   9
ATOM      9  CB  CYS A   1      30.127 -22.796 -14.996  0.00  0.00    +0.043 C 
BRANCH   9  10
ATOM     10  SG  CYS A   1      31.256 -23.550 -13.779  0.00  0.00    -0.170 S 
ATOM     11  HG  CYS A   1      31.813 -24.671 -14.310  0.00  0.00    +0.102 HD
ENDBRANCH   9  10
ENDBRANCH   1   9
TORSDOF 4
ENDMDL
MODEL 6
REMARK VINA RESULT:      -4.0      3.237      3.564
REMARK  Name = 6419721
REMARK  4 active torsions:
REMARK  status: ('A' for Active; 'I' for Inactive)
REMARK    1  A    between atoms: CA_1  and  N_2
REMARK    2  A    between atoms: CA_1  and  C_8
REMARK    3  A    between atoms: CA_1  and  CB_9
REMARK    4  A    between atoms: CB_9  and  SG_10
REMARK                            x       y       z     vdW  Elec       q    Type
REMARK                         _______ _______ _______ _____ _____    ______ ____
ROOT
ATOM      1  CA  CYS A   1      36.840 -25.271 -14.322  0.00  0.00    +0.051 C 
ENDROOT
BRANCH   1   2
ATOM      2  N   CYS A   1      36.068 -25.450 -13.050  0.00  0.00    +0.389 N 
ATOM      3  H1  CYS A   1      35.112 -25.727 -13.268  0.00  0.00    -0.088 HD
ATOM      4  H2  CYS A   1      36.058 -24.570 -12.533  0.00  0.00    -0.088 HD
ATOM      5  H3  CYS A   1      36.511 -26.173 -12.482  0.00  0.00    -0.088 HD
ENDBRANCH   1   2
BRANCH   1   8
ATOM      6  O   CYS A   1      38.227 -27.158 -14.695  0.00  0.00    -0.248 OA
ATOM      7  OXT CYS A   1      36.330 -26.936 -15.943  0.00  0.00    -0.248 OA
ATOM      8  C   CYS A   1      37.157 -26.588 -15.053  0.00  0.00    +0.346 C 
ENDBRANCH   1   8
BRANCH   1   9
ATOM      9  CB  CYS A   1      36.150 -24.188 -15.158  0.00  0.00    +0.043 C 
BRANCH   9  10
ATOM     10  SG  CYS A   1      37.279 -22.870 -15.715  0.00  0.00    -0.170 S 
ATOM     11  HG  CYS A   1      37.831 -23.219 -16.907  0.00  0.00    +0.102 HD
ENDBRANCH   9  10
ENDBRANCH   1   9
TORSDOF 4
ENDMDL
MODEL 7
REMARK VINA RESULT:      -4.0      3.769      4.370
REMARK  Name = 6419721
REMARK  4 active torsions:
REMARK  status: ('A' for Active; 'I' for Inactive)
REMARK    1  A    between atoms: CA_1  and  N_2
REMARK    2  A    between atoms: CA_1  and  C_8
REMARK    3  A    between atoms: CA_1  and  CB_9
REMARK    4  A    between atoms: CB_9  and  SG_10
REMARK                            x       y       z     vdW  Elec       q    Type
REMARK                         _______ _______ _______ _____ _____    ______ ____
ROOT
ATOM      1  CA  CYS A   1      36.374 -23.414 -12.781  0.00  0.00    +0.051 C 
ENDROOT
BRANCH   1   2
ATOM      2  N   CYS A   1      34.914 -23.659 -12.551  0.00  0.00    +0.389 N 
ATOM      3  H1  CYS A   1      34.798 -24.396 -11.855  0.00  0.00    -0.088 HD
ATOM      4  H2  CYS A   1      34.476 -23.947 -13.427  0.00  0.00    -0.088 HD
ATOM      5  H3  CYS A   1      34.473 -22.802 -12.216  0.00  0.00    -0.088 HD
ENDBRANCH   1   2
BRANCH   1   8
ATOM      6  O   CYS A   1      38.321 -22.721 -11.619  0.00  0.00    -0.248 OA
ATOM      7  OXT CYS A   1      36.676 -23.784 -10.451  0.00  0.00    -0.248 OA
ATOM      8  C   CYS A   1      37.200 -23.288 -11.487  0.00  0.00    +0.346 C 
ENDBRANCH   1   8
BRANCH   1   9
ATOM      9  CB  CYS A   1      36.881 -24.436 -13.803  0.00  0.00    +0.043 C 
BRANCH   9  10
ATOM     10  SG  CYS A   1      37.268 -26.063 -13.076  0.00  0.00    -0.170 S 
ATOM     11  HG  CYS A   1      38.393 -25.964 -12.318  0.00  0.00    +0.102 HD
ENDBRANCH   9  10
ENDBRANCH   1   9
TORSDOF 4
ENDMDL
MODEL 8
REMARK VINA RESULT:      -3.9      2.422      2.776
REMARK  Name = 6419721
REMARK  4 active torsions:
REMARK  status: ('A' for Active; 'I' for Inactive)
REMARK    1  A    between atoms: CA_1  and  N_2
REMARK    2  A    between atoms: CA_1  and  C_8
REMARK    3  A    between atoms: CA_1  and  CB_9
REMARK    4  A    between atoms: CB_9  and  SG_10
REMARK                            x       y       z     vdW  Elec       q    Type
REMARK                         _______ _______ _______ _____ _____    ______ ____
ROOT
ATOM      1  CA  CYS A   1      37.232 -25.012 -14.538  0.00  0.00    +0.051 C 
ENDROOT
BRANCH   1   2
ATOM      2  N   CYS A   1      37.859 -24.031 -15.480  0.00  0.00    +0.389 N 
ATOM      3  H1  CYS A   1      37.385 -24.073 -16.381  0.00  0.00    -0.088 HD
ATOM      4  H2  CYS A   1      38.846 -24.262 -15.604  0.00  0.00    -0.088 HD
ATOM      5  H3  CYS A   1      37.776 -23.089 -15.095  0.00  0.00    -0.088 HD
ENDBRANCH   1   2
BRANCH   1   8
ATOM      6  O   CYS A   1      38.219 -27.164 -14.679  0.00  0.00    -0.248 OA
ATOM      7  OXT CYS A   1      36.272 -26.782 -15.805  0.00  0.00    -0.248 OA
ATOM      8  C   CYS A   1      37.235 -26.464 -15.052  0.00  0.00    +0.346 C 
ENDBRANCH   1   8
BRANCH   1   9
ATOM      9  CB  CYS A   1      37.826 -24.792 -13.144  0.00  0.00    +0.043 C 
BRANCH   9  10
ATOM     10  SG  CYS A   1      37.134 -23.345 -12.278  0.00  0.00    -0.170 S 
ATOM     11  HG  CYS A   1      36.373 -23.764 -11.232  0.00  0.00    +0.102 HD
ENDBRANCH   9  10
ENDBRANCH   1   9
TORSDOF 4
ENDMDL
MODEL 9
REMARK VINA RESULT:      -3.9     10.822     11.351
REMARK  Name = 6419721
REMARK  4 active torsions:
REMARK  status: ('A' for Active; 'I' for Inactive)
REMARK    1  A    between atoms: CA_1  and  N_2
REMARK    2  A    between atoms: CA_1  and  C_8
REMARK    3  A    between atoms: CA_1  and  CB_9
REMARK    4  A    between atoms: CB_9  and  SG_10
REMARK                            x       y       z     vdW  Elec       q    Type
REMARK                         _______ _______ _______ _____ _____    ______ ____
ROOT
ATOM      1  CA  CYS A   1      41.853 -14.456 -16.229  0.00  0.00    +0.051 C 
ENDROOT
BRANCH   1   2
ATOM      2  N   CYS A   1      42.059 -12.999 -15.951  0.00  0.00    +0.389 N 
ATOM      3  H1  CYS A   1      42.408 -12.880 -15.000  0.00  0.00    -0.088 HD
ATOM      4  H2  CYS A   1      41.171 -12.505 -16.051  0.00  0.00    -0.088 HD
ATOM      5  H3  CYS A   1      42.736 -12.618 -16.612  0.00  0.00    -0.088 HD
ENDBRANCH   1   2
BRANCH   1   8
ATOM      6  O   CYS A   1      40.749 -14.540 -14.132  0.00  0.00    -0.248 OA
ATOM      7  OXT CYS A   1      40.502 -16.298 -15.565  0.00  0.00    -0.248 OA
ATOM      8  C   CYS A   1      40.938 -15.165 -15.214  0.00  0.00    +0.346 C 
ENDBRANCH   1   8
BRANCH   1   9
ATOM      9  CB  CYS A   1      41.471 -14.618 -17.704  0.00  0.00    +0.043 C 
BRANCH   9  10
ATOM     10  SG  CYS A   1      42.406 -15.929 -18.558  0.00  0.00    -0.170 S 
ATOM     11  HG  CYS A   1      41.539 -16.787 -19.158  0.00  0.00    +0.102 HD
ENDBRANCH   9  10
ENDBRANCH   1   9
TORSDOF 4
ENDMDL
