MODEL 1
REMARK VINA RESULT:      -9.5      0.000      0.000
REMARK  Name = 25011729
REMARK  3 active torsions:
REMARK  status: ('A' for Active; 'I' for Inactive)
REMARK    1  A    between atoms: N_1  and  C_15
REMARK    2  A    between atoms: N_2  and  C_22
REMARK    3  A    between atoms: C_21  and  S_27
REMARK                            x       y       z     vdW  Elec       q    Type
REMARK                         _______ _______ _______ _____ _____    ______ ____
ROOT
ATOM      1  N   UNL     1      32.469 -10.360 -23.394  0.00  0.00    -0.284 N 
ATOM      2  N   UNL     1      32.835 -14.265 -20.765  0.00  0.00    -0.247 N 
ATOM      3  N   UNL     1      32.665 -12.335 -22.089  0.00  0.00    -0.322 NA
ATOM      4  N   UNL     1      31.691 -12.415 -19.886  0.00  0.00    -0.170 NA
ATOM      5  C   UNL     1      32.211 -11.070 -22.204  0.00  0.00    +0.198 C 
ATOM      6  C   UNL     1      32.374 -12.940 -20.922  0.00  0.00    +0.150 C 
ATOM      7  C   UNL     1      31.498 -10.420 -21.218  0.00  0.00    +0.070 C 
ATOM      8  C   UNL     1      31.265 -11.148 -20.070  0.00  0.00    +0.116 C 
ATOM      9  H   UNL     1      31.777  -9.696 -23.617  0.00  0.00    +0.155 HD
ATOM     10  H   UNL     1      32.599 -14.667 -19.898  0.00  0.00    +0.165 HD
ENDROOT
BRANCH   1  15
ATOM     11 CL   UNL     1      34.531  -8.113 -23.262  0.00  0.00    -0.081 Cl
ATOM     12  O   UNL     1      32.704 -12.469 -25.357  0.00  0.00    -0.433 OA
ATOM     13  O   UNL     1      34.479 -12.607 -26.981  0.00  0.00    -0.435 OA
ATOM     14  C   UNL     1      33.587 -11.439 -25.246  0.00  0.00    +0.191 C 
ATOM     15  C   UNL     1      33.521 -10.412 -24.328  0.00  0.00    +0.098 C 
ATOM     16  C   UNL     1      34.601 -11.518 -26.174  0.00  0.00    +0.178 C 
ATOM     17  C   UNL     1      34.525  -9.441 -24.368  0.00  0.00    +0.074 C 
ATOM     18  C   UNL     1      35.605 -10.573 -26.234  0.00  0.00    +0.041 C 
ATOM     19  C   UNL     1      33.276 -13.205 -26.459  0.00  0.00    +0.429 C 
ATOM     20  C   UNL     1      35.561  -9.521 -25.315  0.00  0.00    +0.016 C 
ENDBRANCH   1  15
BRANCH   2  22
ATOM     21  C   UNL     1      34.526 -17.296 -22.055  0.00  0.00    +0.107 C 
ATOM     22  C   UNL     1      33.564 -15.125 -21.607  0.00  0.00    +0.059 C 
ATOM     23  C   UNL     1      33.803 -16.443 -21.220  0.00  0.00    +0.034 C 
ATOM     24  C   UNL     1      35.010 -16.829 -23.277  0.00  0.00    +0.018 C 
ATOM     25  C   UNL     1      34.049 -14.659 -22.830  0.00  0.00    +0.015 C 
ATOM     26  C   UNL     1      34.771 -15.511 -23.665  0.00  0.00    +0.003 C 
BRANCH  21  27
ATOM     27  S   UNL     1      34.824 -18.947 -21.571  0.00  0.00    +0.010 S 
ATOM     28  O   UNL     1      35.015 -19.740 -22.777  0.00  0.00    -0.169 OA
ATOM     29  O   UNL     1      35.844 -18.956 -20.530  0.00  0.00    -0.169 OA
ATOM     30  C   UNL     1      33.303 -19.466 -20.809  0.00  0.00    +0.182 C 
ENDBRANCH  21  27
ENDBRANCH   2  22
TORSDOF 3
ENDMDL
MODEL 2
REMARK VINA RESULT:      -8.9      9.863     12.600
REMARK  Name = 25011729
REMARK  3 active torsions:
REMARK  status: ('A' for Active; 'I' for Inactive)
REMARK    1  A    between atoms: N_1  and  C_15
REMARK    2  A    between atoms: N_2  and  C_22
REMARK    3  A    between atoms: C_21  and  S_27
REMARK                            x       y       z     vdW  Elec       q    Type
REMARK                         _______ _______ _______ _____ _____    ______ ____
ROOT
ATOM      1  N   UNL     1      32.672 -22.599 -18.111  0.00  0.00    -0.284 N 
ATOM      2  N   UNL     1      33.154 -23.862 -13.587  0.00  0.00    -0.247 N 
ATOM      3  N   UNL     1      32.938 -23.236 -15.838  0.00  0.00    -0.322 NA
ATOM      4  N   UNL     1      30.999 -23.450 -14.422  0.00  0.00    -0.170 NA
ATOM      5  C   UNL     1      32.114 -22.891 -16.850  0.00  0.00    +0.198 C 
ATOM      6  C   UNL     1      32.323 -23.499 -14.669  0.00  0.00    +0.150 C 
ATOM      7  C   UNL     1      30.743 -22.807 -16.727  0.00  0.00    +0.070 C 
ATOM      8  C   UNL     1      30.236 -23.100 -15.477  0.00  0.00    +0.116 C 
ATOM      9  H   UNL     1      32.076 -22.813 -18.866  0.00  0.00    +0.155 HD
ATOM     10  H   UNL     1      32.662 -24.045 -12.754  0.00  0.00    +0.165 HD
ENDROOT
BRANCH   1  15
ATOM     11 CL   UNL     1      32.670 -20.837 -20.604  0.00  0.00    -0.081 Cl
ATOM     12  O   UNL     1      35.122 -23.116 -16.667  0.00  0.00    -0.433 OA
ATOM     13  O   UNL     1      37.272 -22.229 -17.299  0.00  0.00    -0.435 OA
ATOM     14  C   UNL     1      35.053 -22.341 -17.784  0.00  0.00    +0.191 C 
ATOM     15  C   UNL     1      33.912 -22.064 -18.507  0.00  0.00    +0.098 C 
ATOM     16  C   UNL     1      36.281 -21.835 -18.145  0.00  0.00    +0.178 C 
ATOM     17  C   UNL     1      34.040 -21.243 -19.631  0.00  0.00    +0.074 C 
ATOM     18  C   UNL     1      36.435 -21.021 -19.249  0.00  0.00    +0.041 C 
ATOM     19  C   UNL     1      36.531 -23.040 -16.365  0.00  0.00    +0.429 C 
ATOM     20  C   UNL     1      35.294 -20.725 -19.999  0.00  0.00    +0.016 C 
ENDBRANCH   1  15
BRANCH   2  22
ATOM     21  C   UNL     1      36.563 -25.267 -13.927  0.00  0.00    +0.107 C 
ATOM     22  C   UNL     1      34.547 -24.015 -13.466  0.00  0.00    +0.059 C 
ATOM     23  C   UNL     1      35.181 -25.114 -14.046  0.00  0.00    +0.034 C 
ATOM     24  C   UNL     1      37.310 -24.319 -13.227  0.00  0.00    +0.018 C 
ATOM     25  C   UNL     1      35.296 -23.069 -12.767  0.00  0.00    +0.015 C 
ATOM     26  C   UNL     1      36.677 -23.220 -12.648  0.00  0.00    +0.003 C 
BRANCH  21  27
ATOM     27  S   UNL     1      37.356 -26.641 -14.653  0.00  0.00    +0.010 S 
ATOM     28  O   UNL     1      37.373 -27.719 -13.673  0.00  0.00    -0.169 OA
ATOM     29  O   UNL     1      36.786 -26.873 -15.973  0.00  0.00    -0.169 OA
ATOM     30  C   UNL     1      39.033 -26.103 -14.901  0.00  0.00    +0.182 C 
ENDBRANCH  21  27
ENDBRANCH   2  22
TORSDOF 3
ENDMDL
MODEL 3
REMARK VINA RESULT:      -8.8      8.841     12.264
REMARK  Name = 25011729
REMARK  3 active torsions:
REMARK  status: ('A' for Active; 'I' for Inactive)
REMARK    1  A    between atoms: N_1  and  C_15
REMARK    2  A    between atoms: N_2  and  C_22
REMARK    3  A    between atoms: C_21  and  S_27
REMARK                            x       y       z     vdW  Elec       q    Type
REMARK                         _______ _______ _______ _____ _____    ______ ____
ROOT
ATOM      1  N   UNL     1      32.352 -22.690 -18.018  0.00  0.00    -0.284 N 
ATOM      2  N   UNL     1      33.163 -23.830 -13.508  0.00  0.00    -0.247 N 
ATOM      3  N   UNL     1      32.783 -23.264 -15.754  0.00  0.00    -0.322 NA
ATOM      4  N   UNL     1      30.951 -23.458 -14.199  0.00  0.00    -0.170 NA
ATOM      5  C   UNL     1      31.887 -22.954 -16.713  0.00  0.00    +0.198 C 
ATOM      6  C   UNL     1      32.254 -23.502 -14.538  0.00  0.00    +0.150 C 
ATOM      7  C   UNL     1      30.527 -22.878 -16.496  0.00  0.00    +0.070 C 
ATOM      8  C   UNL     1      30.112 -23.142 -15.207  0.00  0.00    +0.116 C 
ATOM      9  H   UNL     1      31.707 -22.928 -18.724  0.00  0.00    +0.155 HD
ATOM     10  H   UNL     1      32.732 -23.995 -12.638  0.00  0.00    +0.165 HD
ENDROOT
BRANCH   1  15
ATOM     11 CL   UNL     1      34.936 -23.782 -16.814  0.00  0.00    -0.081 Cl
ATOM     12  O   UNL     1      32.421 -20.657 -20.072  0.00  0.00    -0.433 OA
ATOM     13  O   UNL     1      34.449 -19.702 -20.955  0.00  0.00    -0.435 OA
ATOM     14  C   UNL     1      33.534 -21.184 -19.494  0.00  0.00    +0.191 C 
ATOM     15  C   UNL     1      33.556 -22.154 -18.514  0.00  0.00    +0.098 C 
ATOM     16  C   UNL     1      34.693 -20.639 -19.999  0.00  0.00    +0.178 C 
ATOM     17  C   UNL     1      34.803 -22.573 -18.042  0.00  0.00    +0.074 C 
ATOM     18  C   UNL     1      35.937 -21.034 -19.551  0.00  0.00    +0.041 C 
ATOM     19  C   UNL     1      33.008 -19.718 -20.997  0.00  0.00    +0.429 C 
ATOM     20  C   UNL     1      35.986 -22.016 -18.558  0.00  0.00    +0.016 C 
ENDBRANCH   1  15
BRANCH   2  22
ATOM     21  C   UNL     1      36.550 -25.238 -14.010  0.00  0.00    +0.107 C 
ATOM     22  C   UNL     1      34.563 -23.969 -13.482  0.00  0.00    +0.059 C 
ATOM     23  C   UNL     1      35.162 -25.100 -14.035  0.00  0.00    +0.034 C 
ATOM     24  C   UNL     1      37.339 -24.242 -13.430  0.00  0.00    +0.018 C 
ATOM     25  C   UNL     1      35.352 -22.975 -12.903  0.00  0.00    +0.015 C 
ATOM     26  C   UNL     1      36.739 -23.111 -12.878  0.00  0.00    +0.003 C 
BRANCH  21  27
ATOM     27  S   UNL     1      37.301 -26.653 -14.702  0.00  0.00    +0.010 S 
ATOM     28  O   UNL     1      37.279 -27.709 -13.699  0.00  0.00    -0.169 OA
ATOM     29  O   UNL     1      36.728 -26.895 -16.019  0.00  0.00    -0.169 OA
ATOM     30  C   UNL     1      38.995 -26.175 -14.955  0.00  0.00    +0.182 C 
ENDBRANCH  21  27
ENDBRANCH   2  22
TORSDOF 3
ENDMDL
MODEL 4
REMARK VINA RESULT:      -8.5      9.628     12.489
REMARK  Name = 25011729
REMARK  3 active torsions:
REMARK  status: ('A' for Active; 'I' for Inactive)
REMARK    1  A    between atoms: N_1  and  C_15
REMARK    2  A    between atoms: N_2  and  C_22
REMARK    3  A    between atoms: C_21  and  S_27
REMARK                            x       y       z     vdW  Elec       q    Type
REMARK                         _______ _______ _______ _____ _____    ______ ____
ROOT
ATOM      1  N   UNL     1      32.650 -22.366 -18.394  0.00  0.00    -0.284 N 
ATOM      2  N   UNL     1      33.212 -24.315 -14.130  0.00  0.00    -0.247 N 
ATOM      3  N   UNL     1      32.956 -23.348 -16.253  0.00  0.00    -0.322 NA
ATOM      4  N   UNL     1      31.057 -23.678 -14.805  0.00  0.00    -0.170 NA
ATOM      5  C   UNL     1      32.120 -22.816 -17.167  0.00  0.00    +0.198 C 
ATOM      6  C   UNL     1      32.367 -23.753 -15.111  0.00  0.00    +0.150 C 
ATOM      7  C   UNL     1      30.760 -22.684 -16.977  0.00  0.00    +0.070 C 
ATOM      8  C   UNL     1      30.279 -23.136 -15.765  0.00  0.00    +0.116 C 
ATOM      9  H   UNL     1      32.019 -22.435 -19.147  0.00  0.00    +0.155 HD
ATOM     10  H   UNL     1      32.739 -24.597 -13.314  0.00  0.00    +0.165 HD
ENDROOT
BRANCH   1  15
ATOM     11 CL   UNL     1      32.723 -20.590 -20.876  0.00  0.00    -0.081 Cl
ATOM     12  O   UNL     1      35.060 -22.910 -16.893  0.00  0.00    -0.433 OA
ATOM     13  O   UNL     1      37.231 -22.038 -17.468  0.00  0.00    -0.435 OA
ATOM     14  C   UNL     1      35.024 -22.130 -18.007  0.00  0.00    +0.191 C 
ATOM     15  C   UNL     1      33.904 -21.838 -18.756  0.00  0.00    +0.098 C 
ATOM     16  C   UNL     1      36.265 -21.631 -18.335  0.00  0.00    +0.178 C 
ATOM     17  C   UNL     1      34.066 -21.013 -19.872  0.00  0.00    +0.074 C 
ATOM     18  C   UNL     1      36.452 -20.813 -19.431  0.00  0.00    +0.041 C 
ATOM     19  C   UNL     1      36.462 -22.848 -16.557  0.00  0.00    +0.429 C 
ATOM     20  C   UNL     1      35.333 -20.503 -20.207  0.00  0.00    +0.016 C 
ENDBRANCH   1  15
BRANCH   2  22
ATOM     21  C   UNL     1      36.772 -24.110 -13.131  0.00  0.00    +0.107 C 
ATOM     22  C   UNL     1      34.599 -24.553 -14.091  0.00  0.00    +0.059 C 
ATOM     23  C   UNL     1      35.397 -23.874 -13.171  0.00  0.00    +0.034 C 
ATOM     24  C   UNL     1      37.347 -25.026 -14.012  0.00  0.00    +0.018 C 
ATOM     25  C   UNL     1      35.175 -25.468 -14.972  0.00  0.00    +0.015 C 
ATOM     26  C   UNL     1      36.549 -25.706 -14.932  0.00  0.00    +0.003 C 
BRANCH  21  27
ATOM     27  S   UNL     1      37.772 -23.261 -11.979  0.00  0.00    +0.010 S 
ATOM     28  O   UNL     1      38.974 -24.053 -11.759  0.00  0.00    -0.169 OA
ATOM     29  O   UNL     1      37.889 -21.869 -12.392  0.00  0.00    -0.169 OA
ATOM     30  C   UNL     1      36.823 -23.276 -10.475  0.00  0.00    +0.182 C 
ENDBRANCH  21  27
ENDBRANCH   2  22
TORSDOF 3
ENDMDL
MODEL 5
REMARK VINA RESULT:      -8.4      2.606      4.703
REMARK  Name = 25011729
REMARK  3 active torsions:
REMARK  status: ('A' for Active; 'I' for Inactive)
REMARK    1  A    between atoms: N_1  and  C_15
REMARK    2  A    between atoms: N_2  and  C_22
REMARK    3  A    between atoms: C_21  and  S_27
REMARK                            x       y       z     vdW  Elec       q    Type
REMARK                         _______ _______ _______ _____ _____    ______ ____
ROOT
ATOM      1  N   UNL     1      33.001 -10.355 -23.301  0.00  0.00    -0.284 N 
ATOM      2  N   UNL     1      34.342 -14.779 -24.262  0.00  0.00    -0.247 N 
ATOM      3  N   UNL     1      33.676 -12.585 -23.762  0.00  0.00    -0.322 NA
ATOM      4  N   UNL     1      34.002 -13.289 -26.043  0.00  0.00    -0.170 NA
ATOM      5  C   UNL     1      33.344 -11.363 -24.225  0.00  0.00    +0.198 C 
ATOM      6  C   UNL     1      33.990 -13.487 -24.711  0.00  0.00    +0.150 C 
ATOM      7  C   UNL     1      33.320 -11.032 -25.564  0.00  0.00    +0.070 C 
ATOM      8  C   UNL     1      33.662 -12.045 -26.436  0.00  0.00    +0.116 C 
ATOM      9  H   UNL     1      33.223  -9.445 -23.607  0.00  0.00    +0.155 HD
ATOM     10  H   UNL     1      34.564 -15.404 -24.990  0.00  0.00    +0.165 HD
ENDROOT
BRANCH   1  15
ATOM     11 CL   UNL     1      31.634 -12.964 -22.499  0.00  0.00    -0.081 Cl
ATOM     12  O   UNL     1      33.046  -8.094 -21.500  0.00  0.00    -0.433 OA
ATOM     13  O   UNL     1      32.041  -8.096 -19.310  0.00  0.00    -0.435 OA
ATOM     14  C   UNL     1      32.454  -9.283 -21.205  0.00  0.00    +0.191 C 
ATOM     15  C   UNL     1      32.406 -10.390 -22.026  0.00  0.00    +0.098 C 
ATOM     16  C   UNL     1      31.879  -9.284 -19.953  0.00  0.00    +0.178 C 
ATOM     17  C   UNL     1      31.750 -11.526 -21.545  0.00  0.00    +0.074 C 
ATOM     18  C   UNL     1      31.226 -10.393 -19.455  0.00  0.00    +0.041 C 
ATOM     19  C   UNL     1      32.781  -7.346 -20.295  0.00  0.00    +0.429 C 
ATOM     20  C   UNL     1      31.164 -11.527 -20.267  0.00  0.00    +0.016 C 
ENDBRANCH   1  15
BRANCH   2  22
ATOM     21  C   UNL     1      34.657 -17.293 -21.562  0.00  0.00    +0.107 C 
ATOM     22  C   UNL     1      34.440 -15.347 -22.978  0.00  0.00    +0.059 C 
ATOM     23  C   UNL     1      34.559 -16.729 -22.835  0.00  0.00    +0.034 C 
ATOM     24  C   UNL     1      34.635 -16.473 -20.434  0.00  0.00    +0.018 C 
ATOM     25  C   UNL     1      34.418 -14.528 -21.849  0.00  0.00    +0.015 C 
ATOM     26  C   UNL     1      34.516 -15.091 -20.577  0.00  0.00    +0.003 C 
BRANCH  21  27
ATOM     27  S   UNL     1      34.806 -19.023 -21.382  0.00  0.00    +0.010 S 
ATOM     28  O   UNL     1      34.939 -19.603 -22.711  0.00  0.00    -0.169 OA
ATOM     29  O   UNL     1      35.811 -19.306 -20.366  0.00  0.00    -0.169 OA
ATOM     30  C   UNL     1      33.239 -19.535 -20.716  0.00  0.00    +0.182 C 
ENDBRANCH  21  27
ENDBRANCH   2  22
TORSDOF 3
ENDMDL
MODEL 6
REMARK VINA RESULT:      -8.2     11.079     14.149
REMARK  Name = 25011729
REMARK  3 active torsions:
REMARK  status: ('A' for Active; 'I' for Inactive)
REMARK    1  A    between atoms: N_1  and  C_15
REMARK    2  A    between atoms: N_2  and  C_22
REMARK    3  A    between atoms: C_21  and  S_27
REMARK                            x       y       z     vdW  Elec       q    Type
REMARK                         _______ _______ _______ _____ _____    ______ ____
ROOT
ATOM      1  N   UNL     1      31.417 -22.569 -16.856  0.00  0.00    -0.284 N 
ATOM      2  N   UNL     1      36.070 -23.371 -16.871  0.00  0.00    -0.247 N 
ATOM      3  N   UNL     1      33.756 -22.983 -16.843  0.00  0.00    -0.322 NA
ATOM      4  N   UNL     1      35.107 -22.277 -18.710  0.00  0.00    -0.170 NA
ATOM      5  C   UNL     1      32.680 -22.476 -17.478  0.00  0.00    +0.198 C 
ATOM      6  C   UNL     1      34.921 -22.851 -17.505  0.00  0.00    +0.150 C 
ATOM      7  C   UNL     1      32.736 -21.862 -18.712  0.00  0.00    +0.070 C 
ATOM      8  C   UNL     1      33.989 -21.790 -19.287  0.00  0.00    +0.116 C 
ATOM      9  H   UNL     1      30.806 -21.833 -17.091  0.00  0.00    +0.155 HD
ATOM     10  H   UNL     1      36.898 -23.251 -17.391  0.00  0.00    +0.165 HD
ENDROOT
BRANCH   1  15
ATOM     11 CL   UNL     1      28.569 -23.491 -17.452  0.00  0.00    -0.081 Cl
ATOM     12  O   UNL     1      32.856 -23.594 -14.568  0.00  0.00    -0.433 OA
ATOM     13  O   UNL     1      31.947 -25.193 -13.011  0.00  0.00    -0.435 OA
ATOM     14  C   UNL     1      31.585 -23.962 -14.888  0.00  0.00    +0.191 C 
ATOM     15  C   UNL     1      30.857 -23.505 -15.967  0.00  0.00    +0.098 C 
ATOM     16  C   UNL     1      31.066 -24.876 -13.999  0.00  0.00    +0.178 C 
ATOM     17  C   UNL     1      29.562 -24.002 -16.132  0.00  0.00    +0.074 C 
ATOM     18  C   UNL     1      29.790 -25.383 -14.140  0.00  0.00    +0.041 C 
ATOM     19  C   UNL     1      33.078 -24.378 -13.377  0.00  0.00    +0.429 C 
ATOM     20  C   UNL     1      29.032 -24.936 -15.224  0.00  0.00    +0.016 C 
ENDBRANCH   1  15
BRANCH   2  22
ATOM     21  C   UNL     1      37.022 -23.984 -13.346  0.00  0.00    +0.107 C 
ATOM     22  C   UNL     1      36.265 -24.025 -15.640  0.00  0.00    +0.059 C 
ATOM     23  C   UNL     1      36.829 -23.336 -14.567  0.00  0.00    +0.034 C 
ATOM     24  C   UNL     1      36.650 -25.321 -13.200  0.00  0.00    +0.018 C 
ATOM     25  C   UNL     1      35.894 -25.361 -15.494  0.00  0.00    +0.015 C 
ATOM     26  C   UNL     1      36.086 -26.009 -14.274  0.00  0.00    +0.003 C 
BRANCH  21  27
ATOM     27  S   UNL     1      37.727 -23.123 -12.001  0.00  0.00    +0.010 S 
ATOM     28  O   UNL     1      38.934 -23.832 -11.597  0.00  0.00    -0.169 OA
ATOM     29  O   UNL     1      37.798 -21.706 -12.333  0.00  0.00    -0.169 OA
ATOM     30  C   UNL     1      36.532 -23.289 -10.695  0.00  0.00    +0.182 C 
ENDBRANCH  21  27
ENDBRANCH   2  22
TORSDOF 3
ENDMDL
MODEL 7
REMARK VINA RESULT:      -8.2     11.763     14.905
REMARK  Name = 25011729
REMARK  3 active torsions:
REMARK  status: ('A' for Active; 'I' for Inactive)
REMARK    1  A    between atoms: N_1  and  C_15
REMARK    2  A    between atoms: N_2  and  C_22
REMARK    3  A    between atoms: C_21  and  S_27
REMARK                            x       y       z     vdW  Elec       q    Type
REMARK                         _______ _______ _______ _____ _____    ______ ____
ROOT
ATOM      1  N   UNL     1      37.744 -24.162 -15.482  0.00  0.00    -0.284 N 
ATOM      2  N   UNL     1      33.495 -22.595 -16.817  0.00  0.00    -0.247 N 
ATOM      3  N   UNL     1      35.596 -23.389 -16.139  0.00  0.00    -0.322 NA
ATOM      4  N   UNL     1      35.407 -21.632 -17.778  0.00  0.00    -0.170 NA
ATOM      5  C   UNL     1      36.937 -23.306 -16.259  0.00  0.00    +0.198 C 
ATOM      6  C   UNL     1      34.901 -22.536 -16.916  0.00  0.00    +0.150 C 
ATOM      7  C   UNL     1      37.577 -22.425 -17.105  0.00  0.00    +0.070 C 
ATOM      8  C   UNL     1      36.753 -21.604 -17.848  0.00  0.00    +0.116 C 
ATOM      9  H   UNL     1      38.600 -24.395 -15.910  0.00  0.00    +0.155 HD
ATOM     10  H   UNL     1      33.029 -21.955 -17.403  0.00  0.00    +0.165 HD
ENDROOT
BRANCH   1  15
ATOM     11 CL   UNL     1      37.293 -27.181 -15.428  0.00  0.00    -0.081 Cl
ATOM     12  O   UNL     1      37.800 -22.631 -13.031  0.00  0.00    -0.433 OA
ATOM     13  O   UNL     1      37.503 -23.587 -10.838  0.00  0.00    -0.435 OA
ATOM     14  C   UNL     1      37.603 -23.977 -13.076  0.00  0.00    +0.191 C 
ATOM     15  C   UNL     1      37.568 -24.752 -14.216  0.00  0.00    +0.098 C 
ATOM     16  C   UNL     1      37.433 -24.523 -11.824  0.00  0.00    +0.178 C 
ATOM     17  C   UNL     1      37.354 -26.124 -14.061  0.00  0.00    +0.074 C 
ATOM     18  C   UNL     1      37.220 -25.874 -11.643  0.00  0.00    +0.041 C 
ATOM     19  C   UNL     1      37.735 -22.391 -11.609  0.00  0.00    +0.429 C 
ATOM     20  C   UNL     1      37.181 -26.682 -12.782  0.00  0.00    +0.016 C 
ENDBRANCH   1  15
BRANCH   2  22
ATOM     21  C   UNL     1      30.398 -24.180 -15.550  0.00  0.00    +0.107 C 
ATOM     22  C   UNL     1      32.627 -23.390 -16.045  0.00  0.00    +0.059 C 
ATOM     23  C   UNL     1      31.259 -23.392 -16.315  0.00  0.00    +0.034 C 
ATOM     24  C   UNL     1      30.907 -24.966 -14.516  0.00  0.00    +0.018 C 
ATOM     25  C   UNL     1      33.135 -24.175 -15.010  0.00  0.00    +0.015 C 
ATOM     26  C   UNL     1      32.275 -24.964 -14.246  0.00  0.00    +0.003 C 
BRANCH  21  27
ATOM     27  S   UNL     1      28.685 -24.185 -15.888  0.00  0.00    +0.010 S 
ATOM     28  O   UNL     1      28.505 -24.530 -17.291  0.00  0.00    -0.169 OA
ATOM     29  O   UNL     1      28.003 -24.960 -14.860  0.00  0.00    -0.169 OA
ATOM     30  C   UNL     1      28.188 -22.491 -15.673  0.00  0.00    +0.182 C 
ENDBRANCH  21  27
ENDBRANCH   2  22
TORSDOF 3
ENDMDL
MODEL 8
REMARK VINA RESULT:      -8.0      8.567     12.198
REMARK  Name = 25011729
REMARK  3 active torsions:
REMARK  status: ('A' for Active; 'I' for Inactive)
REMARK    1  A    between atoms: N_1  and  C_15
REMARK    2  A    between atoms: N_2  and  C_22
REMARK    3  A    between atoms: C_21  and  S_27
REMARK                            x       y       z     vdW  Elec       q    Type
REMARK                         _______ _______ _______ _____ _____    ______ ____
ROOT
ATOM      1  N   UNL     1      32.052 -22.407 -18.258  0.00  0.00    -0.284 N 
ATOM      2  N   UNL     1      32.780 -24.043 -13.889  0.00  0.00    -0.247 N 
ATOM      3  N   UNL     1      32.441 -23.233 -16.065  0.00  0.00    -0.322 NA
ATOM      4  N   UNL     1      30.617 -23.366 -14.495  0.00  0.00    -0.170 NA
ATOM      5  C   UNL     1      31.575 -22.737 -16.972  0.00  0.00    +0.198 C 
ATOM      6  C   UNL     1      31.903 -23.523 -14.865  0.00  0.00    +0.150 C 
ATOM      7  C   UNL     1      30.234 -22.531 -16.720  0.00  0.00    +0.070 C 
ATOM      8  C   UNL     1      29.807 -22.867 -15.451  0.00  0.00    +0.116 C 
ATOM      9  H   UNL     1      31.376 -22.506 -18.968  0.00  0.00    +0.155 HD
ATOM     10  H   UNL     1      32.344 -24.240 -13.029  0.00  0.00    +0.165 HD
ENDROOT
BRANCH   1  15
ATOM     11 CL   UNL     1      34.508 -23.908 -17.241  0.00  0.00    -0.081 Cl
ATOM     12  O   UNL     1      32.327 -20.192 -20.095  0.00  0.00    -0.433 OA
ATOM     13  O   UNL     1      34.439 -19.390 -20.931  0.00  0.00    -0.435 OA
ATOM     14  C   UNL     1      33.379 -20.901 -19.604  0.00  0.00    +0.191 C 
ATOM     15  C   UNL     1      33.302 -21.964 -18.728  0.00  0.00    +0.098 C 
ATOM     16  C   UNL     1      34.586 -20.443 -20.081  0.00  0.00    +0.178 C 
ATOM     17  C   UNL     1      34.499 -22.569 -18.336  0.00  0.00    +0.074 C 
ATOM     18  C   UNL     1      35.782 -21.023 -19.710  0.00  0.00    +0.041 C 
ATOM     19  C   UNL     1      33.006 -19.236 -20.935  0.00  0.00    +0.429 C 
ATOM     20  C   UNL     1      35.731 -22.101 -18.823  0.00  0.00    +0.016 C 
ENDBRANCH   1  15
BRANCH   2  22
ATOM     21  C   UNL     1      36.364 -24.081 -12.957  0.00  0.00    +0.107 C 
ATOM     22  C   UNL     1      34.156 -24.338 -13.906  0.00  0.00    +0.059 C 
ATOM     23  C   UNL     1      34.999 -23.788 -12.941  0.00  0.00    +0.034 C 
ATOM     24  C   UNL     1      36.884 -24.924 -13.940  0.00  0.00    +0.018 C 
ATOM     25  C   UNL     1      34.678 -25.180 -14.888  0.00  0.00    +0.015 C 
ATOM     26  C   UNL     1      36.041 -25.473 -14.905  0.00  0.00    +0.003 C 
BRANCH  21  27
ATOM     27  S   UNL     1      37.419 -23.394 -11.748  0.00  0.00    +0.010 S 
ATOM     28  O   UNL     1      37.706 -22.019 -12.132  0.00  0.00    -0.169 OA
ATOM     29  O   UNL     1      36.872 -23.676 -10.428  0.00  0.00    -0.169 OA
ATOM     30  C   UNL     1      38.925 -24.329 -11.894  0.00  0.00    +0.182 C 
ENDBRANCH  21  27
ENDBRANCH   2  22
TORSDOF 3
ENDMDL
MODEL 9
REMARK VINA RESULT:      -8.0      7.949     11.293
REMARK  Name = 25011729
REMARK  3 active torsions:
REMARK  status: ('A' for Active; 'I' for Inactive)
REMARK    1  A    between atoms: N_1  and  C_15
REMARK    2  A    between atoms: N_2  and  C_22
REMARK    3  A    between atoms: C_21  and  S_27
REMARK                            x       y       z     vdW  Elec       q    Type
REMARK                         _______ _______ _______ _____ _____    ______ ____
ROOT
ATOM      1  N   UNL     1      32.466 -22.049 -18.930  0.00  0.00    -0.284 N 
ATOM      2  N   UNL     1      34.269 -23.537 -14.828  0.00  0.00    -0.247 N 
ATOM      3  N   UNL     1      33.395 -22.795 -16.875  0.00  0.00    -0.322 NA
ATOM      4  N   UNL     1      31.938 -23.387 -15.049  0.00  0.00    -0.170 NA
ATOM      5  C   UNL     1      32.299 -22.505 -17.606  0.00  0.00    +0.198 C 
ATOM      6  C   UNL     1      33.146 -23.225 -15.623  0.00  0.00    +0.150 C 
ATOM      7  C   UNL     1      31.009 -22.630 -17.136  0.00  0.00    +0.070 C 
ATOM      8  C   UNL     1      30.887 -23.080 -15.837  0.00  0.00    +0.116 C 
ATOM      9  H   UNL     1      31.724 -22.294 -19.530  0.00  0.00    +0.155 HD
ATOM     10  H   UNL     1      34.040 -23.847 -13.922  0.00  0.00    +0.165 HD
ENDROOT
BRANCH   1  15
ATOM     11 CL   UNL     1      35.262 -23.273 -18.910  0.00  0.00    -0.081 Cl
ATOM     12  O   UNL     1      31.977 -19.500 -20.203  0.00  0.00    -0.433 OA
ATOM     13  O   UNL     1      33.678 -18.194 -21.302  0.00  0.00    -0.435 OA
ATOM     14  C   UNL     1      33.198 -20.099 -20.157  0.00  0.00    +0.191 C 
ATOM     15  C   UNL     1      33.483 -21.312 -19.566  0.00  0.00    +0.098 C 
ATOM     16  C   UNL     1      34.170 -19.353 -20.785  0.00  0.00    +0.178 C 
ATOM     17  C   UNL     1      34.803 -21.767 -19.623  0.00  0.00    +0.074 C 
ATOM     18  C   UNL     1      35.480 -19.780 -20.856  0.00  0.00    +0.041 C 
ATOM     19  C   UNL     1      32.289 -18.293 -20.929  0.00  0.00    +0.429 C 
ATOM     20  C   UNL     1      35.796 -21.005 -20.264  0.00  0.00    +0.016 C 
ENDBRANCH   1  15
BRANCH   2  22
ATOM     21  C   UNL     1      37.865 -24.421 -14.773  0.00  0.00    +0.107 C 
ATOM     22  C   UNL     1      35.654 -23.494 -15.077  0.00  0.00    +0.059 C 
ATOM     23  C   UNL     1      36.492 -24.463 -14.526  0.00  0.00    +0.034 C 
ATOM     24  C   UNL     1      38.398 -23.408 -15.571  0.00  0.00    +0.018 C 
ATOM     25  C   UNL     1      36.188 -22.482 -15.874  0.00  0.00    +0.015 C 
ATOM     26  C   UNL     1      37.560 -22.439 -16.122  0.00  0.00    +0.003 C 
BRANCH  21  27
ATOM     27  S   UNL     1      38.915 -25.634 -14.085  0.00  0.00    +0.010 S 
ATOM     28  O   UNL     1      38.648 -26.895 -14.763  0.00  0.00    -0.169 OA
ATOM     29  O   UNL     1      40.273 -25.111 -14.039  0.00  0.00    -0.169 OA
ATOM     30  C   UNL     1      38.363 -25.791 -12.402  0.00  0.00    +0.182 C 
ENDBRANCH  21  27
ENDBRANCH   2  22
TORSDOF 3
ENDMDL
