MODEL 1
REMARK VINA RESULT:      -8.5      0.000      0.000
REMARK  Name = 56032
REMARK  2 active torsions:
REMARK  status: ('A' for Active; 'I' for Inactive)
REMARK    1  A    between atoms: C_1  and  C_9
REMARK    2  A    between atoms: C_9  and  C_12
REMARK                            x       y       z     vdW  Elec       q    Type
REMARK                         _______ _______ _______ _____ _____    ______ ____
ROOT
ATOM      1  C   UNL     1      34.929 -19.495 -21.067  0.00  0.00    -0.021 C 
ATOM      2  C   UNL     1      35.304 -20.564 -20.253  0.00  0.00    -0.029 C 
ATOM      3  C   UNL     1      34.334 -21.289 -19.562  0.00  0.00    -0.026 C 
ATOM      4  C   UNL     1      33.583 -19.151 -21.189  0.00  0.00    -0.004 C 
ATOM      5  C   UNL     1      36.747 -20.934 -20.124  0.00  0.00    +0.030 C 
ATOM      6  C   UNL     1      32.987 -20.944 -19.684  0.00  0.00    -0.005 C 
ATOM      7  C   UNL     1      32.612 -19.875 -20.498  0.00  0.00    -0.001 C 
ATOM      8  C   UNL     1      34.708 -22.438 -18.684  0.00  0.00    +0.031 C 
ENDROOT
BRANCH   1   9
ATOM      9  C   UNL     1      35.949 -18.702 -21.817  0.00  0.00    +0.068 C 
BRANCH   9  12
ATOM     10  N   UNL     1      35.406 -16.835 -23.374  0.00  0.00    -0.318 N 
ATOM     11  N   UNL     1      34.613 -17.861 -25.179  0.00  0.00    -0.315 N 
ATOM     12  C   UNL     1      35.436 -18.156 -23.134  0.00  0.00    +0.042 C 
ATOM     13  C   UNL     1      34.957 -18.784 -24.224  0.00  0.00    +0.069 C 
ATOM     14  C   UNL     1      34.895 -16.697 -24.635  0.00  0.00    +0.182 C 
ATOM     15  H   UNL     1      35.692 -16.115 -22.767  0.00  0.00    +0.148 HD
ATOM     16  H   UNL     1      34.238 -18.031 -26.072  0.00  0.00    +0.148 HD
ENDBRANCH   9  12
ENDBRANCH   1   9
TORSDOF 2
ENDMDL
MODEL 2
REMARK VINA RESULT:      -8.4      1.827      2.240
REMARK  Name = 56032
REMARK  2 active torsions:
REMARK  status: ('A' for Active; 'I' for Inactive)
REMARK    1  A    between atoms: C_1  and  C_9
REMARK    2  A    between atoms: C_9  and  C_12
REMARK                            x       y       z     vdW  Elec       q    Type
REMARK                         _______ _______ _______ _____ _____    ______ ____
ROOT
ATOM      1  C   UNL     1      34.737 -19.357 -21.337  0.00  0.00    -0.021 C 
ATOM      2  C   UNL     1      35.601 -20.072 -20.505  0.00  0.00    -0.029 C 
ATOM      3  C   UNL     1      35.091 -21.028 -19.628  0.00  0.00    -0.026 C 
ATOM      4  C   UNL     1      33.365 -19.601 -21.291  0.00  0.00    -0.004 C 
ATOM      5  C   UNL     1      37.073 -19.812 -20.556  0.00  0.00    +0.030 C 
ATOM      6  C   UNL     1      33.718 -21.271 -19.582  0.00  0.00    -0.005 C 
ATOM      7  C   UNL     1      32.855 -20.557 -20.413  0.00  0.00    -0.001 C 
ATOM      8  C   UNL     1      35.993 -21.807 -18.727  0.00  0.00    +0.031 C 
ENDROOT
BRANCH   1   9
ATOM      9  C   UNL     1      35.258 -18.327 -22.285  0.00  0.00    +0.068 C 
BRANCH   9  12
ATOM     10  N   UNL     1      34.895 -16.551 -20.578  0.00  0.00    -0.318 N 
ATOM     11  N   UNL     1      34.399 -14.749 -21.780  0.00  0.00    -0.315 N 
ATOM     12  C   UNL     1      34.926 -16.908 -21.872  0.00  0.00    +0.042 C 
ATOM     13  C   UNL     1      34.626 -15.821 -22.607  0.00  0.00    +0.069 C 
ATOM     14  C   UNL     1      34.567 -15.223 -20.565  0.00  0.00    +0.182 C 
ATOM     15  H   UNL     1      35.070 -17.126 -19.799  0.00  0.00    +0.148 HD
ATOM     16  H   UNL     1      34.162 -13.830 -22.039  0.00  0.00    +0.148 HD
ENDBRANCH   9  12
ENDBRANCH   1   9
TORSDOF 2
ENDMDL
MODEL 3
REMARK VINA RESULT:      -8.3      2.463      5.330
REMARK  Name = 56032
REMARK  2 active torsions:
REMARK  status: ('A' for Active; 'I' for Inactive)
REMARK    1  A    between atoms: C_1  and  C_9
REMARK    2  A    between atoms: C_9  and  C_12
REMARK                            x       y       z     vdW  Elec       q    Type
REMARK                         _______ _______ _______ _____ _____    ______ ____
ROOT
ATOM      1  C   UNL     1      35.151 -18.248 -22.523  0.00  0.00    -0.021 C 
ATOM      2  C   UNL     1      34.793 -16.902 -22.446  0.00  0.00    -0.029 C 
ATOM      3  C   UNL     1      34.377 -16.224 -23.592  0.00  0.00    -0.026 C 
ATOM      4  C   UNL     1      35.091 -18.917 -23.745  0.00  0.00    -0.004 C 
ATOM      5  C   UNL     1      34.855 -16.186 -21.135  0.00  0.00    +0.030 C 
ATOM      6  C   UNL     1      34.318 -16.894 -24.815  0.00  0.00    -0.005 C 
ATOM      7  C   UNL     1      34.676 -18.240 -24.891  0.00  0.00    -0.001 C 
ATOM      8  C   UNL     1      33.989 -14.783 -23.538  0.00  0.00    +0.031 C 
ENDROOT
BRANCH   1   9
ATOM      9  C   UNL     1      35.600 -18.997 -21.310  0.00  0.00    +0.068 C 
BRANCH   9  12
ATOM     10  N   UNL     1      34.823 -20.945 -19.967  0.00  0.00    -0.318 N 
ATOM     11  N   UNL     1      32.607 -20.794 -20.043  0.00  0.00    -0.315 N 
ATOM     12  C   UNL     1      34.517 -19.864 -20.703  0.00  0.00    +0.042 C 
ATOM     13  C   UNL     1      33.175 -19.766 -20.754  0.00  0.00    +0.069 C 
ATOM     14  C   UNL     1      33.627 -21.485 -19.583  0.00  0.00    +0.182 C 
ATOM     15  H   UNL     1      35.723 -21.279 -19.749  0.00  0.00    +0.148 HD
ATOM     16  H   UNL     1      31.650 -20.973 -19.907  0.00  0.00    +0.148 HD
ENDBRANCH   9  12
ENDBRANCH   1   9
TORSDOF 2
ENDMDL
MODEL 4
REMARK VINA RESULT:      -8.3      1.035      2.329
REMARK  Name = 56032
REMARK  2 active torsions:
REMARK  status: ('A' for Active; 'I' for Inactive)
REMARK    1  A    between atoms: C_1  and  C_9
REMARK    2  A    between atoms: C_9  and  C_12
REMARK                            x       y       z     vdW  Elec       q    Type
REMARK                         _______ _______ _______ _____ _____    ______ ____
ROOT
ATOM      1  C   UNL     1      34.945 -18.951 -20.934  0.00  0.00    -0.021 C 
ATOM      2  C   UNL     1      34.154 -19.998 -20.458  0.00  0.00    -0.029 C 
ATOM      3  C   UNL     1      34.755 -21.132 -19.913  0.00  0.00    -0.026 C 
ATOM      4  C   UNL     1      36.335 -19.038 -20.863  0.00  0.00    -0.004 C 
ATOM      5  C   UNL     1      32.664 -19.902 -20.533  0.00  0.00    +0.030 C 
ATOM      6  C   UNL     1      36.146 -21.220 -19.843  0.00  0.00    -0.005 C 
ATOM      7  C   UNL     1      36.935 -20.173 -20.318  0.00  0.00    -0.001 C 
ATOM      8  C   UNL     1      33.933 -22.267 -19.397  0.00  0.00    +0.031 C 
ENDROOT
BRANCH   1   9
ATOM      9  C   UNL     1      34.327 -17.725 -21.524  0.00  0.00    +0.068 C 
BRANCH   9  12
ATOM     10  N   UNL     1      34.422 -18.622 -23.845  0.00  0.00    -0.318 N 
ATOM     11  N   UNL     1      35.055 -16.877 -25.065  0.00  0.00    -0.315 N 
ATOM     12  C   UNL     1      34.577 -17.581 -23.011  0.00  0.00    +0.042 C 
ATOM     13  C   UNL     1      34.961 -16.520 -23.743  0.00  0.00    +0.069 C 
ATOM     14  C   UNL     1      34.725 -18.149 -25.092  0.00  0.00    +0.182 C 
ATOM     15  H   UNL     1      34.147 -19.537 -23.608  0.00  0.00    +0.148 HD
ATOM     16  H   UNL     1      35.313 -16.307 -25.824  0.00  0.00    +0.148 HD
ENDBRANCH   9  12
ENDBRANCH   1   9
TORSDOF 2
ENDMDL
MODEL 5
REMARK VINA RESULT:      -8.2      2.574      5.236
REMARK  Name = 56032
REMARK  2 active torsions:
REMARK  status: ('A' for Active; 'I' for Inactive)
REMARK    1  A    between atoms: C_1  and  C_9
REMARK    2  A    between atoms: C_9  and  C_12
REMARK                            x       y       z     vdW  Elec       q    Type
REMARK                         _______ _______ _______ _____ _____    ______ ____
ROOT
ATOM      1  C   UNL     1      35.184 -17.874 -21.810  0.00  0.00    -0.021 C 
ATOM      2  C   UNL     1      34.927 -17.763 -23.177  0.00  0.00    -0.029 C 
ATOM      3  C   UNL     1      34.485 -16.550 -23.706  0.00  0.00    -0.026 C 
ATOM      4  C   UNL     1      35.001 -16.774 -20.974  0.00  0.00    -0.004 C 
ATOM      5  C   UNL     1      35.125 -18.943 -24.074  0.00  0.00    +0.030 C 
ATOM      6  C   UNL     1      34.301 -15.449 -22.869  0.00  0.00    -0.005 C 
ATOM      7  C   UNL     1      34.559 -15.562 -21.503  0.00  0.00    -0.001 C 
ATOM      8  C   UNL     1      34.201 -16.403 -25.165  0.00  0.00    +0.031 C 
ENDROOT
BRANCH   1   9
ATOM      9  C   UNL     1      35.658 -19.162 -21.218  0.00  0.00    +0.068 C 
BRANCH   9  12
ATOM     10  N   UNL     1      34.810 -21.030 -19.806  0.00  0.00    -0.318 N 
ATOM     11  N   UNL     1      32.601 -20.881 -19.997  0.00  0.00    -0.315 N 
ATOM     12  C   UNL     1      34.543 -19.992 -20.616  0.00  0.00    +0.042 C 
ATOM     13  C   UNL     1      33.206 -19.896 -20.737  0.00  0.00    +0.069 C 
ATOM     14  C   UNL     1      33.594 -21.546 -19.450  0.00  0.00    +0.182 C 
ATOM     15  H   UNL     1      35.697 -21.352 -19.526  0.00  0.00    +0.148 HD
ATOM     16  H   UNL     1      31.637 -21.052 -19.898  0.00  0.00    +0.148 HD
ENDBRANCH   9  12
ENDBRANCH   1   9
TORSDOF 2
ENDMDL
MODEL 6
REMARK VINA RESULT:      -8.0      1.824      3.020
REMARK  Name = 56032
REMARK  2 active torsions:
REMARK  status: ('A' for Active; 'I' for Inactive)
REMARK    1  A    between atoms: C_1  and  C_9
REMARK    2  A    between atoms: C_9  and  C_12
REMARK                            x       y       z     vdW  Elec       q    Type
REMARK                         _______ _______ _______ _____ _____    ______ ____
ROOT
ATOM      1  C   UNL     1      35.085 -19.209 -21.348  0.00  0.00    -0.021 C 
ATOM      2  C   UNL     1      34.193 -20.072 -20.710  0.00  0.00    -0.029 C 
ATOM      3  C   UNL     1      34.661 -20.989 -19.770  0.00  0.00    -0.026 C 
ATOM      4  C   UNL     1      36.445 -19.263 -21.044  0.00  0.00    -0.004 C 
ATOM      5  C   UNL     1      32.734 -20.012 -21.035  0.00  0.00    +0.030 C 
ATOM      6  C   UNL     1      36.022 -21.043 -19.466  0.00  0.00    -0.005 C 
ATOM      7  C   UNL     1      36.914 -20.180 -20.104  0.00  0.00    -0.001 C 
ATOM      8  C   UNL     1      33.728 -21.923 -19.072  0.00  0.00    +0.031 C 
ENDROOT
BRANCH   1   9
ATOM      9  C   UNL     1      34.609 -18.219 -22.360  0.00  0.00    +0.068 C 
BRANCH   9  12
ATOM     10  N   UNL     1      34.399 -15.756 -22.668  0.00  0.00    -0.318 N 
ATOM     11  N   UNL     1      34.571 -14.946 -20.606  0.00  0.00    -0.315 N 
ATOM     12  C   UNL     1      34.566 -16.798 -21.837  0.00  0.00    +0.042 C 
ATOM     13  C   UNL     1      34.672 -16.314 -20.585  0.00  0.00    +0.069 C 
ATOM     14  C   UNL     1      34.409 -14.642 -21.875  0.00  0.00    +0.182 C 
ATOM     15  H   UNL     1      34.292 -15.788 -23.645  0.00  0.00    +0.148 HD
ATOM     16  H   UNL     1      34.612 -14.329 -19.841  0.00  0.00    +0.148 HD
ENDBRANCH   9  12
ENDBRANCH   1   9
TORSDOF 2
ENDMDL
MODEL 7
REMARK VINA RESULT:      -7.9      2.331      5.356
REMARK  Name = 56032
REMARK  2 active torsions:
REMARK  status: ('A' for Active; 'I' for Inactive)
REMARK    1  A    between atoms: C_1  and  C_9
REMARK    2  A    between atoms: C_9  and  C_12
REMARK                            x       y       z     vdW  Elec       q    Type
REMARK                         _______ _______ _______ _____ _____    ______ ____
ROOT
ATOM      1  C   UNL     1      35.227 -17.773 -22.698  0.00  0.00    -0.021 C 
ATOM      2  C   UNL     1      34.715 -16.485 -22.539  0.00  0.00    -0.029 C 
ATOM      3  C   UNL     1      34.176 -15.809 -23.633  0.00  0.00    -0.026 C 
ATOM      4  C   UNL     1      35.199 -18.385 -23.950  0.00  0.00    -0.004 C 
ATOM      5  C   UNL     1      34.743 -15.830 -21.195  0.00  0.00    +0.030 C 
ATOM      6  C   UNL     1      34.148 -16.422 -24.887  0.00  0.00    -0.005 C 
ATOM      7  C   UNL     1      34.660 -17.709 -25.045  0.00  0.00    -0.001 C 
ATOM      8  C   UNL     1      33.621 -14.429 -23.491  0.00  0.00    +0.031 C 
ENDROOT
BRANCH   1   9
ATOM      9  C   UNL     1      35.811 -18.518 -21.542  0.00  0.00    +0.068 C 
BRANCH   9  12
ATOM     10  N   UNL     1      33.515 -19.302 -20.978  0.00  0.00    -0.318 N 
ATOM     11  N   UNL     1      33.858 -21.172 -19.829  0.00  0.00    -0.315 N 
ATOM     12  C   UNL     1      34.842 -19.493 -20.904  0.00  0.00    +0.042 C 
ATOM     13  C   UNL     1      35.058 -20.625 -20.209  0.00  0.00    +0.069 C 
ATOM     14  C   UNL     1      32.950 -20.351 -20.307  0.00  0.00    +0.182 C 
ATOM     15  H   UNL     1      33.046 -18.560 -21.423  0.00  0.00    +0.148 HD
ATOM     16  H   UNL     1      33.710 -21.996 -19.313  0.00  0.00    +0.148 HD
ENDBRANCH   9  12
ENDBRANCH   1   9
TORSDOF 2
ENDMDL
MODEL 8
REMARK VINA RESULT:      -7.8      2.696      5.468
REMARK  Name = 56032
REMARK  2 active torsions:
REMARK  status: ('A' for Active; 'I' for Inactive)
REMARK    1  A    between atoms: C_1  and  C_9
REMARK    2  A    between atoms: C_9  and  C_12
REMARK                            x       y       z     vdW  Elec       q    Type
REMARK                         _______ _______ _______ _____ _____    ______ ____
ROOT
ATOM      1  C   UNL     1      34.968 -17.145 -22.177  0.00  0.00    -0.021 C 
ATOM      2  C   UNL     1      34.522 -16.475 -23.317  0.00  0.00    -0.029 C 
ATOM      3  C   UNL     1      34.015 -15.180 -23.211  0.00  0.00    -0.026 C 
ATOM      4  C   UNL     1      34.907 -16.519 -20.932  0.00  0.00    -0.004 C 
ATOM      5  C   UNL     1      34.590 -17.145 -24.652  0.00  0.00    +0.030 C 
ATOM      6  C   UNL     1      33.954 -14.555 -21.964  0.00  0.00    -0.005 C 
ATOM      7  C   UNL     1      34.400 -15.225 -20.825  0.00  0.00    -0.001 C 
ATOM      8  C   UNL     1      33.530 -14.440 -24.414  0.00  0.00    +0.031 C 
ENDROOT
BRANCH   1   9
ATOM      9  C   UNL     1      35.516 -18.532 -22.263  0.00  0.00    +0.068 C 
BRANCH   9  12
ATOM     10  N   UNL     1      35.573 -20.198 -20.413  0.00  0.00    -0.318 N 
ATOM     11  N   UNL     1      33.443 -20.768 -20.143  0.00  0.00    -0.315 N 
ATOM     12  C   UNL     1      34.852 -19.501 -21.306  0.00  0.00    +0.042 C 
ATOM     13  C   UNL     1      33.560 -19.841 -21.148  0.00  0.00    +0.069 C 
ATOM     14  C   UNL     1      34.673 -20.962 -19.722  0.00  0.00    +0.182 C 
ATOM     15  H   UNL     1      36.549 -20.167 -20.283  0.00  0.00    +0.148 HD
ATOM     16  H   UNL     1      32.621 -21.194 -19.811  0.00  0.00    +0.148 HD
ENDBRANCH   9  12
ENDBRANCH   1   9
TORSDOF 2
ENDMDL
MODEL 9
REMARK VINA RESULT:      -7.7      9.852     12.918
REMARK  Name = 56032
REMARK  2 active torsions:
REMARK  status: ('A' for Active; 'I' for Inactive)
REMARK    1  A    between atoms: C_1  and  C_9
REMARK    2  A    between atoms: C_9  and  C_12
REMARK                            x       y       z     vdW  Elec       q    Type
REMARK                         _______ _______ _______ _____ _____    ______ ____
ROOT
ATOM      1  C   UNL     1      33.061  -7.223 -21.995  0.00  0.00    -0.021 C 
ATOM      2  C   UNL     1      32.229  -6.401 -22.757  0.00  0.00    -0.029 C 
ATOM      3  C   UNL     1      32.577  -6.083 -24.069  0.00  0.00    -0.026 C 
ATOM      4  C   UNL     1      34.238  -7.728 -22.547  0.00  0.00    -0.004 C 
ATOM      5  C   UNL     1      30.967  -5.861 -22.165  0.00  0.00    +0.030 C 
ATOM      6  C   UNL     1      33.754  -6.588 -24.621  0.00  0.00    -0.005 C 
ATOM      7  C   UNL     1      34.585  -7.410 -23.860  0.00  0.00    -0.001 C 
ATOM      8  C   UNL     1      31.705  -5.205 -24.907  0.00  0.00    +0.031 C 
ENDROOT
BRANCH   1   9
ATOM      9  C   UNL     1      32.713  -7.577 -20.586  0.00  0.00    +0.068 C 
BRANCH   9  12
ATOM     10  N   UNL     1      32.177  -9.606 -19.245  0.00  0.00    -0.318 N 
ATOM     11  N   UNL     1      31.295 -11.007 -20.728  0.00  0.00    -0.315 N 
ATOM     12  C   UNL     1      32.175  -8.986 -20.436  0.00  0.00    +0.042 C 
ATOM     13  C   UNL     1      31.642  -9.828 -21.340  0.00  0.00    +0.069 C 
ATOM     14  C   UNL     1      31.631 -10.840 -19.467  0.00  0.00    +0.182 C 
ATOM     15  H   UNL     1      32.503  -9.247 -18.389  0.00  0.00    +0.148 HD
ATOM     16  H   UNL     1      30.886 -11.800 -21.140  0.00  0.00    +0.148 HD
ENDBRANCH   9  12
ENDBRANCH   1   9
TORSDOF 2
ENDMDL
