MODEL 1
REMARK VINA RESULT:      -6.6      0.000      0.000
REMARK  Name = 9223
REMARK  0 active torsions:
REMARK  status: ('A' for Active; 'I' for Inactive)
REMARK                            x       y       z     vdW  Elec       q    Type
REMARK                         _______ _______ _______ _____ _____    ______ ____
ROOT
ATOM      1  O   UNL     1      32.661 -21.895 -18.979  0.00  0.00    -0.450 OA
ATOM      2  C   UNL     1      34.750 -21.303 -19.602  0.00  0.00    +0.038 C 
ATOM      3  C   UNL     1      33.392 -21.044 -19.753  0.00  0.00    +0.145 C 
ATOM      4  C   UNL     1      35.668 -20.521 -20.327  0.00  0.00    +0.003 C 
ATOM      5  C   UNL     1      34.838 -22.377 -18.679  0.00  0.00    +0.044 C 
ATOM      6  C   UNL     1      32.872 -20.053 -20.583  0.00  0.00    +0.037 C 
ATOM      7  C   UNL     1      35.175 -19.515 -21.170  0.00  0.00    +0.000 C 
ATOM      8  C   UNL     1      33.802 -19.287 -21.294  0.00  0.00    +0.003 C 
ATOM      9  C   UNL     1      33.546 -22.698 -18.332  0.00  0.00    +0.180 C 
ENDROOT
TORSDOF 0
ENDMDL
MODEL 2
REMARK VINA RESULT:      -6.4      1.874      3.845
REMARK  Name = 9223
REMARK  0 active torsions:
REMARK  status: ('A' for Active; 'I' for Inactive)
REMARK                            x       y       z     vdW  Elec       q    Type
REMARK                         _______ _______ _______ _____ _____    ______ ____
ROOT
ATOM      1  O   UNL     1      36.520 -19.327 -20.921  0.00  0.00    -0.450 OA
ATOM      2  C   UNL     1      34.313 -19.757 -20.708  0.00  0.00    +0.038 C 
ATOM      3  C   UNL     1      35.599 -20.177 -20.386  0.00  0.00    +0.145 C 
ATOM      4  C   UNL     1      33.222 -20.513 -20.241  0.00  0.00    +0.003 C 
ATOM      5  C   UNL     1      34.474 -18.580 -21.485  0.00  0.00    +0.044 C 
ATOM      6  C   UNL     1      35.884 -21.308 -19.624  0.00  0.00    +0.037 C 
ATOM      7  C   UNL     1      33.478 -21.656 -19.472  0.00  0.00    +0.000 C 
ATOM      8  C   UNL     1      34.785 -22.045 -19.170  0.00  0.00    +0.003 C 
ATOM      9  C   UNL     1      35.828 -18.363 -21.585  0.00  0.00    +0.180 C 
ENDROOT
TORSDOF 0
ENDMDL
MODEL 3
REMARK VINA RESULT:      -6.4      1.811      3.473
REMARK  Name = 9223
REMARK  0 active torsions:
REMARK  status: ('A' for Active; 'I' for Inactive)
REMARK                            x       y       z     vdW  Elec       q    Type
REMARK                         _______ _______ _______ _____ _____    ______ ____
ROOT
ATOM      1  O   UNL     1      34.209 -18.298 -21.748  0.00  0.00    -0.450 OA
ATOM      2  C   UNL     1      35.553 -19.792 -20.717  0.00  0.00    +0.038 C 
ATOM      3  C   UNL     1      34.238 -19.423 -20.980  0.00  0.00    +0.145 C 
ATOM      4  C   UNL     1      35.787 -20.937 -19.934  0.00  0.00    +0.003 C 
ATOM      5  C   UNL     1      36.363 -18.826 -21.371  0.00  0.00    +0.044 C 
ATOM      6  C   UNL     1      33.124 -20.118 -20.514  0.00  0.00    +0.037 C 
ATOM      7  C   UNL     1      34.685 -21.656 -19.451  0.00  0.00    +0.000 C 
ATOM      8  C   UNL     1      33.378 -21.252 -19.737  0.00  0.00    +0.003 C 
ATOM      9  C   UNL     1      35.500 -17.944 -21.979  0.00  0.00    +0.180 C 
ENDROOT
TORSDOF 0
ENDMDL
MODEL 4
REMARK VINA RESULT:      -6.3      1.022      1.985
REMARK  Name = 9223
REMARK  0 active torsions:
REMARK  status: ('A' for Active; 'I' for Inactive)
REMARK                            x       y       z     vdW  Elec       q    Type
REMARK                         _______ _______ _______ _____ _____    ______ ____
ROOT
ATOM      1  O   UNL     1      35.260 -22.441 -18.600  0.00  0.00    -0.450 OA
ATOM      2  C   UNL     1      33.541 -21.286 -19.501  0.00  0.00    +0.038 C 
ATOM      3  C   UNL     1      34.921 -21.460 -19.483  0.00  0.00    +0.145 C 
ATOM      4  C   UNL     1      32.998 -20.311 -20.357  0.00  0.00    +0.003 C 
ATOM      5  C   UNL     1      33.021 -22.222 -18.570  0.00  0.00    +0.044 C 
ATOM      6  C   UNL     1      35.811 -20.726 -20.264  0.00  0.00    +0.037 C 
ATOM      7  C   UNL     1      33.869 -19.556 -21.155  0.00  0.00    +0.000 C 
ATOM      8  C   UNL     1      35.250 -19.762 -21.107  0.00  0.00    +0.003 C 
ATOM      9  C   UNL     1      34.103 -22.896 -18.052  0.00  0.00    +0.180 C 
ENDROOT
TORSDOF 0
ENDMDL
MODEL 5
REMARK VINA RESULT:      -6.0      6.002      7.685
REMARK  Name = 9223
REMARK  0 active torsions:
REMARK  status: ('A' for Active; 'I' for Inactive)
REMARK                            x       y       z     vdW  Elec       q    Type
REMARK                         _______ _______ _______ _____ _____    ______ ____
ROOT
ATOM      1  O   UNL     1      33.402 -15.826 -26.480  0.00  0.00    -0.450 OA
ATOM      2  C   UNL     1      33.829 -15.267 -24.334  0.00  0.00    +0.038 C 
ATOM      3  C   UNL     1      33.976 -16.241 -25.316  0.00  0.00    +0.145 C 
ATOM      4  C   UNL     1      34.361 -15.516 -23.056  0.00  0.00    +0.003 C 
ATOM      5  C   UNL     1      33.122 -14.202 -24.949  0.00  0.00    +0.044 C 
ATOM      6  C   UNL     1      34.622 -17.460 -25.118  0.00  0.00    +0.037 C 
ATOM      7  C   UNL     1      35.016 -16.734 -22.826  0.00  0.00    +0.000 C 
ATOM      8  C   UNL     1      35.143 -17.687 -23.840  0.00  0.00    +0.003 C 
ATOM      9  C   UNL     1      32.887 -14.590 -26.247  0.00  0.00    +0.180 C 
ENDROOT
TORSDOF 0
ENDMDL
MODEL 6
REMARK VINA RESULT:      -5.9      3.758      5.252
REMARK  Name = 9223
REMARK  0 active torsions:
REMARK  status: ('A' for Active; 'I' for Inactive)
REMARK                            x       y       z     vdW  Elec       q    Type
REMARK                         _______ _______ _______ _____ _____    ______ ____
ROOT
ATOM      1  O   UNL     1      35.418 -17.881 -20.621  0.00  0.00    -0.450 OA
ATOM      2  C   UNL     1      35.229 -16.960 -22.675  0.00  0.00    +0.038 C 
ATOM      3  C   UNL     1      35.036 -16.770 -21.310  0.00  0.00    +0.145 C 
ATOM      4  C   UNL     1      34.889 -15.916 -23.554  0.00  0.00    +0.003 C 
ATOM      5  C   UNL     1      35.760 -18.269 -22.810  0.00  0.00    +0.044 C 
ATOM      6  C   UNL     1      34.524 -15.602 -20.749  0.00  0.00    +0.037 C 
ATOM      7  C   UNL     1      34.372 -14.729 -23.018  0.00  0.00    +0.000 C 
ATOM      8  C   UNL     1      34.193 -14.576 -21.641  0.00  0.00    +0.003 C 
ATOM      9  C   UNL     1      35.855 -18.783 -21.538  0.00  0.00    +0.180 C 
ENDROOT
TORSDOF 0
ENDMDL
MODEL 7
REMARK VINA RESULT:      -5.9      4.024      5.575
REMARK  Name = 9223
REMARK  0 active torsions:
REMARK  status: ('A' for Active; 'I' for Inactive)
REMARK                            x       y       z     vdW  Elec       q    Type
REMARK                         _______ _______ _______ _____ _____    ______ ____
ROOT
ATOM      1  O   UNL     1      34.960 -16.264 -20.274  0.00  0.00    -0.450 OA
ATOM      2  C   UNL     1      34.697 -16.187 -22.516  0.00  0.00    +0.038 C 
ATOM      3  C   UNL     1      35.039 -16.984 -21.428  0.00  0.00    +0.145 C 
ATOM      4  C   UNL     1      34.720 -16.757 -23.801  0.00  0.00    +0.003 C 
ATOM      5  C   UNL     1      34.395 -14.908 -21.977  0.00  0.00    +0.044 C 
ATOM      6  C   UNL     1      35.406 -18.324 -21.527  0.00  0.00    +0.037 C 
ATOM      7  C   UNL     1      35.085 -18.104 -23.932  0.00  0.00    +0.000 C 
ATOM      8  C   UNL     1      35.422 -18.872 -22.814  0.00  0.00    +0.003 C 
ATOM      9  C   UNL     1      34.570 -15.009 -20.617  0.00  0.00    +0.180 C 
ENDROOT
TORSDOF 0
ENDMDL
MODEL 8
REMARK VINA RESULT:      -5.8      4.082      5.524
REMARK  Name = 9223
REMARK  0 active torsions:
REMARK  status: ('A' for Active; 'I' for Inactive)
REMARK                            x       y       z     vdW  Elec       q    Type
REMARK                         _______ _______ _______ _____ _____    ______ ____
ROOT
ATOM      1  O   UNL     1      34.734 -15.358 -23.058  0.00  0.00    -0.450 OA
ATOM      2  C   UNL     1      34.677 -17.060 -21.575  0.00  0.00    +0.038 C 
ATOM      3  C   UNL     1      34.795 -16.712 -22.916  0.00  0.00    +0.145 C 
ATOM      4  C   UNL     1      34.718 -18.423 -21.228  0.00  0.00    +0.003 C 
ATOM      5  C   UNL     1      34.536 -15.837 -20.869  0.00  0.00    +0.044 C 
ATOM      6  C   UNL     1      34.953 -17.632 -23.951  0.00  0.00    +0.037 C 
ATOM      7  C   UNL     1      34.876 -19.371 -22.247  0.00  0.00    +0.000 C 
ATOM      8  C   UNL     1      34.991 -18.981 -23.584  0.00  0.00    +0.003 C 
ATOM      9  C   UNL     1      34.577 -14.837 -21.813  0.00  0.00    +0.180 C 
ENDROOT
TORSDOF 0
ENDMDL
MODEL 9
REMARK VINA RESULT:      -5.8      4.379      5.324
REMARK  Name = 9223
REMARK  0 active torsions:
REMARK  status: ('A' for Active; 'I' for Inactive)
REMARK                            x       y       z     vdW  Elec       q    Type
REMARK                         _______ _______ _______ _____ _____    ______ ____
ROOT
ATOM      1  O   UNL     1      34.746 -15.722 -22.198  0.00  0.00    -0.450 OA
ATOM      2  C   UNL     1      34.774 -17.962 -22.492  0.00  0.00    +0.038 C 
ATOM      3  C   UNL     1      34.690 -16.724 -23.120  0.00  0.00    +0.145 C 
ATOM      4  C   UNL     1      34.733 -19.123 -23.285  0.00  0.00    +0.003 C 
ATOM      5  C   UNL     1      34.888 -17.683 -21.104  0.00  0.00    +0.044 C 
ATOM      6  C   UNL     1      34.567 -16.554 -24.498  0.00  0.00    +0.037 C 
ATOM      7  C   UNL     1      34.609 -18.983 -24.674  0.00  0.00    +0.000 C 
ATOM      8  C   UNL     1      34.528 -17.721 -25.268  0.00  0.00    +0.003 C 
ATOM      9  C   UNL     1      34.865 -16.314 -20.980  0.00  0.00    +0.180 C 
ENDROOT
TORSDOF 0
ENDMDL
