MODEL 1
REMARK VINA RESULT:     -11.1      0.000      0.000
REMARK  Name = 197033
REMARK  3 active torsions:
REMARK  status: ('A' for Active; 'I' for Inactive)
REMARK    1  A    between atoms: N_1  and  C_17
REMARK    2  A    between atoms: C_17  and  C_18
REMARK    3  A    between atoms: C_18  and  C_20
REMARK                            x       y       z     vdW  Elec       q    Type
REMARK                         _______ _______ _______ _____ _____    ______ ____
ROOT
ATOM      1  N   UNL     1      34.970 -22.999 -16.456  0.00  0.00    -0.331 N 
ATOM      2  N   UNL     1      37.117 -24.107 -13.137  0.00  0.00    +0.388 N 
ATOM      3  C   UNL     1      35.825 -23.450 -15.497  0.00  0.00    +0.029 A 
ATOM      4  C   UNL     1      35.095 -24.041 -14.489  0.00  0.00    -0.030 A 
ATOM      5  C   UNL     1      37.301 -23.303 -15.503  0.00  0.00    +0.021 C 
ATOM      6  C   UNL     1      35.746 -24.654 -13.295  0.00  0.00    -0.049 C 
ATOM      7  C   UNL     1      33.723 -23.956 -14.858  0.00  0.00    +0.011 A 
ATOM      8  C   UNL     1      37.900 -24.195 -14.392  0.00  0.00    -0.071 C 
ATOM      9  C   UNL     1      33.673 -23.298 -16.093  0.00  0.00    +0.059 A 
ATOM     10  C   UNL     1      32.515 -24.376 -14.265  0.00  0.00    -0.003 C 
ATOM     11  C   UNL     1      32.469 -23.037 -16.758  0.00  0.00    +0.017 C 
ATOM     12  C   UNL     1      37.810 -24.798 -12.051  0.00  0.00    -0.100 C 
ATOM     13  C   UNL     1      31.306 -24.121 -14.922  0.00  0.00    -0.022 C 
ATOM     14  C   UNL     1      31.286 -23.462 -16.149  0.00  0.00    -0.003 C 
ATOM     15  C   UNL     1      30.023 -24.562 -14.298  0.00  0.00    +0.031 C 
ATOM     16  H   UNL     1      37.030 -23.117 -12.907  0.00  0.00    -0.079 HD
ENDROOT
BRANCH   1  17
ATOM     17  C   UNL     1      35.358 -22.320 -17.675  0.00  0.00    +0.110 C 
BRANCH  17  18
ATOM     18  C   UNL     1      34.296 -22.384 -18.777  0.00  0.00    +0.052 C 
BRANCH  18  20
ATOM     19  N   UNL     1      35.652 -19.664 -21.004  0.00  0.00    -0.248 NA
ATOM     20  C   UNL     1      34.340 -21.206 -19.719  0.00  0.00    -0.001 C 
ATOM     21  C   UNL     1      33.169 -20.612 -20.141  0.00  0.00    -0.001 C 
ATOM     22  C   UNL     1      35.544 -20.715 -20.162  0.00  0.00    +0.094 C 
ATOM     23  C   UNL     1      33.239 -19.527 -21.009  0.00  0.00    +0.014 C 
ATOM     24  C   UNL     1      34.494 -19.095 -21.406  0.00  0.00    +0.059 C 
ATOM     25  C   UNL     1      34.607 -17.934 -22.338  0.00  0.00    +0.052 C 
ENDBRANCH  18  20
ENDBRANCH  17  18
ENDBRANCH   1  17
TORSDOF 3
ENDMDL
MODEL 2
REMARK VINA RESULT:     -10.8      2.504      5.434
REMARK  Name = 197033
REMARK  3 active torsions:
REMARK  status: ('A' for Active; 'I' for Inactive)
REMARK    1  A    between atoms: N_1  and  C_17
REMARK    2  A    between atoms: C_17  and  C_18
REMARK    3  A    between atoms: C_18  and  C_20
REMARK                            x       y       z     vdW  Elec       q    Type
REMARK                         _______ _______ _______ _____ _____    ______ ____
ROOT
ATOM      1  N   UNL     1      33.502 -24.117 -14.616  0.00  0.00    -0.331 N 
ATOM      2  N   UNL     1      37.128 -24.039 -12.690  0.00  0.00    +0.388 N 
ATOM      3  C   UNL     1      34.592 -24.028 -13.802  0.00  0.00    +0.029 A 
ATOM      4  C   UNL     1      35.615 -23.415 -14.491  0.00  0.00    -0.030 A 
ATOM      5  C   UNL     1      34.688 -24.537 -12.412  0.00  0.00    +0.021 C 
ATOM      6  C   UNL     1      36.943 -23.151 -13.865  0.00  0.00    -0.049 C 
ATOM      7  C   UNL     1      35.121 -23.104 -15.789  0.00  0.00    +0.011 A 
ATOM      8  C   UNL     1      35.975 -23.981 -11.761  0.00  0.00    -0.071 C 
ATOM      9  C   UNL     1      33.797 -23.556 -15.840  0.00  0.00    +0.059 A 
ATOM     10  C   UNL     1      35.669 -22.481 -16.928  0.00  0.00    -0.003 C 
ATOM     11  C   UNL     1      32.998 -23.416 -16.982  0.00  0.00    +0.017 C 
ATOM     12  C   UNL     1      38.366 -23.695 -11.992  0.00  0.00    -0.100 C 
ATOM     13  C   UNL     1      34.879 -22.334 -18.074  0.00  0.00    -0.022 C 
ATOM     14  C   UNL     1      33.564 -22.796 -18.098  0.00  0.00    -0.003 C 
ATOM     15  C   UNL     1      35.454 -21.675 -19.284  0.00  0.00    +0.031 C 
ATOM     16  H   UNL     1      37.187 -24.997 -13.033  0.00  0.00    -0.079 HD
ENDROOT
BRANCH   1  17
ATOM     17  C   UNL     1      32.229 -24.701 -14.251  0.00  0.00    +0.110 C 
BRANCH  17  18
ATOM     18  C   UNL     1      31.181 -23.667 -13.824  0.00  0.00    +0.052 C 
BRANCH  18  20
ATOM     19  N   UNL     1      28.661 -21.898 -15.995  0.00  0.00    -0.248 NA
ATOM     20  C   UNL     1      30.111 -23.436 -14.862  0.00  0.00    -0.001 C 
ATOM     21  C   UNL     1      29.618 -24.494 -15.599  0.00  0.00    -0.001 C 
ATOM     22  C   UNL     1      29.618 -22.172 -15.082  0.00  0.00    +0.094 C 
ATOM     23  C   UNL     1      28.632 -24.251 -16.549  0.00  0.00    +0.014 C 
ATOM     24  C   UNL     1      28.191 -22.947 -16.707  0.00  0.00    +0.059 C 
ATOM     25  C   UNL     1      27.134 -22.650 -17.717  0.00  0.00    +0.052 C 
ENDBRANCH  18  20
ENDBRANCH  17  18
ENDBRANCH   1  17
TORSDOF 3
ENDMDL
MODEL 3
REMARK VINA RESULT:     -10.7      0.963      4.025
REMARK  Name = 197033
REMARK  3 active torsions:
REMARK  status: ('A' for Active; 'I' for Inactive)
REMARK    1  A    between atoms: N_1  and  C_17
REMARK    2  A    between atoms: C_17  and  C_18
REMARK    3  A    between atoms: C_18  and  C_20
REMARK                            x       y       z     vdW  Elec       q    Type
REMARK                         _______ _______ _______ _____ _____    ______ ____
ROOT
ATOM      1  N   UNL     1      34.932 -23.098 -16.292  0.00  0.00    -0.331 N 
ATOM      2  N   UNL     1      31.288 -24.500 -15.022  0.00  0.00    +0.388 N 
ATOM      3  C   UNL     1      33.652 -23.360 -15.906  0.00  0.00    +0.029 A 
ATOM      4  C   UNL     1      33.679 -24.130 -14.764  0.00  0.00    -0.030 A 
ATOM      5  C   UNL     1      32.420 -22.926 -16.609  0.00  0.00    +0.021 C 
ATOM      6  C   UNL     1      32.430 -24.571 -14.077  0.00  0.00    -0.049 C 
ATOM      7  C   UNL     1      35.047 -24.340 -14.430  0.00  0.00    +0.011 A 
ATOM      8  C   UNL     1      31.202 -23.182 -15.693  0.00  0.00    -0.071 C 
ATOM      9  C   UNL     1      35.809 -23.685 -15.405  0.00  0.00    +0.059 A 
ATOM     10  C   UNL     1      35.715 -25.023 -13.393  0.00  0.00    -0.003 C 
ATOM     11  C   UNL     1      37.209 -23.685 -15.390  0.00  0.00    +0.017 C 
ATOM     12  C   UNL     1      30.040 -24.801 -14.322  0.00  0.00    -0.100 C 
ATOM     13  C   UNL     1      37.114 -25.029 -13.369  0.00  0.00    -0.022 C 
ATOM     14  C   UNL     1      37.847 -24.370 -14.353  0.00  0.00    -0.003 C 
ATOM     15  C   UNL     1      37.827 -25.751 -12.274  0.00  0.00    +0.031 C 
ATOM     16  H   UNL     1      31.445 -25.197 -15.750  0.00  0.00    -0.079 HD
ENDROOT
BRANCH   1  17
ATOM     17  C   UNL     1      35.315 -22.317 -17.450  0.00  0.00    +0.110 C 
BRANCH  17  18
ATOM     18  C   UNL     1      34.376 -22.495 -18.647  0.00  0.00    +0.052 C 
BRANCH  18  20
ATOM     19  N   UNL     1      35.625 -19.698 -20.841  0.00  0.00    -0.248 NA
ATOM     20  C   UNL     1      34.373 -21.314 -19.586  0.00  0.00    -0.001 C 
ATOM     21  C   UNL     1      33.180 -20.785 -20.033  0.00  0.00    -0.001 C 
ATOM     22  C   UNL     1      35.558 -20.756 -20.003  0.00  0.00    +0.094 C 
ATOM     23  C   UNL     1      33.208 -19.697 -20.898  0.00  0.00    +0.014 C 
ATOM     24  C   UNL     1      34.445 -19.195 -21.268  0.00  0.00    +0.059 C 
ATOM     25  C   UNL     1      34.514 -18.027 -22.195  0.00  0.00    +0.052 C 
ENDBRANCH  18  20
ENDBRANCH  17  18
ENDBRANCH   1  17
TORSDOF 3
ENDMDL
MODEL 4
REMARK VINA RESULT:     -10.6      2.459      7.153
REMARK  Name = 197033
REMARK  3 active torsions:
REMARK  status: ('A' for Active; 'I' for Inactive)
REMARK    1  A    between atoms: N_1  and  C_17
REMARK    2  A    between atoms: C_17  and  C_18
REMARK    3  A    between atoms: C_18  and  C_20
REMARK                            x       y       z     vdW  Elec       q    Type
REMARK                         _______ _______ _______ _____ _____    ______ ____
ROOT
ATOM      1  N   UNL     1      34.106 -23.450 -14.522  0.00  0.00    -0.331 N 
ATOM      2  N   UNL     1      30.109 -23.755 -15.406  0.00  0.00    +0.388 N 
ATOM      3  C   UNL     1      32.786 -23.737 -14.702  0.00  0.00    +0.029 A 
ATOM      4  C   UNL     1      32.449 -23.485 -16.013  0.00  0.00    -0.030 A 
ATOM      5  C   UNL     1      31.844 -24.209 -13.658  0.00  0.00    +0.021 C 
ATOM      6  C   UNL     1      31.071 -23.719 -16.535  0.00  0.00    -0.049 C 
ATOM      7  C   UNL     1      33.627 -23.030 -16.671  0.00  0.00    +0.011 A 
ATOM      8  C   UNL     1      30.539 -24.684 -14.335  0.00  0.00    -0.071 C 
ATOM      9  C   UNL     1      34.649 -23.017 -15.713  0.00  0.00    +0.059 A 
ATOM     10  C   UNL     1      33.928 -22.630 -17.988  0.00  0.00    -0.003 C 
ATOM     11  C   UNL     1      35.956 -22.616 -16.014  0.00  0.00    +0.017 C 
ATOM     12  C   UNL     1      28.778 -24.116 -15.894  0.00  0.00    -0.100 C 
ATOM     13  C   UNL     1      35.232 -22.228 -18.300  0.00  0.00    -0.022 C 
ATOM     14  C   UNL     1      36.228 -22.223 -17.326  0.00  0.00    -0.003 C 
ATOM     15  C   UNL     1      35.556 -21.802 -19.694  0.00  0.00    +0.031 C 
ATOM     16  H   UNL     1      30.077 -22.821 -14.997  0.00  0.00    -0.079 HD
ENDROOT
BRANCH   1  17
ATOM     17  C   UNL     1      34.832 -23.587 -13.277  0.00  0.00    +0.110 C 
BRANCH  17  18
ATOM     18  C   UNL     1      35.300 -25.019 -12.995  0.00  0.00    +0.052 C 
BRANCH  18  20
ATOM     19  N   UNL     1      38.199 -26.372 -14.988  0.00  0.00    -0.248 NA
ATOM     20  C   UNL     1      36.715 -25.285 -13.447  0.00  0.00    -0.001 C 
ATOM     21  C   UNL     1      37.778 -24.720 -12.773  0.00  0.00    -0.001 C 
ATOM     22  C   UNL     1      36.957 -26.093 -14.532  0.00  0.00    +0.094 C 
ATOM     23  C   UNL     1      39.070 -24.983 -13.211  0.00  0.00    +0.014 C 
ATOM     24  C   UNL     1      39.226 -25.809 -14.313  0.00  0.00    +0.059 C 
ATOM     25  C   UNL     1      40.599 -26.112 -14.812  0.00  0.00    +0.052 C 
ENDBRANCH  18  20
ENDBRANCH  17  18
ENDBRANCH   1  17
TORSDOF 3
ENDMDL
MODEL 5
REMARK VINA RESULT:     -10.3      2.023      6.473
REMARK  Name = 197033
REMARK  3 active torsions:
REMARK  status: ('A' for Active; 'I' for Inactive)
REMARK    1  A    between atoms: N_1  and  C_17
REMARK    2  A    between atoms: C_17  and  C_18
REMARK    3  A    between atoms: C_18  and  C_20
REMARK                            x       y       z     vdW  Elec       q    Type
REMARK                         _______ _______ _______ _____ _____    ______ ____
ROOT
ATOM      1  N   UNL     1      34.071 -23.466 -14.766  0.00  0.00    -0.331 N 
ATOM      2  N   UNL     1      35.100 -22.555 -18.634  0.00  0.00    +0.388 N 
ATOM      3  C   UNL     1      34.542 -23.013 -15.961  0.00  0.00    +0.029 A 
ATOM      4  C   UNL     1      33.490 -22.908 -16.844  0.00  0.00    -0.030 A 
ATOM      5  C   UNL     1      35.957 -22.711 -16.285  0.00  0.00    +0.021 C 
ATOM      6  C   UNL     1      33.676 -22.417 -18.241  0.00  0.00    -0.049 C 
ATOM      7  C   UNL     1      32.315 -23.309 -16.149  0.00  0.00    +0.011 A 
ATOM      8  C   UNL     1      36.015 -21.958 -17.634  0.00  0.00    -0.071 C 
ATOM      9  C   UNL     1      32.708 -23.655 -14.850  0.00  0.00    +0.059 A 
ATOM     10  C   UNL     1      30.952 -23.411 -16.494  0.00  0.00    -0.003 C 
ATOM     11  C   UNL     1      31.799 -24.102 -13.884  0.00  0.00    +0.017 C 
ATOM     12  C   UNL     1      35.317 -21.955 -19.950  0.00  0.00    -0.100 C 
ATOM     13  C   UNL     1      30.035 -23.857 -15.535  0.00  0.00    -0.022 C 
ATOM     14  C   UNL     1      30.455 -24.196 -14.251  0.00  0.00    -0.003 C 
ATOM     15  C   UNL     1      28.590 -23.968 -15.896  0.00  0.00    +0.031 C 
ATOM     16  H   UNL     1      35.314 -23.552 -18.678  0.00  0.00    -0.079 HD
ENDROOT
BRANCH   1  17
ATOM     17  C   UNL     1      34.874 -23.706 -13.585  0.00  0.00    +0.110 C 
BRANCH  17  18
ATOM     18  C   UNL     1      35.275 -25.173 -13.404  0.00  0.00    +0.052 C 
BRANCH  18  20
ATOM     19  N   UNL     1      38.438 -26.743 -14.719  0.00  0.00    -0.248 NA
ATOM     20  C   UNL     1      36.742 -25.427 -13.647  0.00  0.00    -0.001 C 
ATOM     21  C   UNL     1      37.693 -24.623 -13.056  0.00  0.00    -0.001 C 
ATOM     22  C   UNL     1      37.142 -26.462 -14.460  0.00  0.00    +0.094 C 
ATOM     23  C   UNL     1      39.038 -24.881 -13.299  0.00  0.00    +0.014 C 
ATOM     24  C   UNL     1      39.355 -25.943 -14.129  0.00  0.00    +0.059 C 
ATOM     25  C   UNL     1      40.788 -26.249 -14.413  0.00  0.00    +0.052 C 
ENDBRANCH  18  20
ENDBRANCH  17  18
ENDBRANCH   1  17
TORSDOF 3
ENDMDL
MODEL 6
REMARK VINA RESULT:     -10.2      4.242     10.898
REMARK  Name = 197033
REMARK  3 active torsions:
REMARK  status: ('A' for Active; 'I' for Inactive)
REMARK    1  A    between atoms: N_1  and  C_17
REMARK    2  A    between atoms: C_17  and  C_18
REMARK    3  A    between atoms: C_18  and  C_20
REMARK                            x       y       z     vdW  Elec       q    Type
REMARK                         _______ _______ _______ _____ _____    ______ ____
ROOT
ATOM      1  N   UNL     1      33.818 -15.732 -22.054  0.00  0.00    -0.331 N 
ATOM      2  N   UNL     1      33.199 -14.947 -26.036  0.00  0.00    +0.388 N 
ATOM      3  C   UNL     1      33.821 -15.530 -23.401  0.00  0.00    +0.029 A 
ATOM      4  C   UNL     1      33.166 -14.350 -23.677  0.00  0.00    -0.030 A 
ATOM      5  C   UNL     1      34.397 -16.441 -24.420  0.00  0.00    +0.021 C 
ATOM      6  C   UNL     1      33.016 -13.836 -25.070  0.00  0.00    -0.049 C 
ATOM      7  C   UNL     1      32.751 -13.798 -22.433  0.00  0.00    +0.011 A 
ATOM      8  C   UNL     1      34.444 -15.708 -25.780  0.00  0.00    -0.071 C 
ATOM      9  C   UNL     1      33.171 -14.684 -21.434  0.00  0.00    +0.059 A 
ATOM     10  C   UNL     1      32.060 -12.628 -22.055  0.00  0.00    -0.003 C 
ATOM     11  C   UNL     1      32.926 -14.455 -20.074  0.00  0.00    +0.017 C 
ATOM     12  C   UNL     1      33.186 -14.430 -27.403  0.00  0.00    -0.100 C 
ATOM     13  C   UNL     1      31.811 -12.389 -20.699  0.00  0.00    -0.022 C 
ATOM     14  C   UNL     1      32.239 -13.290 -19.726  0.00  0.00    -0.003 C 
ATOM     15  C   UNL     1      31.079 -11.153 -20.293  0.00  0.00    +0.031 C 
ATOM     16  H   UNL     1      32.421 -15.596 -25.912  0.00  0.00    -0.079 HD
ENDROOT
BRANCH   1  17
ATOM     17  C   UNL     1      34.410 -16.865 -21.374  0.00  0.00    +0.110 C 
BRANCH  17  18
ATOM     18  C   UNL     1      34.156 -18.202 -22.078  0.00  0.00    +0.052 C 
BRANCH  18  20
ATOM     19  N   UNL     1      32.670 -20.852 -19.848  0.00  0.00    -0.248 NA
ATOM     20  C   UNL     1      34.056 -19.369 -21.127  0.00  0.00    -0.001 C 
ATOM     21  C   UNL     1      35.199 -20.000 -20.680  0.00  0.00    -0.001 C 
ATOM     22  C   UNL     1      32.828 -19.813 -20.699  0.00  0.00    +0.094 C 
ATOM     23  C   UNL     1      35.077 -21.073 -19.804  0.00  0.00    +0.014 C 
ATOM     24  C   UNL     1      33.802 -21.456 -19.422  0.00  0.00    +0.059 C 
ATOM     25  C   UNL     1      33.633 -22.604 -18.483  0.00  0.00    +0.052 C 
ENDBRANCH  18  20
ENDBRANCH  17  18
ENDBRANCH   1  17
TORSDOF 3
ENDMDL
MODEL 7
REMARK VINA RESULT:     -10.1      4.946     11.591
REMARK  Name = 197033
REMARK  3 active torsions:
REMARK  status: ('A' for Active; 'I' for Inactive)
REMARK    1  A    between atoms: N_1  and  C_17
REMARK    2  A    between atoms: C_17  and  C_18
REMARK    3  A    between atoms: C_18  and  C_20
REMARK                            x       y       z     vdW  Elec       q    Type
REMARK                         _______ _______ _______ _____ _____    ______ ____
ROOT
ATOM      1  N   UNL     1      33.076 -14.867 -22.161  0.00  0.00    -0.331 N 
ATOM      2  N   UNL     1      32.231 -11.027 -20.977  0.00  0.00    +0.388 N 
ATOM      3  C   UNL     1      32.646 -13.684 -21.639  0.00  0.00    +0.029 A 
ATOM      4  C   UNL     1      32.528 -12.763 -22.656  0.00  0.00    -0.030 A 
ATOM      5  C   UNL     1      32.380 -13.406 -20.206  0.00  0.00    +0.021 C 
ATOM      6  C   UNL     1      32.056 -11.369 -22.411  0.00  0.00    -0.049 C 
ATOM      7  C   UNL     1      32.895 -13.421 -23.864  0.00  0.00    +0.011 A 
ATOM      8  C   UNL     1      31.643 -12.053 -20.084  0.00  0.00    -0.071 C 
ATOM      9  C   UNL     1      33.235 -14.736 -23.524  0.00  0.00    +0.059 A 
ATOM     10  C   UNL     1      32.970 -13.030 -25.216  0.00  0.00    -0.003 C 
ATOM     11  C   UNL     1      33.652 -15.675 -24.476  0.00  0.00    +0.017 C 
ATOM     12  C   UNL     1      31.650  -9.714 -20.702  0.00  0.00    -0.100 C 
ATOM     13  C   UNL     1      33.384 -13.960 -26.176  0.00  0.00    -0.022 C 
ATOM     14  C   UNL     1      33.719 -15.262 -25.808  0.00  0.00    -0.003 C 
ATOM     15  C   UNL     1      33.467 -13.551 -27.609  0.00  0.00    +0.031 C 
ATOM     16  H   UNL     1      33.232 -11.001 -20.786  0.00  0.00    -0.079 HD
ENDROOT
BRANCH   1  17
ATOM     17  C   UNL     1      33.321 -16.077 -21.405  0.00  0.00    +0.110 C 
BRANCH  17  18
ATOM     18  C   UNL     1      34.689 -16.708 -21.684  0.00  0.00    +0.052 C 
BRANCH  18  20
ATOM     19  N   UNL     1      36.240 -19.876 -20.360  0.00  0.00    -0.248 NA
ATOM     20  C   UNL     1      34.819 -18.115 -21.155  0.00  0.00    -0.001 C 
ATOM     21  C   UNL     1      33.697 -18.899 -20.985  0.00  0.00    -0.001 C 
ATOM     22  C   UNL     1      36.055 -18.626 -20.838  0.00  0.00    +0.094 C 
ATOM     23  C   UNL     1      33.847 -20.192 -20.495  0.00  0.00    +0.014 C 
ATOM     24  C   UNL     1      35.129 -20.629 -20.202  0.00  0.00    +0.059 C 
ATOM     25  C   UNL     1      35.327 -22.011 -19.673  0.00  0.00    +0.052 C 
ENDBRANCH  18  20
ENDBRANCH  17  18
ENDBRANCH   1  17
TORSDOF 3
ENDMDL
MODEL 8
REMARK VINA RESULT:     -10.1      2.268      6.073
REMARK  Name = 197033
REMARK  3 active torsions:
REMARK  status: ('A' for Active; 'I' for Inactive)
REMARK    1  A    between atoms: N_1  and  C_17
REMARK    2  A    between atoms: C_17  and  C_18
REMARK    3  A    between atoms: C_18  and  C_20
REMARK                            x       y       z     vdW  Elec       q    Type
REMARK                         _______ _______ _______ _____ _____    ______ ____
ROOT
ATOM      1  N   UNL     1      33.677 -23.702 -15.244  0.00  0.00    -0.331 N 
ATOM      2  N   UNL     1      35.590 -21.693 -18.270  0.00  0.00    +0.388 N 
ATOM      3  C   UNL     1      34.218 -23.180 -16.381  0.00  0.00    +0.029 A 
ATOM      4  C   UNL     1      35.543 -22.884 -16.149  0.00  0.00    -0.030 A 
ATOM      5  C   UNL     1      33.502 -22.931 -17.655  0.00  0.00    +0.021 C 
ATOM      6  C   UNL     1      36.423 -22.313 -17.210  0.00  0.00    -0.049 C 
ATOM      7  C   UNL     1      35.828 -23.254 -14.804  0.00  0.00    +0.011 A 
ATOM      8  C   UNL     1      34.535 -22.610 -18.759  0.00  0.00    -0.071 C 
ATOM      9  C   UNL     1      34.642 -23.761 -14.261  0.00  0.00    +0.059 A 
ATOM     10  C   UNL     1      36.980 -23.209 -13.993  0.00  0.00    -0.003 C 
ATOM     11  C   UNL     1      34.555 -24.222 -12.942  0.00  0.00    +0.017 C 
ATOM     12  C   UNL     1      36.437 -21.250 -19.377  0.00  0.00    -0.100 C 
ATOM     13  C   UNL     1      36.905 -23.668 -12.673  0.00  0.00    -0.022 C 
ATOM     14  C   UNL     1      35.710 -24.166 -12.158  0.00  0.00    -0.003 C 
ATOM     15  C   UNL     1      38.122 -23.622 -11.809  0.00  0.00    +0.031 C 
ATOM     16  H   UNL     1      35.120 -20.886 -17.860  0.00  0.00    -0.079 HD
ENDROOT
BRANCH   1  17
ATOM     17  C   UNL     1      32.304 -24.136 -15.092  0.00  0.00    +0.110 C 
BRANCH  17  18
ATOM     18  C   UNL     1      31.402 -23.093 -14.425  0.00  0.00    +0.052 C 
BRANCH  18  20
ATOM     19  N   UNL     1      29.017 -22.743 -17.322  0.00  0.00    -0.248 NA
ATOM     20  C   UNL     1      30.141 -22.807 -15.203  0.00  0.00    -0.001 C 
ATOM     21  C   UNL     1      29.007 -22.368 -14.552  0.00  0.00    -0.001 C 
ATOM     22  C   UNL     1      30.112 -22.981 -16.567  0.00  0.00    +0.094 C 
ATOM     23  C   UNL     1      27.860 -22.113 -15.295  0.00  0.00    +0.014 C 
ATOM     24  C   UNL     1      27.917 -22.313 -16.665  0.00  0.00    +0.059 C 
ATOM     25  C   UNL     1      26.704 -22.050 -17.494  0.00  0.00    +0.052 C 
ENDBRANCH  18  20
ENDBRANCH  17  18
ENDBRANCH   1  17
TORSDOF 3
ENDMDL
MODEL 9
REMARK VINA RESULT:     -10.0      2.227      5.747
REMARK  Name = 197033
REMARK  3 active torsions:
REMARK  status: ('A' for Active; 'I' for Inactive)
REMARK    1  A    between atoms: N_1  and  C_17
REMARK    2  A    between atoms: C_17  and  C_18
REMARK    3  A    between atoms: C_18  and  C_20
REMARK                            x       y       z     vdW  Elec       q    Type
REMARK                         _______ _______ _______ _____ _____    ______ ____
ROOT
ATOM      1  N   UNL     1      33.835 -23.332 -16.886  0.00  0.00    -0.331 N 
ATOM      2  N   UNL     1      37.012 -24.326 -14.483  0.00  0.00    +0.388 N 
ATOM      3  C   UNL     1      34.752 -23.629 -15.922  0.00  0.00    +0.029 A 
ATOM      4  C   UNL     1      35.949 -23.029 -16.246  0.00  0.00    -0.030 A 
ATOM      5  C   UNL     1      34.524 -24.486 -14.734  0.00  0.00    +0.021 C 
ATOM      6  C   UNL     1      37.154 -23.149 -15.375  0.00  0.00    -0.049 C 
ATOM      7  C   UNL     1      35.749 -22.321 -17.465  0.00  0.00    +0.011 A 
ATOM      8  C   UNL     1      35.717 -24.327 -13.763  0.00  0.00    -0.071 C 
ATOM      9  C   UNL     1      34.418 -22.529 -17.843  0.00  0.00    +0.059 A 
ATOM     10  C   UNL     1      36.570 -21.520 -18.285  0.00  0.00    -0.003 C 
ATOM     11  C   UNL     1      33.872 -21.976 -19.008  0.00  0.00    +0.017 C 
ATOM     12  C   UNL     1      38.125 -24.374 -13.535  0.00  0.00    -0.100 C 
ATOM     13  C   UNL     1      36.034 -20.962 -19.451  0.00  0.00    -0.022 C 
ATOM     14  C   UNL     1      34.705 -21.187 -19.804  0.00  0.00    -0.003 C 
ATOM     15  C   UNL     1      36.898 -20.113 -20.324  0.00  0.00    +0.031 C 
ATOM     16  H   UNL     1      37.030 -25.161 -15.068  0.00  0.00    -0.079 HD
ENDROOT
BRANCH   1  17
ATOM     17  C   UNL     1      32.458 -23.781 -16.900  0.00  0.00    +0.110 C 
BRANCH  17  18
ATOM     18  C   UNL     1      31.704 -23.483 -15.600  0.00  0.00    +0.052 C 
BRANCH  18  20
ATOM     19  N   UNL     1      28.401 -22.879 -17.311  0.00  0.00    -0.248 NA
ATOM     20  C   UNL     1      30.274 -23.054 -15.822  0.00  0.00    -0.001 C 
ATOM     21  C   UNL     1      29.556 -22.471 -14.799  0.00  0.00    -0.001 C 
ATOM     22  C   UNL     1      29.676 -23.240 -17.046  0.00  0.00    +0.094 C 
ATOM     23  C   UNL     1      28.241 -22.087 -15.033  0.00  0.00    +0.014 C 
ATOM     24  C   UNL     1      27.715 -22.310 -16.295  0.00  0.00    +0.059 C 
ATOM     25  C   UNL     1      26.306 -21.910 -16.582  0.00  0.00    +0.052 C 
ENDBRANCH  18  20
ENDBRANCH  17  18
ENDBRANCH   1  17
TORSDOF 3
ENDMDL
