MODEL 1
REMARK VINA RESULT:      -6.8      0.000      0.000
REMARK  Name = 11915
REMARK  3 active torsions:
REMARK  status: ('A' for Active; 'I' for Inactive)
REMARK    1  A    between atoms: C_1  and  C_8
REMARK    2  A    between atoms: C_8  and  C_10
REMARK    3  A    between atoms: C_10  and  O_11
REMARK                            x       y       z     vdW  Elec       q    Type
REMARK                         _______ _______ _______ _____ _____    ______ ____
ROOT
ATOM      1  C   UNL     1      29.195 -23.707 -15.722  0.00  0.00    +0.046 C 
ATOM      2  C   UNL     1      29.339 -24.924 -15.054  0.00  0.00    +0.003 C 
ATOM      3  C   UNL     1      30.145 -22.700 -15.551  0.00  0.00    +0.003 C 
ATOM      4  C   UNL     1      30.433 -25.132 -14.215  0.00  0.00    +0.000 C 
ATOM      5  C   UNL     1      31.240 -22.909 -14.712  0.00  0.00    +0.000 C 
ATOM      6  C   UNL     1      31.383 -24.125 -14.043  0.00  0.00    +0.000 C 
ENDROOT
BRANCH   1   8
ATOM      7  O   UNL     1      27.760 -24.216 -17.551  0.00  0.00    -0.280 OA
ATOM      8  C   UNL     1      28.054 -23.489 -16.597  0.00  0.00    +0.270 C 
BRANCH   8  10
ATOM      9  O   UNL     1      26.322 -22.301 -15.454  0.00  0.00    -0.241 OA
ATOM     10  C   UNL     1      27.109 -22.332 -16.378  0.00  0.00    +0.378 C 
BRANCH  10  11
ATOM     11  O   UNL     1      27.295 -21.424 -17.345  0.00  0.00    -0.475 OA
ATOM     12  H   UNL     1      28.109 -20.965 -17.407  0.00  0.00    +0.296 HD
ENDBRANCH  10  11
ENDBRANCH   8  10
ENDBRANCH   1   8
TORSDOF 3
ENDMDL
MODEL 2
REMARK VINA RESULT:      -6.7      8.219      9.160
REMARK  Name = 11915
REMARK  3 active torsions:
REMARK  status: ('A' for Active; 'I' for Inactive)
REMARK    1  A    between atoms: C_1  and  C_8
REMARK    2  A    between atoms: C_8  and  C_10
REMARK    3  A    between atoms: C_10  and  O_11
REMARK                            x       y       z     vdW  Elec       q    Type
REMARK                         _______ _______ _______ _____ _____    ______ ____
ROOT
ATOM      1  C   UNL     1      34.579 -19.818 -21.067  0.00  0.00    +0.046 C 
ATOM      2  C   UNL     1      35.665 -20.521 -20.547  0.00  0.00    +0.003 C 
ATOM      3  C   UNL     1      33.288 -20.093 -20.616  0.00  0.00    +0.003 C 
ATOM      4  C   UNL     1      35.461 -21.500 -19.574  0.00  0.00    +0.000 C 
ATOM      5  C   UNL     1      33.083 -21.072 -19.643  0.00  0.00    +0.000 C 
ATOM      6  C   UNL     1      34.169 -21.775 -19.122  0.00  0.00    +0.000 C 
ENDROOT
BRANCH   1   8
ATOM      7  O   UNL     1      34.565 -18.959 -23.287  0.00  0.00    -0.280 OA
ATOM      8  C   UNL     1      34.791 -18.799 -22.083  0.00  0.00    +0.270 C 
BRANCH   8  10
ATOM      9  O   UNL     1      35.310 -17.017 -20.575  0.00  0.00    -0.241 OA
ATOM     10  C   UNL     1      35.298 -17.424 -21.719  0.00  0.00    +0.378 C 
BRANCH  10  11
ATOM     11  O   UNL     1      35.689 -16.791 -22.833  0.00  0.00    -0.475 OA
ATOM     12  H   UNL     1      36.344 -16.123 -22.786  0.00  0.00    +0.296 HD
ENDBRANCH  10  11
ENDBRANCH   8  10
ENDBRANCH   1   8
TORSDOF 3
ENDMDL
MODEL 3
REMARK VINA RESULT:      -6.6      8.413      9.421
REMARK  Name = 11915
REMARK  3 active torsions:
REMARK  status: ('A' for Active; 'I' for Inactive)
REMARK    1  A    between atoms: C_1  and  C_8
REMARK    2  A    between atoms: C_8  and  C_10
REMARK    3  A    between atoms: C_10  and  O_11
REMARK                            x       y       z     vdW  Elec       q    Type
REMARK                         _______ _______ _______ _____ _____    ______ ____
ROOT
ATOM      1  C   UNL     1      34.676 -19.522 -20.929  0.00  0.00    +0.046 C 
ATOM      2  C   UNL     1      33.336 -19.811 -20.670  0.00  0.00    +0.003 C 
ATOM      3  C   UNL     1      35.678 -20.363 -20.445  0.00  0.00    +0.003 C 
ATOM      4  C   UNL     1      32.998 -20.943 -19.928  0.00  0.00    +0.000 C 
ATOM      5  C   UNL     1      35.340 -21.496 -19.703  0.00  0.00    +0.000 C 
ATOM      6  C   UNL     1      34.000 -21.785 -19.444  0.00  0.00    +0.000 C 
ENDROOT
BRANCH   1   8
ATOM      7  O   UNL     1      35.253 -17.230 -21.210  0.00  0.00    -0.280 OA
ATOM      8  C   UNL     1      35.029 -18.341 -21.702  0.00  0.00    +0.270 C 
BRANCH   8  10
ATOM      9  O   UNL     1      34.790 -19.352 -23.855  0.00  0.00    -0.241 OA
ATOM     10  C   UNL     1      35.172 -18.402 -23.203  0.00  0.00    +0.378 C 
BRANCH  10  11
ATOM     11  O   UNL     1      35.771 -17.284 -23.633  0.00  0.00    -0.475 OA
ATOM     12  H   UNL     1      36.411 -16.860 -23.096  0.00  0.00    +0.296 HD
ENDBRANCH  10  11
ENDBRANCH   8  10
ENDBRANCH   1   8
TORSDOF 3
ENDMDL
MODEL 4
REMARK VINA RESULT:      -6.6      6.757      7.958
REMARK  Name = 11915
REMARK  3 active torsions:
REMARK  status: ('A' for Active; 'I' for Inactive)
REMARK    1  A    between atoms: C_1  and  C_8
REMARK    2  A    between atoms: C_8  and  C_10
REMARK    3  A    between atoms: C_10  and  O_11
REMARK                            x       y       z     vdW  Elec       q    Type
REMARK                         _______ _______ _______ _____ _____    ______ ____
ROOT
ATOM      1  C   UNL     1      34.624 -21.108 -19.679  0.00  0.00    +0.046 C 
ATOM      2  C   UNL     1      35.722 -20.517 -20.304  0.00  0.00    +0.003 C 
ATOM      3  C   UNL     1      33.331 -20.700 -20.007  0.00  0.00    +0.003 C 
ATOM      4  C   UNL     1      35.527 -19.519 -21.258  0.00  0.00    +0.000 C 
ATOM      5  C   UNL     1      33.136 -19.700 -20.961  0.00  0.00    +0.000 C 
ATOM      6  C   UNL     1      34.234 -19.110 -21.586  0.00  0.00    +0.000 C 
ENDROOT
BRANCH   1   8
ATOM      7  O   UNL     1      35.855 -22.279 -18.013  0.00  0.00    -0.280 OA
ATOM      8  C   UNL     1      34.826 -22.149 -18.684  0.00  0.00    +0.270 C 
BRANCH   8  10
ATOM      9  O   UNL     1      32.973 -23.026 -17.454  0.00  0.00    -0.241 OA
ATOM     10  C   UNL     1      33.748 -23.160 -18.378  0.00  0.00    +0.378 C 
BRANCH  10  11
ATOM     11  O   UNL     1      33.824 -24.165 -19.262  0.00  0.00    -0.475 OA
ATOM     12  H   UNL     1      33.434 -24.075 -20.108  0.00  0.00    +0.296 HD
ENDBRANCH  10  11
ENDBRANCH   8  10
ENDBRANCH   1   8
TORSDOF 3
ENDMDL
MODEL 5
REMARK VINA RESULT:      -6.6      6.388      7.486
REMARK  Name = 11915
REMARK  3 active torsions:
REMARK  status: ('A' for Active; 'I' for Inactive)
REMARK    1  A    between atoms: C_1  and  C_8
REMARK    2  A    between atoms: C_8  and  C_10
REMARK    3  A    between atoms: C_10  and  O_11
REMARK                            x       y       z     vdW  Elec       q    Type
REMARK                         _______ _______ _______ _____ _____    ______ ____
ROOT
ATOM      1  C   UNL     1      34.184 -21.601 -19.731  0.00  0.00    +0.046 C 
ATOM      2  C   UNL     1      33.075 -20.835 -20.090  0.00  0.00    +0.003 C 
ATOM      3  C   UNL     1      35.471 -21.140 -20.010  0.00  0.00    +0.003 C 
ATOM      4  C   UNL     1      33.253 -19.607 -20.727  0.00  0.00    +0.000 C 
ATOM      5  C   UNL     1      35.649 -19.911 -20.648  0.00  0.00    +0.000 C 
ATOM      6  C   UNL     1      34.539 -19.145 -21.006  0.00  0.00    +0.000 C 
ENDROOT
BRANCH   1   8
ATOM      7  O   UNL     1      33.969 -23.969 -19.652  0.00  0.00    -0.280 OA
ATOM      8  C   UNL     1      34.000 -22.882 -19.067  0.00  0.00    +0.270 C 
BRANCH   8  10
ATOM      9  O   UNL     1      34.807 -23.057 -16.823  0.00  0.00    -0.241 OA
ATOM     10  C   UNL     1      33.852 -22.973 -17.568  0.00  0.00    +0.378 C 
BRANCH  10  11
ATOM     11  O   UNL     1      32.550 -22.956 -17.253  0.00  0.00    -0.475 OA
ATOM     12  H   UNL     1      32.279 -22.690 -16.397  0.00  0.00    +0.296 HD
ENDBRANCH  10  11
ENDBRANCH   8  10
ENDBRANCH   1   8
TORSDOF 3
ENDMDL
MODEL 6
REMARK VINA RESULT:      -6.4      8.442     10.071
REMARK  Name = 11915
REMARK  3 active torsions:
REMARK  status: ('A' for Active; 'I' for Inactive)
REMARK    1  A    between atoms: C_1  and  C_8
REMARK    2  A    between atoms: C_8  and  C_10
REMARK    3  A    between atoms: C_10  and  O_11
REMARK                            x       y       z     vdW  Elec       q    Type
REMARK                         _______ _______ _______ _____ _____    ______ ____
ROOT
ATOM      1  C   UNL     1      37.531 -24.862 -15.020  0.00  0.00    +0.046 C 
ATOM      2  C   UNL     1      37.866 -23.561 -15.397  0.00  0.00    +0.003 C 
ATOM      3  C   UNL     1      36.192 -25.230 -14.892  0.00  0.00    +0.003 C 
ATOM      4  C   UNL     1      36.860 -22.628 -15.648  0.00  0.00    +0.000 C 
ATOM      5  C   UNL     1      35.185 -24.296 -15.143  0.00  0.00    +0.000 C 
ATOM      6  C   UNL     1      35.520 -22.995 -15.520  0.00  0.00    +0.000 C 
ENDROOT
BRANCH   1   8
ATOM      7  O   UNL     1      38.374 -26.997 -14.390  0.00  0.00    -0.280 OA
ATOM      8  C   UNL     1      38.580 -25.835 -14.757  0.00  0.00    +0.270 C 
BRANCH   8  10
ATOM      9  O   UNL     1      40.674 -24.884 -14.104  0.00  0.00    -0.241 OA
ATOM     10  C   UNL     1      40.036 -25.487 -14.943  0.00  0.00    +0.378 C 
BRANCH  10  11
ATOM     11  O   UNL     1      40.446 -25.935 -16.137  0.00  0.00    -0.475 OA
ATOM     12  H   UNL     1      41.274 -25.663 -16.481  0.00  0.00    +0.296 HD
ENDBRANCH  10  11
ENDBRANCH   8  10
ENDBRANCH   1   8
TORSDOF 3
ENDMDL
MODEL 7
REMARK VINA RESULT:      -6.4      8.436      9.972
REMARK  Name = 11915
REMARK  3 active torsions:
REMARK  status: ('A' for Active; 'I' for Inactive)
REMARK    1  A    between atoms: C_1  and  C_8
REMARK    2  A    between atoms: C_8  and  C_10
REMARK    3  A    between atoms: C_10  and  O_11
REMARK                            x       y       z     vdW  Elec       q    Type
REMARK                         _______ _______ _______ _____ _____    ______ ____
ROOT
ATOM      1  C   UNL     1      37.528 -24.860 -14.989  0.00  0.00    +0.046 C 
ATOM      2  C   UNL     1      36.194 -25.190 -14.750  0.00  0.00    +0.003 C 
ATOM      3  C   UNL     1      37.861 -23.587 -15.452  0.00  0.00    +0.003 C 
ATOM      4  C   UNL     1      35.192 -24.245 -14.973  0.00  0.00    +0.000 C 
ATOM      5  C   UNL     1      36.858 -22.642 -15.675  0.00  0.00    +0.000 C 
ATOM      6  C   UNL     1      35.524 -22.972 -15.436  0.00  0.00    +0.000 C 
ENDROOT
BRANCH   1   8
ATOM      7  O   UNL     1      38.364 -27.018 -14.437  0.00  0.00    -0.280 OA
ATOM      8  C   UNL     1      38.574 -25.844 -14.758  0.00  0.00    +0.270 C 
BRANCH   8  10
ATOM      9  O   UNL     1      40.653 -24.880 -14.076  0.00  0.00    -0.241 OA
ATOM     10  C   UNL     1      40.032 -25.491 -14.921  0.00  0.00    +0.378 C 
BRANCH  10  11
ATOM     11  O   UNL     1      40.464 -25.944 -16.106  0.00  0.00    -0.475 OA
ATOM     12  H   UNL     1      40.634 -26.858 -16.224  0.00  0.00    +0.296 HD
ENDBRANCH  10  11
ENDBRANCH   8  10
ENDBRANCH   1   8
TORSDOF 3
ENDMDL
MODEL 8
REMARK VINA RESULT:      -6.3      8.942      9.936
REMARK  Name = 11915
REMARK  3 active torsions:
REMARK  status: ('A' for Active; 'I' for Inactive)
REMARK    1  A    between atoms: C_1  and  C_8
REMARK    2  A    between atoms: C_8  and  C_10
REMARK    3  A    between atoms: C_10  and  O_11
REMARK                            x       y       z     vdW  Elec       q    Type
REMARK                         _______ _______ _______ _____ _____    ______ ____
ROOT
ATOM      1  C   UNL     1      34.981 -18.710 -21.381  0.00  0.00    +0.046 C 
ATOM      2  C   UNL     1      36.231 -19.169 -20.966  0.00  0.00    +0.003 C 
ATOM      3  C   UNL     1      33.826 -19.401 -21.015  0.00  0.00    +0.003 C 
ATOM      4  C   UNL     1      36.326 -20.320 -20.184  0.00  0.00    +0.000 C 
ATOM      5  C   UNL     1      33.921 -20.553 -20.233  0.00  0.00    +0.000 C 
ATOM      6  C   UNL     1      35.171 -21.012 -19.818  0.00  0.00    +0.000 C 
ENDROOT
BRANCH   1   8
ATOM      7  O   UNL     1      34.729 -17.513 -23.423  0.00  0.00    -0.280 OA
ATOM      8  C   UNL     1      34.881 -17.510 -22.197  0.00  0.00    +0.270 C 
BRANCH   8  10
ATOM      9  O   UNL     1      34.914 -15.960 -20.376  0.00  0.00    -0.241 OA
ATOM     10  C   UNL     1      34.935 -16.134 -21.577  0.00  0.00    +0.378 C 
BRANCH  10  11
ATOM     11  O   UNL     1      34.995 -15.216 -22.551  0.00  0.00    -0.475 OA
ATOM     12  H   UNL     1      35.721 -15.208 -23.143  0.00  0.00    +0.296 HD
ENDBRANCH  10  11
ENDBRANCH   8  10
ENDBRANCH   1   8
TORSDOF 3
ENDMDL
MODEL 9
REMARK VINA RESULT:      -6.3      8.803     10.388
REMARK  Name = 11915
REMARK  3 active torsions:
REMARK  status: ('A' for Active; 'I' for Inactive)
REMARK    1  A    between atoms: C_1  and  C_8
REMARK    2  A    between atoms: C_8  and  C_10
REMARK    3  A    between atoms: C_10  and  O_11
REMARK                            x       y       z     vdW  Elec       q    Type
REMARK                         _______ _______ _______ _____ _____    ______ ____
ROOT
ATOM      1  C   UNL     1      37.989 -24.957 -13.722  0.00  0.00    +0.046 C 
ATOM      2  C   UNL     1      38.253 -24.607 -12.398  0.00  0.00    +0.003 C 
ATOM      3  C   UNL     1      36.861 -24.449 -14.367  0.00  0.00    +0.003 C 
ATOM      4  C   UNL     1      37.389 -23.749 -11.718  0.00  0.00    +0.000 C 
ATOM      5  C   UNL     1      35.996 -23.590 -13.687  0.00  0.00    +0.000 C 
ATOM      6  C   UNL     1      36.260 -23.240 -12.363  0.00  0.00    +0.000 C 
ENDROOT
BRANCH   1   8
ATOM      7  O   UNL     1      38.640 -27.038 -14.674  0.00  0.00    -0.280 OA
ATOM      8  C   UNL     1      38.889 -25.853 -14.431  0.00  0.00    +0.270 C 
BRANCH   8  10
ATOM      9  O   UNL     1      40.916 -24.588 -14.343  0.00  0.00    -0.241 OA
ATOM     10  C   UNL     1      40.220 -25.372 -14.955  0.00  0.00    +0.378 C 
BRANCH  10  11
ATOM     11  O   UNL     1      40.452 -25.936 -16.148  0.00  0.00    -0.475 OA
ATOM     12  H   UNL     1      40.247 -26.839 -16.287  0.00  0.00    +0.296 HD
ENDBRANCH  10  11
ENDBRANCH   8  10
ENDBRANCH   1   8
TORSDOF 3
ENDMDL
