MODEL 1
REMARK VINA RESULT:      -9.5      0.000      0.000
REMARK  Name = 18690028
REMARK  4 active torsions:
REMARK  status: ('A' for Active; 'I' for Inactive)
REMARK    1  A    between atoms: C_3  and  C_12
REMARK    2  A    between atoms: C_8  and  O_19
REMARK    3  A    between atoms: C_13  and  C_15
REMARK    4  A    between atoms: O_19  and  C_20
REMARK                            x       y       z     vdW  Elec       q    Type
REMARK                         _______ _______ _______ _____ _____    ______ ____
ROOT
ATOM      1  O   UNL     1      31.768  -9.085 -20.725  0.00  0.00    -0.226 OA
ATOM      2  N   UNL     1      32.187 -10.685 -22.358  0.00  0.00    -0.246 N 
ATOM      3  C   UNL     1      32.800 -13.471 -22.843  0.00  0.00    +0.096 C 
ATOM      4  C   UNL     1      33.634 -12.341 -23.473  0.00  0.00    +0.032 C 
ATOM      5  C   UNL     1      32.164 -13.002 -21.521  0.00  0.00    +0.032 C 
ATOM      6  C   UNL     1      32.803 -11.068 -23.633  0.00  0.00    +0.097 C 
ATOM      7  C   UNL     1      31.364 -11.716 -21.724  0.00  0.00    +0.097 C 
ATOM      8  C   UNL     1      32.314  -9.421 -21.775  0.00  0.00    +0.405 C 
ENDROOT
BRANCH   3  12
ATOM      9  O   UNL     1      34.783 -14.818 -23.347  0.00  0.00    -0.316 OA
ATOM     10  N   UNL     1      33.344 -15.803 -21.941  0.00  0.00    -0.312 NA
ATOM     11  N   UNL     1      35.340 -16.064 -23.029  0.00  0.00    -0.007 NA
ATOM     12  C   UNL     1      33.610 -14.746 -22.665  0.00  0.00    +0.293 C 
ATOM     13  C   UNL     1      34.434 -16.585 -22.196  0.00  0.00    +0.133 C 
BRANCH  13  15
ATOM     14  S   UNL     1      36.126 -18.661 -21.348  0.00  0.00    -0.075 S 
ATOM     15  C   UNL     1      34.603 -17.918 -21.594  0.00  0.00    +0.106 C 
ATOM     16  C   UNL     1      33.564 -18.714 -21.164  0.00  0.00    +0.018 C 
ATOM     17  C   UNL     1      34.025 -19.950 -20.626  0.00  0.00    +0.008 C 
ATOM     18  C   UNL     1      35.398 -20.052 -20.664  0.00  0.00    +0.036 C 
ENDBRANCH  13  15
ENDBRANCH   3  12
BRANCH   8  19
ATOM     19  O   UNL     1      33.117  -8.583 -22.500  0.00  0.00    -0.442 OA
BRANCH  19  20
ATOM     20  C   UNL     1      32.491  -7.408 -23.029  0.00  0.00    +0.138 C 
ATOM     21  C   UNL     1      31.146  -7.807 -23.637  0.00  0.00    +0.044 C 
ATOM     22  C   UNL     1      33.415  -6.836 -24.101  0.00  0.00    +0.044 C 
ATOM     23  C   UNL     1      32.300  -6.405 -21.893  0.00  0.00    +0.044 C 
ENDBRANCH  19  20
ENDBRANCH   8  19
TORSDOF 4
ENDMDL
MODEL 2
REMARK VINA RESULT:      -9.5      2.972      9.051
REMARK  Name = 18690028
REMARK  4 active torsions:
REMARK  status: ('A' for Active; 'I' for Inactive)
REMARK    1  A    between atoms: C_3  and  C_12
REMARK    2  A    between atoms: C_8  and  O_19
REMARK    3  A    between atoms: C_13  and  C_15
REMARK    4  A    between atoms: O_19  and  C_20
REMARK                            x       y       z     vdW  Elec       q    Type
REMARK                         _______ _______ _______ _____ _____    ______ ____
ROOT
ATOM      1  O   UNL     1      35.703 -16.407 -23.635  0.00  0.00    -0.226 OA
ATOM      2  N   UNL     1      33.759 -15.523 -22.717  0.00  0.00    -0.246 N 
ATOM      3  C   UNL     1      32.194 -13.118 -22.349  0.00  0.00    +0.096 C 
ATOM      4  C   UNL     1      32.559 -14.031 -21.165  0.00  0.00    +0.032 C 
ATOM      5  C   UNL     1      33.248 -13.233 -23.466  0.00  0.00    +0.032 C 
ATOM      6  C   UNL     1      32.779 -15.471 -21.628  0.00  0.00    +0.097 C 
ATOM      7  C   UNL     1      33.451 -14.690 -23.879  0.00  0.00    +0.097 C 
ATOM      8  C   UNL     1      34.899 -16.332 -22.707  0.00  0.00    +0.405 C 
ENDROOT
BRANCH   3  12
ATOM      9  O   UNL     1      31.650 -11.481 -20.610  0.00  0.00    -0.316 OA
ATOM     10  N   UNL     1      32.068 -10.576 -22.615  0.00  0.00    -0.312 NA
ATOM     11  N   UNL     1      31.508 -10.096 -20.449  0.00  0.00    -0.007 NA
ATOM     12  C   UNL     1      31.981 -11.677 -21.913  0.00  0.00    +0.293 C 
ATOM     13  C   UNL     1      31.770  -9.632 -21.674  0.00  0.00    +0.133 C 
BRANCH  13  15
ATOM     14  S   UNL     1      31.243  -7.565 -23.502  0.00  0.00    -0.075 S 
ATOM     15  C   UNL     1      31.738  -8.194 -21.988  0.00  0.00    +0.106 C 
ATOM     16  C   UNL     1      32.099  -7.197 -21.108  0.00  0.00    +0.018 C 
ATOM     17  C   UNL     1      31.969  -5.901 -21.685  0.00  0.00    +0.008 C 
ATOM     18  C   UNL     1      31.512  -5.955 -22.983  0.00  0.00    +0.036 C 
ENDBRANCH  13  15
ENDBRANCH   3  12
BRANCH   8  19
ATOM     19  O   UNL     1      35.032 -17.044 -21.545  0.00  0.00    -0.442 OA
BRANCH  19  20
ATOM     20  C   UNL     1      34.993 -18.470 -21.669  0.00  0.00    +0.138 C 
ATOM     21  C   UNL     1      33.760 -18.988 -20.929  0.00  0.00    +0.044 C 
ATOM     22  C   UNL     1      36.269 -19.023 -21.039  0.00  0.00    +0.044 C 
ATOM     23  C   UNL     1      34.927 -18.828 -23.153  0.00  0.00    +0.044 C 
ENDBRANCH  19  20
ENDBRANCH   8  19
TORSDOF 4
ENDMDL
MODEL 3
REMARK VINA RESULT:      -9.0      6.968     12.084
REMARK  Name = 18690028
REMARK  4 active torsions:
REMARK  status: ('A' for Active; 'I' for Inactive)
REMARK    1  A    between atoms: C_3  and  C_12
REMARK    2  A    between atoms: C_8  and  O_19
REMARK    3  A    between atoms: C_13  and  C_15
REMARK    4  A    between atoms: O_19  and  C_20
REMARK                            x       y       z     vdW  Elec       q    Type
REMARK                         _______ _______ _______ _____ _____    ______ ____
ROOT
ATOM      1  O   UNL     1      34.066 -23.152 -14.216  0.00  0.00    -0.226 OA
ATOM      2  N   UNL     1      33.916 -23.160 -16.535  0.00  0.00    -0.246 N 
ATOM      3  C   UNL     1      34.959 -22.019 -18.981  0.00  0.00    +0.096 C 
ATOM      4  C   UNL     1      33.447 -22.072 -18.697  0.00  0.00    +0.032 C 
ATOM      5  C   UNL     1      35.755 -21.972 -17.663  0.00  0.00    +0.032 C 
ATOM      6  C   UNL     1      33.104 -23.226 -17.755  0.00  0.00    +0.097 C 
ATOM      7  C   UNL     1      35.363 -23.129 -16.745  0.00  0.00    +0.097 C 
ATOM      8  C   UNL     1      33.387 -23.169 -15.241  0.00  0.00    +0.405 C 
ENDROOT
BRANCH   3  12
ATOM      9  O   UNL     1      36.499 -20.237 -19.655  0.00  0.00    -0.316 OA
ATOM     10  N   UNL     1      34.667 -20.393 -20.935  0.00  0.00    -0.312 NA
ATOM     11  N   UNL     1      36.616 -19.234 -20.627  0.00  0.00    -0.007 NA
ATOM     12  C   UNL     1      35.324 -20.871 -19.909  0.00  0.00    +0.293 C 
ATOM     13  C   UNL     1      35.499 -19.390 -21.343  0.00  0.00    +0.133 C 
BRANCH  13  15
ATOM     14  S   UNL     1      35.049 -16.828 -22.404  0.00  0.00    -0.075 S 
ATOM     15  C   UNL     1      35.186 -18.532 -22.499  0.00  0.00    +0.106 C 
ATOM     16  C   UNL     1      34.969 -18.998 -23.777  0.00  0.00    +0.018 C 
ATOM     17  C   UNL     1      34.686 -17.941 -24.690  0.00  0.00    +0.008 C 
ATOM     18  C   UNL     1      34.698 -16.708 -24.076  0.00  0.00    +0.036 C 
ENDBRANCH  13  15
ENDBRANCH   3  12
BRANCH   8  19
ATOM     19  O   UNL     1      32.018 -23.200 -15.230  0.00  0.00    -0.442 OA
BRANCH  19  20
ATOM     20  C   UNL     1      31.416 -24.229 -14.436  0.00  0.00    +0.138 C 
ATOM     21  C   UNL     1      30.392 -24.969 -15.296  0.00  0.00    +0.044 C 
ATOM     22  C   UNL     1      30.733 -23.555 -13.249  0.00  0.00    +0.044 C 
ATOM     23  C   UNL     1      32.513 -25.178 -13.957  0.00  0.00    +0.044 C 
ENDBRANCH  19  20
ENDBRANCH   8  19
TORSDOF 4
ENDMDL
MODEL 4
REMARK VINA RESULT:      -8.8      1.410      1.565
REMARK  Name = 18690028
REMARK  4 active torsions:
REMARK  status: ('A' for Active; 'I' for Inactive)
REMARK    1  A    between atoms: C_3  and  C_12
REMARK    2  A    between atoms: C_8  and  O_19
REMARK    3  A    between atoms: C_13  and  C_15
REMARK    4  A    between atoms: O_19  and  C_20
REMARK                            x       y       z     vdW  Elec       q    Type
REMARK                         _______ _______ _______ _____ _____    ______ ____
ROOT
ATOM      1  O   UNL     1      31.944  -8.158 -20.331  0.00  0.00    -0.226 OA
ATOM      2  N   UNL     1      31.860 -10.016 -21.725  0.00  0.00    -0.246 N 
ATOM      3  C   UNL     1      32.185 -12.888 -21.866  0.00  0.00    +0.096 C 
ATOM      4  C   UNL     1      32.895 -11.946 -22.856  0.00  0.00    +0.032 C 
ATOM      5  C   UNL     1      31.923 -12.169 -20.530  0.00  0.00    +0.032 C 
ATOM      6  C   UNL     1      32.119 -10.640 -23.026  0.00  0.00    +0.097 C 
ATOM      7  C   UNL     1      31.167 -10.860 -20.751  0.00  0.00    +0.097 C 
ATOM      8  C   UNL     1      32.194  -8.696 -21.408  0.00  0.00    +0.405 C 
ENDROOT
BRANCH   3  12
ATOM      9  O   UNL     1      33.561 -14.361 -20.474  0.00  0.00    -0.316 OA
ATOM     10  N   UNL     1      33.101 -15.191 -22.503  0.00  0.00    -0.312 NA
ATOM     11  N   UNL     1      34.184 -15.615 -20.534  0.00  0.00    -0.007 NA
ATOM     12  C   UNL     1      32.946 -14.190 -21.674  0.00  0.00    +0.293 C 
ATOM     13  C   UNL     1      33.868 -16.041 -21.760  0.00  0.00    +0.133 C 
BRANCH  13  15
ATOM     14  S   UNL     1      34.843 -17.598 -23.884  0.00  0.00    -0.075 S 
ATOM     15  C   UNL     1      34.319 -17.345 -22.274  0.00  0.00    +0.106 C 
ATOM     16  C   UNL     1      34.370 -18.501 -21.526  0.00  0.00    +0.018 C 
ATOM     17  C   UNL     1      34.846 -19.608 -22.285  0.00  0.00    +0.008 C 
ATOM     18  C   UNL     1      35.141 -19.258 -23.585  0.00  0.00    +0.036 C 
ENDBRANCH  13  15
ENDBRANCH   3  12
BRANCH   8  19
ATOM     19  O   UNL     1      32.835  -8.053 -22.433  0.00  0.00    -0.442 OA
BRANCH  19  20
ATOM     20  C   UNL     1      32.156  -6.924 -22.995  0.00  0.00    +0.138 C 
ATOM     21  C   UNL     1      30.810  -7.393 -23.546  0.00  0.00    +0.044 C 
ATOM     22  C   UNL     1      33.032  -6.371 -24.116  0.00  0.00    +0.044 C 
ATOM     23  C   UNL     1      31.961  -5.879 -21.898  0.00  0.00    +0.044 C 
ENDBRANCH  19  20
ENDBRANCH   8  19
TORSDOF 4
ENDMDL
MODEL 5
REMARK VINA RESULT:      -8.5      5.014     11.074
REMARK  Name = 18690028
REMARK  4 active torsions:
REMARK  status: ('A' for Active; 'I' for Inactive)
REMARK    1  A    between atoms: C_3  and  C_12
REMARK    2  A    between atoms: C_8  and  O_19
REMARK    3  A    between atoms: C_13  and  C_15
REMARK    4  A    between atoms: O_19  and  C_20
REMARK                            x       y       z     vdW  Elec       q    Type
REMARK                         _______ _______ _______ _____ _____    ______ ____
ROOT
ATOM      1  O   UNL     1      36.858 -22.463 -16.970  0.00  0.00    -0.226 OA
ATOM      2  N   UNL     1      35.643 -21.925 -18.877  0.00  0.00    -0.246 N 
ATOM      3  C   UNL     1      35.259 -19.962 -20.967  0.00  0.00    +0.096 C 
ATOM      4  C   UNL     1      34.077 -20.500 -20.140  0.00  0.00    +0.032 C 
ATOM      5  C   UNL     1      36.565 -20.032 -20.154  0.00  0.00    +0.032 C 
ATOM      6  C   UNL     1      34.371 -21.903 -19.608  0.00  0.00    +0.097 C 
ATOM      7  C   UNL     1      36.805 -21.445 -19.624  0.00  0.00    +0.097 C 
ATOM      8  C   UNL     1      35.788 -22.407 -17.573  0.00  0.00    +0.405 C 
ENDROOT
BRANCH   3  12
ATOM      9  O   UNL     1      35.284 -17.531 -20.662  0.00  0.00    -0.316 OA
ATOM     10  N   UNL     1      34.515 -18.192 -22.659  0.00  0.00    -0.312 NA
ATOM     11  N   UNL     1      34.960 -16.361 -21.362  0.00  0.00    -0.007 NA
ATOM     12  C   UNL     1      34.992 -18.562 -21.498  0.00  0.00    +0.293 C 
ATOM     13  C   UNL     1      34.513 -16.833 -22.529  0.00  0.00    +0.133 C 
BRANCH  13  15
ATOM     14  S   UNL     1      33.499 -14.342 -23.340  0.00  0.00    -0.075 S 
ATOM     15  C   UNL     1      34.049 -15.942 -23.606  0.00  0.00    +0.106 C 
ATOM     16  C   UNL     1      34.002 -16.290 -24.938  0.00  0.00    +0.018 C 
ATOM     17  C   UNL     1      33.508 -15.230 -25.751  0.00  0.00    +0.008 C 
ATOM     18  C   UNL     1      33.197 -14.110 -25.010  0.00  0.00    +0.036 C 
ENDBRANCH  13  15
ENDBRANCH   3  12
BRANCH   8  19
ATOM     19  O   UNL     1      34.601 -22.816 -17.026  0.00  0.00    -0.442 OA
BRANCH  19  20
ATOM     20  C   UNL     1      34.660 -23.303 -15.680  0.00  0.00    +0.138 C 
ATOM     21  C   UNL     1      35.190 -24.737 -15.706  0.00  0.00    +0.044 C 
ATOM     22  C   UNL     1      33.243 -23.264 -15.114  0.00  0.00    +0.044 C 
ATOM     23  C   UNL     1      35.587 -22.394 -14.875  0.00  0.00    +0.044 C 
ENDBRANCH  19  20
ENDBRANCH   8  19
TORSDOF 4
ENDMDL
MODEL 6
REMARK VINA RESULT:      -8.5      3.982      6.617
REMARK  Name = 18690028
REMARK  4 active torsions:
REMARK  status: ('A' for Active; 'I' for Inactive)
REMARK    1  A    between atoms: C_3  and  C_12
REMARK    2  A    between atoms: C_8  and  O_19
REMARK    3  A    between atoms: C_13  and  C_15
REMARK    4  A    between atoms: O_19  and  C_20
REMARK                            x       y       z     vdW  Elec       q    Type
REMARK                         _______ _______ _______ _____ _____    ______ ____
ROOT
ATOM      1  O   UNL     1      33.948 -16.197 -25.728  0.00  0.00    -0.226 OA
ATOM      2  N   UNL     1      35.030 -17.059 -23.861  0.00  0.00    -0.246 N 
ATOM      3  C   UNL     1      35.068 -19.212 -21.928  0.00  0.00    +0.096 C 
ATOM      4  C   UNL     1      35.093 -17.736 -21.491  0.00  0.00    +0.032 C 
ATOM      5  C   UNL     1      34.365 -19.361 -23.290  0.00  0.00    +0.032 C 
ATOM      6  C   UNL     1      35.707 -16.851 -22.576  0.00  0.00    +0.097 C 
ATOM      7  C   UNL     1      34.996 -18.443 -24.335  0.00  0.00    +0.097 C 
ATOM      8  C   UNL     1      34.482 -16.031 -24.633  0.00  0.00    +0.405 C 
ENDROOT
BRANCH   3  12
ATOM      9  O   UNL     1      33.109 -20.301 -20.940  0.00  0.00    -0.316 OA
ATOM     10  N   UNL     1      35.029 -20.737 -19.874  0.00  0.00    -0.312 NA
ATOM     11  N   UNL     1      32.779 -21.149 -19.875  0.00  0.00    -0.007 NA
ATOM     12  C   UNL     1      34.452 -20.109 -20.866  0.00  0.00    +0.293 C 
ATOM     13  C   UNL     1      33.963 -21.362 -19.293  0.00  0.00    +0.133 C 
BRANCH  13  15
ATOM     14  S   UNL     1      35.565 -22.376 -17.221  0.00  0.00    -0.075 S 
ATOM     15  C   UNL     1      34.106 -22.215 -18.102  0.00  0.00    +0.106 C 
ATOM     16  C   UNL     1      33.091 -22.977 -17.564  0.00  0.00    +0.018 C 
ATOM     17  C   UNL     1      33.518 -23.702 -16.415  0.00  0.00    +0.008 C 
ATOM     18  C   UNL     1      34.842 -23.467 -16.116  0.00  0.00    +0.036 C 
ENDBRANCH  13  15
ENDBRANCH   3  12
BRANCH   8  19
ATOM     19  O   UNL     1      34.603 -14.803 -24.040  0.00  0.00    -0.442 OA
BRANCH  19  20
ATOM     20  C   UNL     1      33.392 -14.055 -23.882  0.00  0.00    +0.138 C 
ATOM     21  C   UNL     1      33.754 -12.589 -23.645  0.00  0.00    +0.044 C 
ATOM     22  C   UNL     1      32.651 -14.627 -22.676  0.00  0.00    +0.044 C 
ATOM     23  C   UNL     1      32.555 -14.212 -25.151  0.00  0.00    +0.044 C 
ENDBRANCH  19  20
ENDBRANCH   8  19
TORSDOF 4
ENDMDL
MODEL 7
REMARK VINA RESULT:      -8.4      6.862     12.366
REMARK  Name = 18690028
REMARK  4 active torsions:
REMARK  status: ('A' for Active; 'I' for Inactive)
REMARK    1  A    between atoms: C_3  and  C_12
REMARK    2  A    between atoms: C_8  and  O_19
REMARK    3  A    between atoms: C_13  and  C_15
REMARK    4  A    between atoms: O_19  and  C_20
REMARK                            x       y       z     vdW  Elec       q    Type
REMARK                         _______ _______ _______ _____ _____    ______ ____
ROOT
ATOM      1  O   UNL     1      37.482 -22.217 -14.484  0.00  0.00    -0.226 OA
ATOM      2  N   UNL     1      36.171 -22.746 -16.330  0.00  0.00    -0.246 N 
ATOM      3  C   UNL     1      35.353 -21.904 -18.974  0.00  0.00    +0.096 C 
ATOM      4  C   UNL     1      34.323 -22.294 -17.898  0.00  0.00    +0.032 C 
ATOM      5  C   UNL     1      36.645 -21.377 -18.322  0.00  0.00    +0.032 C 
ATOM      6  C   UNL     1      34.924 -23.275 -16.892  0.00  0.00    +0.097 C 
ATOM      7  C   UNL     1      37.195 -22.379 -17.308  0.00  0.00    +0.097 C 
ATOM      8  C   UNL     1      36.423 -22.625 -14.960  0.00  0.00    +0.405 C 
ENDROOT
BRANCH   3  12
ATOM      9  O   UNL     1      33.429 -20.771 -19.982  0.00  0.00    -0.316 OA
ATOM     10  N   UNL     1      35.401 -20.180 -20.864  0.00  0.00    -0.312 NA
ATOM     11  N   UNL     1      33.143 -19.828 -20.978  0.00  0.00    -0.007 NA
ATOM     12  C   UNL     1      34.779 -20.919 -19.981  0.00  0.00    +0.293 C 
ATOM     13  C   UNL     1      34.355 -19.527 -21.452  0.00  0.00    +0.133 C 
BRANCH  13  15
ATOM     14  S   UNL     1      34.748 -16.873 -22.283  0.00  0.00    -0.075 S 
ATOM     15  C   UNL     1      34.549 -18.554 -22.540  0.00  0.00    +0.106 C 
ATOM     16  C   UNL     1      34.592 -18.880 -23.878  0.00  0.00    +0.018 C 
ATOM     17  C   UNL     1      34.790 -17.735 -24.702  0.00  0.00    +0.008 C 
ATOM     18  C   UNL     1      34.892 -16.577 -23.963  0.00  0.00    +0.036 C 
ENDBRANCH  13  15
ENDBRANCH   3  12
BRANCH   8  19
ATOM     19  O   UNL     1      35.359 -23.012 -14.190  0.00  0.00    -0.442 OA
BRANCH  19  20
ATOM     20  C   UNL     1      35.624 -24.020 -13.208  0.00  0.00    +0.138 C 
ATOM     21  C   UNL     1      36.458 -25.124 -13.857  0.00  0.00    +0.044 C 
ATOM     22  C   UNL     1      34.279 -24.569 -12.737  0.00  0.00    +0.044 C 
ATOM     23  C   UNL     1      36.380 -23.379 -12.045  0.00  0.00    +0.044 C 
ENDBRANCH  19  20
ENDBRANCH   8  19
TORSDOF 4
ENDMDL
MODEL 8
REMARK VINA RESULT:      -8.3      5.369     11.557
REMARK  Name = 18690028
REMARK  4 active torsions:
REMARK  status: ('A' for Active; 'I' for Inactive)
REMARK    1  A    between atoms: C_3  and  C_12
REMARK    2  A    between atoms: C_8  and  O_19
REMARK    3  A    between atoms: C_13  and  C_15
REMARK    4  A    between atoms: O_19  and  C_20
REMARK                            x       y       z     vdW  Elec       q    Type
REMARK                         _______ _______ _______ _____ _____    ______ ____
ROOT
ATOM      1  O   UNL     1      36.993 -22.215 -15.721  0.00  0.00    -0.226 OA
ATOM      2  N   UNL     1      35.777 -22.240 -17.702  0.00  0.00    -0.246 N 
ATOM      3  C   UNL     1      35.308 -20.878 -20.211  0.00  0.00    +0.096 C 
ATOM      4  C   UNL     1      34.148 -21.270 -19.277  0.00  0.00    +0.032 C 
ATOM      5  C   UNL     1      36.603 -20.664 -19.405  0.00  0.00    +0.032 C 
ATOM      6  C   UNL     1      34.519 -22.478 -18.417  0.00  0.00    +0.097 C 
ATOM      7  C   UNL     1      36.920 -21.885 -18.544  0.00  0.00    +0.097 C 
ATOM      8  C   UNL     1      35.931 -22.377 -16.319  0.00  0.00    +0.405 C 
ENDROOT
BRANCH   3  12
ATOM      9  O   UNL     1      34.781 -19.905 -22.396  0.00  0.00    -0.316 OA
ATOM     10  N   UNL     1      34.816 -18.419 -20.720  0.00  0.00    -0.312 NA
ATOM     11  N   UNL     1      34.479 -18.662 -22.970  0.00  0.00    -0.007 NA
ATOM     12  C   UNL     1      34.964 -19.671 -21.070  0.00  0.00    +0.293 C 
ATOM     13  C   UNL     1      34.519 -17.838 -21.919  0.00  0.00    +0.133 C 
BRANCH  13  15
ATOM     14  S   UNL     1      34.632 -15.487 -23.452  0.00  0.00    -0.075 S 
ATOM     15  C   UNL     1      34.259 -16.394 -22.049  0.00  0.00    +0.106 C 
ATOM     16  C   UNL     1      33.692 -15.614 -21.065  0.00  0.00    +0.018 C 
ATOM     17  C   UNL     1      33.563 -14.254 -21.469  0.00  0.00    +0.008 C 
ATOM     18  C   UNL     1      34.035 -14.046 -22.746  0.00  0.00    +0.036 C 
ENDBRANCH  13  15
ENDBRANCH   3  12
BRANCH   8  19
ATOM     19  O   UNL     1      34.763 -22.713 -15.689  0.00  0.00    -0.442 OA
BRANCH  19  20
ATOM     20  C   UNL     1      34.846 -23.772 -14.728  0.00  0.00    +0.138 C 
ATOM     21  C   UNL     1      35.692 -23.293 -13.549  0.00  0.00    +0.044 C 
ATOM     22  C   UNL     1      35.507 -24.966 -15.413  0.00  0.00    +0.044 C 
ATOM     23  C   UNL     1      33.431 -24.129 -14.274  0.00  0.00    +0.044 C 
ENDBRANCH  19  20
ENDBRANCH   8  19
TORSDOF 4
ENDMDL
MODEL 9
REMARK VINA RESULT:      -7.9     12.493     15.373
REMARK  Name = 18690028
REMARK  4 active torsions:
REMARK  status: ('A' for Active; 'I' for Inactive)
REMARK    1  A    between atoms: C_3  and  C_12
REMARK    2  A    between atoms: C_8  and  O_19
REMARK    3  A    between atoms: C_13  and  C_15
REMARK    4  A    between atoms: O_19  and  C_20
REMARK                            x       y       z     vdW  Elec       q    Type
REMARK                         _______ _______ _______ _____ _____    ______ ____
ROOT
ATOM      1  O   UNL     1      38.223 -25.878 -11.639  0.00  0.00    -0.226 OA
ATOM      2  N   UNL     1      37.200 -24.101 -12.733  0.00  0.00    -0.246 N 
ATOM      3  C   UNL     1      34.750 -23.163 -13.953  0.00  0.00    +0.096 C 
ATOM      4  C   UNL     1      36.100 -23.083 -14.690  0.00  0.00    +0.032 C 
ATOM      5  C   UNL     1      34.756 -24.322 -12.939  0.00  0.00    +0.032 C 
ATOM      6  C   UNL     1      37.262 -23.000 -13.701  0.00  0.00    +0.097 C 
ATOM      7  C   UNL     1      35.947 -24.211 -11.988  0.00  0.00    +0.097 C 
ATOM      8  C   UNL     1      38.258 -24.978 -12.476  0.00  0.00    +0.405 C 
ENDROOT
BRANCH   3  12
ATOM      9  O   UNL     1      33.885 -23.271 -16.242  0.00  0.00    -0.316 OA
ATOM     10  N   UNL     1      32.297 -23.325 -14.663  0.00  0.00    -0.312 NA
ATOM     11  N   UNL     1      32.662 -23.360 -16.922  0.00  0.00    -0.007 NA
ATOM     12  C   UNL     1      33.579 -23.256 -14.919  0.00  0.00    +0.293 C 
ATOM     13  C   UNL     1      31.775 -23.387 -15.923  0.00  0.00    +0.133 C 
BRANCH  13  15
ATOM     14  S   UNL     1      29.392 -24.872 -15.829  0.00  0.00    -0.075 S 
ATOM     15  C   UNL     1      30.325 -23.477 -16.168  0.00  0.00    +0.106 C 
ATOM     16  C   UNL     1      29.561 -22.459 -16.696  0.00  0.00    +0.018 C 
ATOM     17  C   UNL     1      28.191 -22.830 -16.823  0.00  0.00    +0.008 C 
ATOM     18  C   UNL     1      27.960 -24.117 -16.387  0.00  0.00    +0.036 C 
ENDBRANCH  13  15
ENDBRANCH   3  12
BRANCH   8  19
ATOM     19  O   UNL     1      39.352 -24.731 -13.262  0.00  0.00    -0.442 OA
BRANCH  19  20
ATOM     20  C   UNL     1      39.559 -25.630 -14.357  0.00  0.00    +0.138 C 
ATOM     21  C   UNL     1      40.748 -26.533 -14.027  0.00  0.00    +0.044 C 
ATOM     22  C   UNL     1      39.854 -24.787 -15.595  0.00  0.00    +0.044 C 
ATOM     23  C   UNL     1      38.289 -26.454 -14.557  0.00  0.00    +0.044 C 
ENDBRANCH  19  20
ENDBRANCH   8  19
TORSDOF 4
ENDMDL
