MODEL 1
REMARK VINA RESULT:      -9.8      0.000      0.000
REMARK  Name = 25203955
REMARK  5 active torsions:
REMARK  status: ('A' for Active; 'I' for Inactive)
REMARK    1  A    between atoms: N_2  and  C_30
REMARK    2  A    between atoms: C_22  and  O_26
REMARK    3  A    between atoms: O_26  and  C_27
REMARK    4  A    between atoms: C_30  and  C_31
REMARK    5  A    between atoms: C_31  and  O_32
REMARK                            x       y       z     vdW  Elec       q    Type
REMARK                         _______ _______ _______ _____ _____    ______ ____
ROOT
ATOM      1  O   UNL     1      31.560  -8.195 -19.805  0.00  0.00    -0.222 OA
ATOM      2  N   UNL     1      33.500 -13.226 -23.422  0.00  0.00    -0.325 N 
ATOM      3  N   UNL     1      31.248 -10.333 -18.952  0.00  0.00    -0.198 NA
ATOM      4  C   UNL     1      33.053 -10.734 -23.229  0.00  0.00    -0.005 A 
ATOM      5  C   UNL     1      33.046 -12.087 -22.795  0.00  0.00    +0.056 A 
ATOM      6  C   UNL     1      32.457  -9.726 -22.403  0.00  0.00    +0.008 A 
ATOM      7  C   UNL     1      32.539 -12.489 -21.556  0.00  0.00    +0.016 A 
ATOM      8  C   UNL     1      33.668 -10.320 -24.550  0.00  0.00    +0.033 C 
ATOM      9  C   UNL     1      32.033 -10.129 -21.141  0.00  0.00    +0.081 A 
ATOM     10  C   UNL     1      32.059 -11.464 -20.751  0.00  0.00    +0.015 A 
ATOM     11  C   UNL     1      34.317  -8.938 -24.435  0.00  0.00    +0.031 C 
ATOM     12  C   UNL     1      32.694 -13.906 -21.456  0.00  0.00    +0.017 A 
ATOM     13  C   UNL     1      32.370  -8.349 -22.950  0.00  0.00    -0.003 C 
ATOM     14  C   UNL     1      33.295 -14.337 -22.639  0.00  0.00    +0.060 A 
ATOM     15  C   UNL     1      33.304  -7.940 -23.931  0.00  0.00    -0.019 C 
ATOM     16  C   UNL     1      31.575  -9.406 -19.933  0.00  0.00    +0.150 C 
ATOM     17  C   UNL     1      31.534 -11.509 -19.411  0.00  0.00    +0.165 C 
ATOM     18  C   UNL     1      31.349  -7.446 -22.618  0.00  0.00    +0.003 C 
ATOM     19  C   UNL     1      32.387 -14.872 -20.473  0.00  0.00    +0.001 C 
ATOM     20  C   UNL     1      33.282  -6.638 -24.450  0.00  0.00    +0.033 C 
ATOM     21  C   UNL     1      33.601 -15.679 -22.892  0.00  0.00    +0.017 C 
ATOM     22  C   UNL     1      32.295  -5.743 -24.051  0.00  0.00    +0.138 C 
ATOM     23  C   UNL     1      31.319  -6.153 -23.151  0.00  0.00    +0.037 C 
ATOM     24  C   UNL     1      32.687 -16.218 -20.711  0.00  0.00    +0.000 C 
ATOM     25  C   UNL     1      33.285 -16.615 -21.904  0.00  0.00    +0.001 C 
ENDROOT
BRANCH  22  26
ATOM     26  O   UNL     1      32.266  -4.483 -24.563  0.00  0.00    -0.479 OA
BRANCH  26  27
ATOM     27  C   UNL     1      31.155  -3.662 -24.203  0.00  0.00    +0.166 C 
ATOM     28  C   UNL     1      31.625  -2.572 -23.252  0.00  0.00    +0.047 C 
ATOM     29  C   UNL     1      30.532  -3.082 -25.465  0.00  0.00    +0.047 C 
ENDBRANCH  26  27
ENDBRANCH  22  26
BRANCH   2  30
ATOM     30  C   UNL     1      34.034 -13.328 -24.766  0.00  0.00    +0.138 C 
BRANCH  30  31
ATOM     31  C   UNL     1      33.021 -13.898 -25.751  0.00  0.00    +0.162 C 
BRANCH  31  32
ATOM     32  O   UNL     1      33.619 -14.947 -26.503  0.00  0.00    -0.380 OA
ATOM     33  H   UNL     1      33.304 -15.803 -26.172  0.00  0.00    +0.211 HD
ENDBRANCH  31  32
ENDBRANCH  30  31
ENDBRANCH   2  30
TORSDOF 5
ENDMDL
MODEL 2
REMARK VINA RESULT:      -9.5      2.173      4.857
REMARK  Name = 25203955
REMARK  5 active torsions:
REMARK  status: ('A' for Active; 'I' for Inactive)
REMARK    1  A    between atoms: N_2  and  C_30
REMARK    2  A    between atoms: C_22  and  O_26
REMARK    3  A    between atoms: O_26  and  C_27
REMARK    4  A    between atoms: C_30  and  C_31
REMARK    5  A    between atoms: C_31  and  O_32
REMARK                            x       y       z     vdW  Elec       q    Type
REMARK                         _______ _______ _______ _____ _____    ______ ____
ROOT
ATOM      1  O   UNL     1      32.847 -11.668 -26.599  0.00  0.00    -0.222 OA
ATOM      2  N   UNL     1      33.750 -15.984 -21.834  0.00  0.00    -0.325 N 
ATOM      3  N   UNL     1      33.654 -13.770 -27.174  0.00  0.00    -0.198 NA
ATOM      4  C   UNL     1      33.243 -13.597 -22.535  0.00  0.00    -0.005 A 
ATOM      5  C   UNL     1      33.607 -14.955 -22.738  0.00  0.00    +0.056 A 
ATOM      6  C   UNL     1      33.223 -12.698 -23.651  0.00  0.00    +0.008 A 
ATOM      7  C   UNL     1      33.891 -15.490 -23.998  0.00  0.00    +0.016 A 
ATOM      8  C   UNL     1      32.878 -13.062 -21.166  0.00  0.00    +0.033 C 
ATOM      9  C   UNL     1      33.427 -13.263 -24.906  0.00  0.00    +0.081 A 
ATOM     10  C   UNL     1      33.767 -14.603 -25.060  0.00  0.00    +0.015 A 
ATOM     11  C   UNL     1      31.783 -11.996 -21.275  0.00  0.00    +0.031 C 
ATOM     12  C   UNL     1      34.216 -16.870 -23.828  0.00  0.00    +0.017 A 
ATOM     13  C   UNL     1      32.963 -11.263 -23.376  0.00  0.00    -0.003 C 
ATOM     14  C   UNL     1      34.122 -17.148 -22.463  0.00  0.00    +0.060 A 
ATOM     15  C   UNL     1      32.226 -10.908 -22.222  0.00  0.00    -0.019 C 
ATOM     16  C   UNL     1      33.285 -12.762 -26.291  0.00  0.00    +0.150 C 
ATOM     17  C   UNL     1      33.919 -14.826 -26.474  0.00  0.00    +0.165 C 
ATOM     18  C   UNL     1      33.490 -10.217 -24.150  0.00  0.00    +0.003 C 
ATOM     19  C   UNL     1      34.580 -17.921 -24.698  0.00  0.00    +0.001 C 
ATOM     20  C   UNL     1      31.926  -9.567 -21.941  0.00  0.00    +0.033 C 
ATOM     21  C   UNL     1      34.374 -18.415 -21.925  0.00  0.00    +0.017 C 
ATOM     22  C   UNL     1      32.407  -8.556 -22.765  0.00  0.00    +0.138 C 
ATOM     23  C   UNL     1      33.203  -8.880 -23.858  0.00  0.00    +0.037 C 
ATOM     24  C   UNL     1      34.836 -19.193 -24.175  0.00  0.00    +0.000 C 
ATOM     25  C   UNL     1      34.734 -19.436 -22.809  0.00  0.00    +0.001 C 
ENDROOT
BRANCH  22  26
ATOM     26  O   UNL     1      32.127  -7.254 -22.487  0.00  0.00    -0.479 OA
BRANCH  26  27
ATOM     27  C   UNL     1      30.905  -6.727 -23.006  0.00  0.00    +0.166 C 
ATOM     28  C   UNL     1      30.385  -5.652 -22.065  0.00  0.00    +0.047 C 
ATOM     29  C   UNL     1      31.149  -6.185 -24.407  0.00  0.00    +0.047 C 
ENDBRANCH  26  27
ENDBRANCH  22  26
BRANCH   2  30
ATOM     30  C   UNL     1      33.643 -15.897 -20.390  0.00  0.00    +0.138 C 
BRANCH  30  31
ATOM     31  C   UNL     1      32.198 -15.775 -19.923  0.00  0.00    +0.162 C 
BRANCH  31  32
ATOM     32  O   UNL     1      31.397 -16.752 -20.575  0.00  0.00    -0.380 OA
ATOM     33  H   UNL     1      31.926 -17.208 -21.247  0.00  0.00    +0.211 HD
ENDBRANCH  31  32
ENDBRANCH  30  31
ENDBRANCH   2  30
TORSDOF 5
ENDMDL
MODEL 3
REMARK VINA RESULT:      -9.0     14.005     16.521
REMARK  Name = 25203955
REMARK  5 active torsions:
REMARK  status: ('A' for Active; 'I' for Inactive)
REMARK    1  A    between atoms: N_2  and  C_30
REMARK    2  A    between atoms: C_22  and  O_26
REMARK    3  A    between atoms: O_26  and  C_27
REMARK    4  A    between atoms: C_30  and  C_31
REMARK    5  A    between atoms: C_31  and  O_32
REMARK                            x       y       z     vdW  Elec       q    Type
REMARK                         _______ _______ _______ _____ _____    ______ ____
ROOT
ATOM      1  O   UNL     1      32.749 -22.659 -18.707  0.00  0.00    -0.222 OA
ATOM      2  N   UNL     1      35.891 -24.731 -13.417  0.00  0.00    -0.325 N 
ATOM      3  N   UNL     1      35.063 -22.454 -18.666  0.00  0.00    -0.198 NA
ATOM      4  C   UNL     1      33.691 -24.185 -14.562  0.00  0.00    -0.005 A 
ATOM      5  C   UNL     1      35.106 -24.244 -14.438  0.00  0.00    +0.056 A 
ATOM      6  C   UNL     1      33.111 -23.566 -15.717  0.00  0.00    +0.008 A 
ATOM      7  C   UNL     1      35.980 -23.780 -15.425  0.00  0.00    +0.016 A 
ATOM      8  C   UNL     1      32.770 -24.755 -13.504  0.00  0.00    +0.033 C 
ATOM      9  C   UNL     1      33.990 -23.184 -16.725  0.00  0.00    +0.081 A 
ATOM     10  C   UNL     1      35.369 -23.274 -16.566  0.00  0.00    +0.015 A 
ATOM     11  C   UNL     1      31.512 -25.349 -14.144  0.00  0.00    +0.031 C 
ATOM     12  C   UNL     1      37.316 -23.996 -14.968  0.00  0.00    +0.017 A 
ATOM     13  C   UNL     1      31.635 -23.410 -15.747  0.00  0.00    -0.003 C 
ATOM     14  C   UNL     1      37.226 -24.589 -13.708  0.00  0.00    +0.060 A 
ATOM     15  C   UNL     1      30.835 -24.305 -14.998  0.00  0.00    -0.019 C 
ATOM     16  C   UNL     1      33.814 -22.722 -18.120  0.00  0.00    +0.150 C 
ATOM     17  C   UNL     1      35.954 -22.779 -17.785  0.00  0.00    +0.165 C 
ATOM     18  C   UNL     1      30.979 -22.358 -16.406  0.00  0.00    +0.003 C 
ATOM     19  C   UNL     1      38.600 -23.750 -15.500  0.00  0.00    +0.001 C 
ATOM     20  C   UNL     1      29.436 -24.218 -15.025  0.00  0.00    +0.033 C 
ATOM     21  C   UNL     1      38.350 -24.946 -12.953  0.00  0.00    +0.017 C 
ATOM     22  C   UNL     1      28.812 -23.204 -15.742  0.00  0.00    +0.138 C 
ATOM     23  C   UNL     1      29.584 -22.264 -16.417  0.00  0.00    +0.037 C 
ATOM     24  C   UNL     1      39.733 -24.100 -14.757  0.00  0.00    +0.000 C 
ATOM     25  C   UNL     1      39.609 -24.689 -13.503  0.00  0.00    +0.001 C 
ENDROOT
BRANCH  22  26
ATOM     26  O   UNL     1      27.455 -23.111 -15.760  0.00  0.00    -0.479 OA
BRANCH  26  27
ATOM     27  C   UNL     1      26.890 -21.971 -16.406  0.00  0.00    +0.166 C 
ATOM     28  C   UNL     1      26.709 -22.273 -17.886  0.00  0.00    +0.047 C 
ATOM     29  C   UNL     1      25.571 -21.617 -15.734  0.00  0.00    +0.047 C 
ENDBRANCH  26  27
ENDBRANCH  22  26
BRANCH   2  30
ATOM     30  C   UNL     1      35.439 -25.241 -12.137  0.00  0.00    +0.138 C 
BRANCH  30  31
ATOM     31  C   UNL     1      35.647 -24.240 -11.007  0.00  0.00    +0.162 C 
BRANCH  31  32
ATOM     32  O   UNL     1      35.315 -24.842  -9.763  0.00  0.00    -0.380 OA
ATOM     33  H   UNL     1      35.130 -25.784  -9.899  0.00  0.00    +0.211 HD
ENDBRANCH  31  32
ENDBRANCH  30  31
ENDBRANCH   2  30
TORSDOF 5
ENDMDL
MODEL 4
REMARK VINA RESULT:      -8.9      1.941      3.219
REMARK  Name = 25203955
REMARK  5 active torsions:
REMARK  status: ('A' for Active; 'I' for Inactive)
REMARK    1  A    between atoms: N_2  and  C_30
REMARK    2  A    between atoms: C_22  and  O_26
REMARK    3  A    between atoms: O_26  and  C_27
REMARK    4  A    between atoms: C_30  and  C_31
REMARK    5  A    between atoms: C_31  and  O_32
REMARK                            x       y       z     vdW  Elec       q    Type
REMARK                         _______ _______ _______ _____ _____    ______ ____
ROOT
ATOM      1  O   UNL     1      32.040 -11.993 -19.622  0.00  0.00    -0.222 OA
ATOM      2  N   UNL     1      34.232 -15.604 -24.552  0.00  0.00    -0.325 N 
ATOM      3  N   UNL     1      32.313 -14.273 -19.264  0.00  0.00    -0.198 NA
ATOM      4  C   UNL     1      33.349 -13.375 -23.718  0.00  0.00    -0.005 A 
ATOM      5  C   UNL     1      33.687 -14.752 -23.619  0.00  0.00    +0.056 A 
ATOM      6  C   UNL     1      32.730 -12.720 -22.604  0.00  0.00    +0.008 A 
ATOM      7  C   UNL     1      33.504 -15.501 -22.454  0.00  0.00    +0.016 A 
ATOM      8  C   UNL     1      33.620 -12.572 -24.974  0.00  0.00    +0.033 C 
ATOM      9  C   UNL     1      32.630 -13.456 -21.428  0.00  0.00    +0.081 A 
ATOM     10  C   UNL     1      32.987 -14.798 -21.372  0.00  0.00    +0.015 A 
ATOM     11  C   UNL     1      33.997 -11.129 -24.623  0.00  0.00    +0.031 C 
ATOM     12  C   UNL     1      33.948 -16.834 -22.713  0.00  0.00    +0.017 A 
ATOM     13  C   UNL     1      32.277 -11.319 -22.793  0.00  0.00    -0.003 C 
ATOM     14  C   UNL     1      34.395 -16.867 -24.034  0.00  0.00    +0.060 A 
ATOM     15  C   UNL     1      32.917 -10.516 -23.767  0.00  0.00    -0.019 C 
ATOM     16  C   UNL     1      32.268 -13.117 -20.034  0.00  0.00    +0.150 C 
ATOM     17  C   UNL     1      32.734 -15.233 -20.023  0.00  0.00    +0.165 C 
ATOM     18  C   UNL     1      31.176 -10.762 -22.124  0.00  0.00    +0.003 C 
ATOM     19  C   UNL     1      34.021 -18.023 -21.954  0.00  0.00    +0.001 C 
ATOM     20  C   UNL     1      32.547  -9.177 -23.955  0.00  0.00    +0.033 C 
ATOM     21  C   UNL     1      34.907 -18.023 -24.636  0.00  0.00    +0.017 C 
ATOM     22  C   UNL     1      31.494  -8.634 -23.227  0.00  0.00    +0.138 C 
ATOM     23  C   UNL     1      30.797  -9.431 -22.326  0.00  0.00    +0.037 C 
ATOM     24  C   UNL     1      34.529 -19.187 -22.542  0.00  0.00    +0.000 C 
ATOM     25  C   UNL     1      34.965 -19.185 -23.864  0.00  0.00    +0.001 C 
ENDROOT
BRANCH  22  26
ATOM     26  O   UNL     1      31.126  -7.338 -23.418  0.00  0.00    -0.479 OA
BRANCH  26  27
ATOM     27  C   UNL     1      32.094  -6.335 -23.110  0.00  0.00    +0.166 C 
ATOM     28  C   UNL     1      31.915  -5.159 -24.058  0.00  0.00    +0.047 C 
ATOM     29  C   UNL     1      31.939  -5.919 -21.655  0.00  0.00    +0.047 C 
ENDBRANCH  26  27
ENDBRANCH  22  26
BRANCH   2  30
ATOM     30  C   UNL     1      34.521 -15.307 -25.942  0.00  0.00    +0.138 C 
BRANCH  30  31
ATOM     31  C   UNL     1      33.264 -14.978 -26.739  0.00  0.00    +0.162 C 
BRANCH  31  32
ATOM     32  O   UNL     1      32.365 -16.079 -26.694  0.00  0.00    -0.380 OA
ATOM     33  H   UNL     1      31.991 -16.226 -27.576  0.00  0.00    +0.211 HD
ENDBRANCH  31  32
ENDBRANCH  30  31
ENDBRANCH   2  30
TORSDOF 5
ENDMDL
MODEL 5
REMARK VINA RESULT:      -7.6      2.423      8.546
REMARK  Name = 25203955
REMARK  5 active torsions:
REMARK  status: ('A' for Active; 'I' for Inactive)
REMARK    1  A    between atoms: N_2  and  C_30
REMARK    2  A    between atoms: C_22  and  O_26
REMARK    3  A    between atoms: O_26  and  C_27
REMARK    4  A    between atoms: C_30  and  C_31
REMARK    5  A    between atoms: C_31  and  O_32
REMARK                            x       y       z     vdW  Elec       q    Type
REMARK                         _______ _______ _______ _____ _____    ______ ____
ROOT
ATOM      1  O   UNL     1      35.634 -11.561 -26.257  0.00  0.00    -0.222 OA
ATOM      2  N   UNL     1      31.815  -9.719 -21.341  0.00  0.00    -0.325 N 
ATOM      3  N   UNL     1      35.275  -9.286 -25.952  0.00  0.00    -0.198 NA
ATOM      4  C   UNL     1      32.738 -11.587 -22.792  0.00  0.00    -0.005 A 
ATOM      5  C   UNL     1      32.525 -10.237 -22.400  0.00  0.00    +0.056 A 
ATOM      6  C   UNL     1      33.477 -11.865 -23.987  0.00  0.00    +0.008 A 
ATOM      7  C   UNL     1      33.060  -9.147 -23.093  0.00  0.00    +0.016 A 
ATOM      8  C   UNL     1      32.198 -12.749 -21.985  0.00  0.00    +0.033 C 
ATOM      9  C   UNL     1      34.071 -10.776 -24.617  0.00  0.00    +0.081 A 
ATOM     10  C   UNL     1      33.848  -9.472 -24.190  0.00  0.00    +0.015 A 
ATOM     11  C   UNL     1      33.166 -13.936 -22.031  0.00  0.00    +0.031 C 
ATOM     12  C   UNL     1      32.647  -7.955 -22.424  0.00  0.00    +0.017 A 
ATOM     13  C   UNL     1      33.566 -13.279 -24.429  0.00  0.00    -0.003 C 
ATOM     14  C   UNL     1      31.867  -8.345 -21.335  0.00  0.00    +0.060 A 
ATOM     15  C   UNL     1      33.445 -14.308 -23.466  0.00  0.00    -0.019 C 
ATOM     16  C   UNL     1      35.058 -10.637 -25.711  0.00  0.00    +0.150 C 
ATOM     17  C   UNL     1      34.594  -8.618 -25.077  0.00  0.00    +0.165 C 
ATOM     18  C   UNL     1      33.671 -13.667 -25.774  0.00  0.00    +0.003 C 
ATOM     19  C   UNL     1      32.859  -6.574 -22.631  0.00  0.00    +0.001 C 
ATOM     20  C   UNL     1      33.558 -15.657 -23.832  0.00  0.00    +0.033 C 
ATOM     21  C   UNL     1      31.288  -7.431 -20.446  0.00  0.00    +0.017 C 
ATOM     22  C   UNL     1      33.729 -16.007 -25.167  0.00  0.00    +0.138 C 
ATOM     23  C   UNL     1      33.766 -15.013 -26.139  0.00  0.00    +0.037 C 
ATOM     24  C   UNL     1      32.286  -5.648 -21.752  0.00  0.00    +0.000 C 
ATOM     25  C   UNL     1      31.512  -6.072 -20.676  0.00  0.00    +0.001 C 
ENDROOT
BRANCH  22  26
ATOM     26  O   UNL     1      33.827 -17.315 -25.525  0.00  0.00    -0.479 OA
BRANCH  26  27
ATOM     27  C   UNL     1      34.230 -18.238 -24.513  0.00  0.00    +0.166 C 
ATOM     28  C   UNL     1      34.446 -19.606 -25.140  0.00  0.00    +0.047 C 
ATOM     29  C   UNL     1      35.489 -17.719 -23.835  0.00  0.00    +0.047 C 
ENDBRANCH  26  27
ENDBRANCH  22  26
BRANCH   2  30
ATOM     30  C   UNL     1      31.010 -10.456 -20.386  0.00  0.00    +0.138 C 
BRANCH  30  31
ATOM     31  C   UNL     1      31.802 -10.856 -19.147  0.00  0.00    +0.162 C 
BRANCH  31  32
ATOM     32  O   UNL     1      32.675  -9.799 -18.772  0.00  0.00    -0.380 OA
ATOM     33  H   UNL     1      32.711  -9.736 -17.805  0.00  0.00    +0.211 HD
ENDBRANCH  31  32
ENDBRANCH  30  31
ENDBRANCH   2  30
TORSDOF 5
ENDMDL
MODEL 6
REMARK VINA RESULT:      -7.4      2.848      9.778
REMARK  Name = 25203955
REMARK  5 active torsions:
REMARK  status: ('A' for Active; 'I' for Inactive)
REMARK    1  A    between atoms: N_2  and  C_30
REMARK    2  A    between atoms: C_22  and  O_26
REMARK    3  A    between atoms: O_26  and  C_27
REMARK    4  A    between atoms: C_30  and  C_31
REMARK    5  A    between atoms: C_31  and  O_32
REMARK                            x       y       z     vdW  Elec       q    Type
REMARK                         _______ _______ _______ _____ _____    ______ ____
ROOT
ATOM      1  O   UNL     1      34.836 -16.043 -25.795  0.00  0.00    -0.222 OA
ATOM      2  N   UNL     1      32.565 -11.824 -21.415  0.00  0.00    -0.325 N 
ATOM      3  N   UNL     1      33.989 -14.022 -26.568  0.00  0.00    -0.198 NA
ATOM      4  C   UNL     1      33.417 -14.156 -21.946  0.00  0.00    -0.005 A 
ATOM      5  C   UNL     1      32.986 -12.836 -22.248  0.00  0.00    +0.056 A 
ATOM      6  C   UNL     1      33.752 -15.049 -23.014  0.00  0.00    +0.008 A 
ATOM      7  C   UNL     1      32.931 -12.329 -23.549  0.00  0.00    +0.016 A 
ATOM      8  C   UNL     1      33.527 -14.655 -20.520  0.00  0.00    +0.033 C 
ATOM      9  C   UNL     1      33.772 -14.506 -24.295  0.00  0.00    +0.081 A 
ATOM     10  C   UNL     1      33.356 -13.202 -24.543  0.00  0.00    +0.015 A 
ATOM     11  C   UNL     1      34.709 -15.619 -20.374  0.00  0.00    +0.031 C 
ATOM     12  C   UNL     1      32.458 -10.983 -23.479  0.00  0.00    +0.017 A 
ATOM     13  C   UNL     1      34.072 -16.455 -22.663  0.00  0.00    -0.003 C 
ATOM     14  C   UNL     1      32.235 -10.698 -22.131  0.00  0.00    +0.060 A 
ATOM     15  C   UNL     1      34.574 -16.743 -21.372  0.00  0.00    -0.019 C 
ATOM     16  C   UNL     1      34.249 -14.992 -25.609  0.00  0.00    +0.150 C 
ATOM     17  C   UNL     1      33.490 -12.993 -25.962  0.00  0.00    +0.165 C 
ATOM     18  C   UNL     1      33.816 -17.545 -23.510  0.00  0.00    +0.003 C 
ATOM     19  C   UNL     1      32.197  -9.970 -24.427  0.00  0.00    +0.001 C 
ATOM     20  C   UNL     1      34.924 -18.051 -21.007  0.00  0.00    +0.033 C 
ATOM     21  C   UNL     1      31.764  -9.458 -21.683  0.00  0.00    +0.017 C 
ATOM     22  C   UNL     1      34.721 -19.101 -21.895  0.00  0.00    +0.138 C 
ATOM     23  C   UNL     1      34.150 -18.851 -23.138  0.00  0.00    +0.037 C 
ATOM     24  C   UNL     1      31.726  -8.725 -23.995  0.00  0.00    +0.000 C 
ATOM     25  C   UNL     1      31.513  -8.475 -22.643  0.00  0.00    +0.001 C 
ENDROOT
BRANCH  22  26
ATOM     26  O   UNL     1      35.048 -20.373 -21.539  0.00  0.00    -0.479 OA
BRANCH  26  27
ATOM     27  C   UNL     1      35.017 -20.686 -20.146  0.00  0.00    +0.166 C 
ATOM     28  C   UNL     1      33.664 -21.290 -19.800  0.00  0.00    +0.047 C 
ATOM     29  C   UNL     1      36.161 -21.634 -19.820  0.00  0.00    +0.047 C 
ENDBRANCH  26  27
ENDBRANCH  22  26
BRANCH   2  30
ATOM     30  C   UNL     1      32.369 -11.900 -19.980  0.00  0.00    +0.138 C 
BRANCH  30  31
ATOM     31  C   UNL     1      31.112 -11.168 -19.526  0.00  0.00    +0.162 C 
BRANCH  31  32
ATOM     32  O   UNL     1      31.248 -10.776 -18.166  0.00  0.00    -0.380 OA
ATOM     33  H   UNL     1      30.983 -11.510 -17.590  0.00  0.00    +0.211 HD
ENDBRANCH  31  32
ENDBRANCH  30  31
ENDBRANCH   2  30
TORSDOF 5
ENDMDL
MODEL 7
REMARK VINA RESULT:      -7.1      9.983     14.759
REMARK  Name = 25203955
REMARK  5 active torsions:
REMARK  status: ('A' for Active; 'I' for Inactive)
REMARK    1  A    between atoms: N_2  and  C_30
REMARK    2  A    between atoms: C_22  and  O_26
REMARK    3  A    between atoms: O_26  and  C_27
REMARK    4  A    between atoms: C_30  and  C_31
REMARK    5  A    between atoms: C_31  and  O_32
REMARK                            x       y       z     vdW  Elec       q    Type
REMARK                         _______ _______ _______ _____ _____    ______ ____
ROOT
ATOM      1  O   UNL     1      31.852 -22.383 -16.687  0.00  0.00    -0.222 OA
ATOM      2  N   UNL     1      37.921 -23.997 -15.043  0.00  0.00    -0.325 N 
ATOM      3  N   UNL     1      32.145 -23.826 -14.890  0.00  0.00    -0.198 NA
ATOM      4  C   UNL     1      36.339 -22.891 -16.693  0.00  0.00    -0.005 A 
ATOM      5  C   UNL     1      36.686 -23.656 -15.546  0.00  0.00    +0.056 A 
ATOM      6  C   UNL     1      34.958 -22.728 -17.039  0.00  0.00    +0.008 A 
ATOM      7  C   UNL     1      35.737 -24.217 -14.686  0.00  0.00    +0.016 A 
ATOM      8  C   UNL     1      37.390 -22.242 -17.570  0.00  0.00    +0.033 C 
ATOM      9  C   UNL     1      34.028 -23.221 -16.130  0.00  0.00    +0.081 A 
ATOM     10  C   UNL     1      34.413 -23.952 -15.012  0.00  0.00    +0.015 A 
ATOM     11  C   UNL     1      36.887 -20.902 -18.115  0.00  0.00    +0.031 C 
ATOM     12  C   UNL     1      36.436 -24.911 -13.652  0.00  0.00    +0.017 A 
ATOM     13  C   UNL     1      34.645 -22.032 -18.312  0.00  0.00    -0.003 C 
ATOM     14  C   UNL     1      37.800 -24.758 -13.905  0.00  0.00    +0.060 A 
ATOM     15  C   UNL     1      35.577 -21.106 -18.836  0.00  0.00    -0.019 C 
ATOM     16  C   UNL     1      32.561 -23.087 -15.990  0.00  0.00    +0.150 C 
ATOM     17  C   UNL     1      33.201 -24.312 -14.322  0.00  0.00    +0.165 C 
ATOM     18  C   UNL     1      33.509 -22.309 -19.089  0.00  0.00    +0.003 C 
ATOM     19  C   UNL     1      36.048 -25.657 -12.517  0.00  0.00    +0.001 C 
ATOM     20  C   UNL     1      35.308 -20.398 -20.016  0.00  0.00    +0.033 C 
ATOM     21  C   UNL     1      38.793 -25.310 -13.087  0.00  0.00    +0.017 C 
ATOM     22  C   UNL     1      34.140 -20.647 -20.728  0.00  0.00    +0.138 C 
ATOM     23  C   UNL     1      33.251 -21.615 -20.275  0.00  0.00    +0.037 C 
ATOM     24  C   UNL     1      37.029 -26.216 -11.691  0.00  0.00    +0.000 C 
ATOM     25  C   UNL     1      38.381 -26.045 -11.973  0.00  0.00    +0.001 C 
ENDROOT
BRANCH  22  26
ATOM     26  O   UNL     1      33.883 -19.971 -21.880  0.00  0.00    -0.479 OA
BRANCH  26  27
ATOM     27  C   UNL     1      34.829 -18.977 -22.275  0.00  0.00    +0.166 C 
ATOM     28  C   UNL     1      34.983 -19.007 -23.788  0.00  0.00    +0.047 C 
ATOM     29  C   UNL     1      34.362 -17.616 -21.780  0.00  0.00    +0.047 C 
ENDBRANCH  26  27
ENDBRANCH  22  26
BRANCH   2  30
ATOM     30  C   UNL     1      39.213 -23.716 -15.639  0.00  0.00    +0.138 C 
BRANCH  30  31
ATOM     31  C   UNL     1      40.260 -24.761 -15.273  0.00  0.00    +0.162 C 
BRANCH  31  32
ATOM     32  O   UNL     1      40.253 -25.807 -16.236  0.00  0.00    -0.380 OA
ATOM     33  H   UNL     1      39.355 -26.164 -16.319  0.00  0.00    +0.211 HD
ENDBRANCH  31  32
ENDBRANCH  30  31
ENDBRANCH   2  30
TORSDOF 5
ENDMDL
