MODEL 1
REMARK VINA RESULT:     -10.3      0.000      0.000
REMARK  Name = 3266379
REMARK  5 active torsions:
REMARK  status: ('A' for Active; 'I' for Inactive)
REMARK    1  A    between atoms: C_8  and  O_17
REMARK    2  A    between atoms: C_10  and  C_21
REMARK    3  A    between atoms: C_13  and  O_19
REMARK    4  A    between atoms: C_21  and  C_23
REMARK    5  A    between atoms: C_23  and  O_24
REMARK                            x       y       z     vdW  Elec       q    Type
REMARK                         _______ _______ _______ _____ _____    ______ ____
ROOT
ATOM      1  O   UNL     1      33.093 -24.683 -12.835  0.00  0.00    -0.286 OA
ATOM      2  O   UNL     1      35.040 -22.773 -17.430  0.00  0.00    -0.287 OA
ATOM      3  C   UNL     1      32.626 -23.742 -14.937  0.00  0.00    +0.075 C 
ATOM      4  C   UNL     1      33.136 -23.244 -16.138  0.00  0.00    +0.045 C 
ATOM      5  C   UNL     1      34.995 -24.208 -14.126  0.00  0.00    +0.076 C 
ATOM      6  C   UNL     1      35.504 -23.710 -15.327  0.00  0.00    +0.045 C 
ATOM      7  C   UNL     1      33.538 -24.244 -13.888  0.00  0.00    +0.202 C 
ATOM      8  C   UNL     1      31.243 -23.768 -14.723  0.00  0.00    +0.133 C 
ATOM      9  C   UNL     1      34.594 -23.210 -16.377  0.00  0.00    +0.196 C 
ATOM     10  C   UNL     1      30.376 -23.296 -15.708  0.00  0.00    +0.023 C 
ATOM     11  C   UNL     1      32.263 -22.772 -17.125  0.00  0.00    +0.003 C 
ATOM     12  C   UNL     1      30.884 -22.800 -16.907  0.00  0.00    -0.001 C 
ATOM     13  C   UNL     1      35.868 -24.680 -13.139  0.00  0.00    +0.137 C 
ATOM     14  C   UNL     1      36.888 -23.683 -15.540  0.00  0.00    +0.003 C 
ATOM     15  C   UNL     1      37.247 -24.652 -13.356  0.00  0.00    +0.037 C 
ATOM     16  C   UNL     1      37.755 -24.154 -14.554  0.00  0.00    +0.003 C 
ENDROOT
BRANCH   8  17
ATOM     17  O   UNL     1      30.694 -24.245 -13.568  0.00  0.00    -0.506 OA
ATOM     18  H   UNL     1      31.166 -24.862 -13.044  0.00  0.00    +0.292 HD
ENDBRANCH   8  17
BRANCH  13  19
ATOM     19  O   UNL     1      35.440 -25.180 -11.945  0.00  0.00    -0.505 OA
ATOM     20  H   UNL     1      34.678 -25.725 -11.911  0.00  0.00    +0.292 HD
ENDBRANCH  13  19
BRANCH  10  21
ATOM     21  C   UNL     1      28.896 -23.314 -15.503  0.00  0.00    +0.139 C 
BRANCH  21  23
ATOM     22  O   UNL     1      27.784 -23.942 -17.576  0.00  0.00    -0.250 OA
ATOM     23  C   UNL     1      28.110 -23.076 -16.776  0.00  0.00    +0.318 C 
BRANCH  23  24
ATOM     24  O   UNL     1      27.800 -21.763 -16.939  0.00  0.00    -0.480 OA
ATOM     25  H   UNL     1      28.441 -21.104 -16.757  0.00  0.00    +0.295 HD
ENDBRANCH  23  24
ENDBRANCH  21  23
ENDBRANCH  10  21
TORSDOF 5
ENDMDL
MODEL 2
REMARK VINA RESULT:     -10.2      1.865      6.626
REMARK  Name = 3266379
REMARK  5 active torsions:
REMARK  status: ('A' for Active; 'I' for Inactive)
REMARK    1  A    between atoms: C_8  and  O_17
REMARK    2  A    between atoms: C_10  and  C_21
REMARK    3  A    between atoms: C_13  and  O_19
REMARK    4  A    between atoms: C_21  and  C_23
REMARK    5  A    between atoms: C_23  and  O_24
REMARK                            x       y       z     vdW  Elec       q    Type
REMARK                         _______ _______ _______ _____ _____    ______ ____
ROOT
ATOM      1  O   UNL     1      33.241 -24.931 -12.713  0.00  0.00    -0.286 OA
ATOM      2  O   UNL     1      34.092 -22.634 -17.463  0.00  0.00    -0.287 OA
ATOM      3  C   UNL     1      34.814 -24.203 -14.301  0.00  0.00    +0.075 C 
ATOM      4  C   UNL     1      35.035 -23.602 -15.541  0.00  0.00    +0.045 C 
ATOM      5  C   UNL     1      32.300 -23.968 -14.636  0.00  0.00    +0.076 C 
ATOM      6  C   UNL     1      32.523 -23.367 -15.876  0.00  0.00    +0.045 C 
ATOM      7  C   UNL     1      33.438 -24.407 -13.802  0.00  0.00    +0.202 C 
ATOM      8  C   UNL     1      35.900 -24.616 -13.521  0.00  0.00    +0.133 C 
ATOM      9  C   UNL     1      33.897 -23.162 -16.375  0.00  0.00    +0.196 C 
ATOM     10  C   UNL     1      37.202 -24.427 -13.984  0.00  0.00    +0.023 C 
ATOM     11  C   UNL     1      36.343 -23.413 -16.002  0.00  0.00    +0.003 C 
ATOM     12  C   UNL     1      37.424 -23.827 -15.222  0.00  0.00    -0.001 C 
ATOM     13  C   UNL     1      30.992 -24.157 -14.174  0.00  0.00    +0.137 C 
ATOM     14  C   UNL     1      31.435 -22.955 -16.657  0.00  0.00    +0.003 C 
ATOM     15  C   UNL     1      29.911 -23.745 -14.955  0.00  0.00    +0.037 C 
ATOM     16  C   UNL     1      30.132 -23.146 -16.194  0.00  0.00    +0.003 C 
ENDROOT
BRANCH   8  17
ATOM     17  O   UNL     1      35.739 -25.207 -12.302  0.00  0.00    -0.506 OA
ATOM     18  H   UNL     1      36.466 -25.626 -11.884  0.00  0.00    +0.292 HD
ENDBRANCH   8  17
BRANCH  13  19
ATOM     19  O   UNL     1      30.703 -24.735 -12.974  0.00  0.00    -0.505 OA
ATOM     20  H   UNL     1      29.845 -24.646 -12.606  0.00  0.00    +0.292 HD
ENDBRANCH  13  19
BRANCH  10  21
ATOM     21  C   UNL     1      38.379 -24.860 -13.170  0.00  0.00    +0.139 C 
BRANCH  21  23
ATOM     22  O   UNL     1      39.274 -26.678 -14.519  0.00  0.00    -0.250 OA
ATOM     23  C   UNL     1      39.430 -25.593 -13.976  0.00  0.00    +0.318 C 
BRANCH  23  24
ATOM     24  O   UNL     1      40.598 -24.900 -14.030  0.00  0.00    -0.480 OA
ATOM     25  H   UNL     1      41.156 -24.862 -13.279  0.00  0.00    +0.295 HD
ENDBRANCH  23  24
ENDBRANCH  21  23
ENDBRANCH  10  21
TORSDOF 5
ENDMDL
MODEL 3
REMARK VINA RESULT:      -9.8     10.818     12.883
REMARK  Name = 3266379
REMARK  5 active torsions:
REMARK  status: ('A' for Active; 'I' for Inactive)
REMARK    1  A    between atoms: C_8  and  O_17
REMARK    2  A    between atoms: C_10  and  C_21
REMARK    3  A    between atoms: C_13  and  O_19
REMARK    4  A    between atoms: C_21  and  C_23
REMARK    5  A    between atoms: C_23  and  O_24
REMARK                            x       y       z     vdW  Elec       q    Type
REMARK                         _______ _______ _______ _____ _____    ______ ____
ROOT
ATOM      1  O   UNL     1      34.759 -14.701 -21.538  0.00  0.00    -0.286 OA
ATOM      2  O   UNL     1      33.857 -17.762 -25.824  0.00  0.00    -0.287 OA
ATOM      3  C   UNL     1      34.156 -14.792 -23.807  0.00  0.00    +0.075 C 
ATOM      4  C   UNL     1      33.919 -15.592 -24.927  0.00  0.00    +0.045 C 
ATOM      5  C   UNL     1      34.700 -16.868 -22.438  0.00  0.00    +0.076 C 
ATOM      6  C   UNL     1      34.463 -17.668 -23.557  0.00  0.00    +0.045 C 
ATOM      7  C   UNL     1      34.554 -15.401 -22.521  0.00  0.00    +0.202 C 
ATOM      8  C   UNL     1      34.015 -13.402 -23.901  0.00  0.00    +0.133 C 
ATOM      9  C   UNL     1      34.065 -17.061 -24.842  0.00  0.00    +0.196 C 
ATOM     10  C   UNL     1      33.640 -12.819 -25.111  0.00  0.00    +0.023 C 
ATOM     11  C   UNL     1      33.541 -15.004 -26.139  0.00  0.00    +0.003 C 
ATOM     12  C   UNL     1      33.403 -13.618 -26.228  0.00  0.00    -0.001 C 
ATOM     13  C   UNL     1      35.078 -17.457 -21.225  0.00  0.00    +0.137 C 
ATOM     14  C   UNL     1      34.605 -19.058 -23.464  0.00  0.00    +0.003 C 
ATOM     15  C   UNL     1      35.218 -18.843 -21.136  0.00  0.00    +0.037 C 
ATOM     16  C   UNL     1      34.983 -19.641 -22.253  0.00  0.00    +0.003 C 
ENDROOT
BRANCH   8  17
ATOM     17  O   UNL     1      34.233 -12.575 -22.838  0.00  0.00    -0.506 OA
ATOM     18  H   UNL     1      34.432 -12.935 -21.996  0.00  0.00    +0.292 HD
ENDBRANCH   8  17
BRANCH  13  19
ATOM     19  O   UNL     1      35.323 -16.737 -20.094  0.00  0.00    -0.505 OA
ATOM     20  H   UNL     1      35.651 -15.861 -20.157  0.00  0.00    +0.292 HD
ENDBRANCH  13  19
BRANCH  10  21
ATOM     21  C   UNL     1      33.483 -11.338 -25.235  0.00  0.00    +0.139 C 
BRANCH  21  23
ATOM     22  O   UNL     1      35.481 -10.485 -26.334  0.00  0.00    -0.250 OA
ATOM     23  C   UNL     1      34.803 -10.599 -25.323  0.00  0.00    +0.318 C 
BRANCH  23  24
ATOM     24  O   UNL     1      35.163 -10.066 -24.125  0.00  0.00    -0.480 OA
ATOM     25  H   UNL     1      34.592 -10.146 -23.387  0.00  0.00    +0.295 HD
ENDBRANCH  23  24
ENDBRANCH  21  23
ENDBRANCH  10  21
TORSDOF 5
ENDMDL
MODEL 4
REMARK VINA RESULT:      -9.8      2.421      7.619
REMARK  Name = 3266379
REMARK  5 active torsions:
REMARK  status: ('A' for Active; 'I' for Inactive)
REMARK    1  A    between atoms: C_8  and  O_17
REMARK    2  A    between atoms: C_10  and  C_21
REMARK    3  A    between atoms: C_13  and  O_19
REMARK    4  A    between atoms: C_21  and  C_23
REMARK    5  A    between atoms: C_23  and  O_24
REMARK                            x       y       z     vdW  Elec       q    Type
REMARK                         _______ _______ _______ _____ _____    ______ ____
ROOT
ATOM      1  O   UNL     1      36.252 -23.122 -16.910  0.00  0.00    -0.286 OA
ATOM      2  O   UNL     1      33.861 -24.862 -12.459  0.00  0.00    -0.287 OA
ATOM      3  C   UNL     1      36.505 -24.064 -14.772  0.00  0.00    +0.075 C 
ATOM      4  C   UNL     1      35.880 -24.520 -13.610  0.00  0.00    +0.045 C 
ATOM      5  C   UNL     1      34.236 -23.461 -15.757  0.00  0.00    +0.076 C 
ATOM      6  C   UNL     1      33.611 -23.917 -14.594  0.00  0.00    +0.045 C 
ATOM      7  C   UNL     1      35.706 -23.519 -15.889  0.00  0.00    +0.202 C 
ATOM      8  C   UNL     1      37.899 -24.124 -14.883  0.00  0.00    +0.133 C 
ATOM      9  C   UNL     1      34.409 -24.462 -13.478  0.00  0.00    +0.196 C 
ATOM     10  C   UNL     1      38.662 -24.636 -13.834  0.00  0.00    +0.023 C 
ATOM     11  C   UNL     1      36.648 -25.035 -12.560  0.00  0.00    +0.003 C 
ATOM     12  C   UNL     1      38.038 -25.092 -12.675  0.00  0.00    -0.001 C 
ATOM     13  C   UNL     1      33.468 -22.946 -16.808  0.00  0.00    +0.137 C 
ATOM     14  C   UNL     1      32.216 -23.856 -14.483  0.00  0.00    +0.003 C 
ATOM     15  C   UNL     1      32.078 -22.888 -16.692  0.00  0.00    +0.037 C 
ATOM     16  C   UNL     1      31.454 -23.342 -15.532  0.00  0.00    +0.003 C 
ENDROOT
BRANCH   8  17
ATOM     17  O   UNL     1      38.560 -23.693 -15.997  0.00  0.00    -0.506 OA
ATOM     18  H   UNL     1      39.494 -23.751 -16.041  0.00  0.00    +0.292 HD
ENDBRANCH   8  17
BRANCH  13  19
ATOM     19  O   UNL     1      34.011 -22.486 -17.970  0.00  0.00    -0.505 OA
ATOM     20  H   UNL     1      33.727 -21.667 -18.328  0.00  0.00    +0.292 HD
ENDBRANCH  13  19
BRANCH  10  21
ATOM     21  C   UNL     1      40.151 -24.710 -13.930  0.00  0.00    +0.139 C 
BRANCH  21  23
ATOM     22  O   UNL     1      41.215 -26.897 -14.029  0.00  0.00    -0.250 OA
ATOM     23  C   UNL     1      40.649 -25.975 -14.598  0.00  0.00    +0.318 C 
BRANCH  23  24
ATOM     24  O   UNL     1      40.395 -25.973 -15.933  0.00  0.00    -0.480 OA
ATOM     25  H   UNL     1      39.895 -25.278 -16.314  0.00  0.00    +0.295 HD
ENDBRANCH  23  24
ENDBRANCH  21  23
ENDBRANCH  10  21
TORSDOF 5
ENDMDL
MODEL 5
REMARK VINA RESULT:      -9.8      1.312      3.060
REMARK  Name = 3266379
REMARK  5 active torsions:
REMARK  status: ('A' for Active; 'I' for Inactive)
REMARK    1  A    between atoms: C_8  and  O_17
REMARK    2  A    between atoms: C_10  and  C_21
REMARK    3  A    between atoms: C_13  and  O_19
REMARK    4  A    between atoms: C_21  and  C_23
REMARK    5  A    between atoms: C_23  and  O_24
REMARK                            x       y       z     vdW  Elec       q    Type
REMARK                         _______ _______ _______ _____ _____    ______ ____
ROOT
ATOM      1  O   UNL     1      33.564 -22.737 -17.430  0.00  0.00    -0.286 OA
ATOM      2  O   UNL     1      34.076 -24.533 -12.423  0.00  0.00    -0.287 OA
ATOM      3  C   UNL     1      32.494 -23.594 -15.521  0.00  0.00    +0.075 C 
ATOM      4  C   UNL     1      32.629 -24.062 -14.212  0.00  0.00    +0.045 C 
ATOM      5  C   UNL     1      35.009 -23.212 -15.642  0.00  0.00    +0.076 C 
ATOM      6  C   UNL     1      35.143 -23.680 -14.334  0.00  0.00    +0.045 C 
ATOM      7  C   UNL     1      33.680 -23.150 -16.283  0.00  0.00    +0.202 C 
ATOM      8  C   UNL     1      31.229 -23.543 -16.117  0.00  0.00    +0.133 C 
ATOM      9  C   UNL     1      33.959 -24.123 -13.571  0.00  0.00    +0.196 C 
ATOM     10  C   UNL     1      30.105 -23.960 -15.405  0.00  0.00    +0.023 C 
ATOM     11  C   UNL     1      31.498 -24.479 -13.500  0.00  0.00    +0.003 C 
ATOM     12  C   UNL     1      30.239 -24.426 -14.099  0.00  0.00    -0.001 C 
ATOM     13  C   UNL     1      36.140 -22.795 -16.355  0.00  0.00    +0.137 C 
ATOM     14  C   UNL     1      36.409 -23.732 -13.738  0.00  0.00    +0.003 C 
ATOM     15  C   UNL     1      37.400 -22.849 -15.757  0.00  0.00    +0.037 C 
ATOM     16  C   UNL     1      37.534 -23.317 -14.451  0.00  0.00    +0.003 C 
ENDROOT
BRANCH   8  17
ATOM     17  O   UNL     1      31.042 -23.093 -17.392  0.00  0.00    -0.506 OA
ATOM     18  H   UNL     1      31.777 -22.987 -17.965  0.00  0.00    +0.292 HD
ENDBRANCH   8  17
BRANCH  13  19
ATOM     19  O   UNL     1      36.082 -22.326 -17.634  0.00  0.00    -0.505 OA
ATOM     20  H   UNL     1      36.871 -22.090 -18.082  0.00  0.00    +0.292 HD
ENDBRANCH  13  19
BRANCH  10  21
ATOM     21  C   UNL     1      28.744 -23.914 -16.020  0.00  0.00    +0.139 C 
BRANCH  21  23
ATOM     22  O   UNL     1      27.641 -21.945 -15.108  0.00  0.00    -0.250 OA
ATOM     23  C   UNL     1      28.148 -22.522 -16.059  0.00  0.00    +0.318 C 
BRANCH  23  24
ATOM     24  O   UNL     1      28.238 -21.970 -17.299  0.00  0.00    -0.480 OA
ATOM     25  H   UNL     1      28.850 -22.311 -17.920  0.00  0.00    +0.295 HD
ENDBRANCH  23  24
ENDBRANCH  21  23
ENDBRANCH  10  21
TORSDOF 5
ENDMDL
MODEL 6
REMARK VINA RESULT:      -9.7      4.136      6.489
REMARK  Name = 3266379
REMARK  5 active torsions:
REMARK  status: ('A' for Active; 'I' for Inactive)
REMARK    1  A    between atoms: C_8  and  O_17
REMARK    2  A    between atoms: C_10  and  C_21
REMARK    3  A    between atoms: C_13  and  O_19
REMARK    4  A    between atoms: C_21  and  C_23
REMARK    5  A    between atoms: C_23  and  O_24
REMARK                            x       y       z     vdW  Elec       q    Type
REMARK                         _______ _______ _______ _____ _____    ______ ____
ROOT
ATOM      1  O   UNL     1      37.175 -21.698 -18.170  0.00  0.00    -0.286 OA
ATOM      2  O   UNL     1      31.909 -22.574 -17.925  0.00  0.00    -0.287 OA
ATOM      3  C   UNL     1      35.063 -21.312 -19.126  0.00  0.00    +0.075 C 
ATOM      4  C   UNL     1      33.686 -21.541 -19.060  0.00  0.00    +0.045 C 
ATOM      5  C   UNL     1      35.397 -22.734 -17.039  0.00  0.00    +0.076 C 
ATOM      6  C   UNL     1      34.021 -22.962 -16.975  0.00  0.00    +0.045 C 
ATOM      7  C   UNL     1      35.968 -21.899 -18.116  0.00  0.00    +0.202 C 
ATOM      8  C   UNL     1      35.591 -20.521 -20.152  0.00  0.00    +0.133 C 
ATOM      9  C   UNL     1      33.116 -22.375 -17.982  0.00  0.00    +0.196 C 
ATOM     10  C   UNL     1      34.743 -19.963 -21.109  0.00  0.00    +0.023 C 
ATOM     11  C   UNL     1      32.839 -20.978 -20.021  0.00  0.00    +0.003 C 
ATOM     12  C   UNL     1      33.370 -20.190 -21.044  0.00  0.00    -0.001 C 
ATOM     13  C   UNL     1      36.246 -23.297 -16.078  0.00  0.00    +0.137 C 
ATOM     14  C   UNL     1      33.493 -23.754 -15.948  0.00  0.00    +0.003 C 
ATOM     15  C   UNL     1      35.715 -24.085 -15.056  0.00  0.00    +0.037 C 
ATOM     16  C   UNL     1      34.342 -24.314 -14.992  0.00  0.00    +0.003 C 
ENDROOT
BRANCH   8  17
ATOM     17  O   UNL     1      36.927 -20.266 -20.261  0.00  0.00    -0.506 OA
ATOM     18  H   UNL     1      37.251 -19.762 -20.982  0.00  0.00    +0.292 HD
ENDBRANCH   8  17
BRANCH  13  19
ATOM     19  O   UNL     1      37.596 -23.114 -16.080  0.00  0.00    -0.505 OA
ATOM     20  H   UNL     1      38.150 -23.720 -16.533  0.00  0.00    +0.292 HD
ENDBRANCH  13  19
BRANCH  10  21
ATOM     21  C   UNL     1      35.284 -19.115 -22.215  0.00  0.00    +0.139 C 
BRANCH  21  23
ATOM     22  O   UNL     1      35.231 -17.185 -20.731  0.00  0.00    -0.250 OA
ATOM     23  C   UNL     1      35.382 -17.647 -21.853  0.00  0.00    +0.318 C 
BRANCH  23  24
ATOM     24  O   UNL     1      35.659 -16.878 -22.940  0.00  0.00    -0.480 OA
ATOM     25  H   UNL     1      34.962 -16.544 -23.468  0.00  0.00    +0.295 HD
ENDBRANCH  23  24
ENDBRANCH  21  23
ENDBRANCH  10  21
TORSDOF 5
ENDMDL
MODEL 7
REMARK VINA RESULT:      -9.7      2.926      6.988
REMARK  Name = 3266379
REMARK  5 active torsions:
REMARK  status: ('A' for Active; 'I' for Inactive)
REMARK    1  A    between atoms: C_8  and  O_17
REMARK    2  A    between atoms: C_10  and  C_21
REMARK    3  A    between atoms: C_13  and  O_19
REMARK    4  A    between atoms: C_21  and  C_23
REMARK    5  A    between atoms: C_23  and  O_24
REMARK                            x       y       z     vdW  Elec       q    Type
REMARK                         _______ _______ _______ _____ _____    ______ ____
ROOT
ATOM      1  O   UNL     1      37.233 -21.646 -18.208  0.00  0.00    -0.286 OA
ATOM      2  O   UNL     1      32.005 -22.695 -17.860  0.00  0.00    -0.287 OA
ATOM      3  C   UNL     1      35.513 -22.743 -17.042  0.00  0.00    +0.075 C 
ATOM      4  C   UNL     1      34.147 -23.018 -16.952  0.00  0.00    +0.045 C 
ATOM      5  C   UNL     1      35.091 -21.321 -19.112  0.00  0.00    +0.076 C 
ATOM      6  C   UNL     1      33.725 -21.596 -19.021  0.00  0.00    +0.045 C 
ATOM      7  C   UNL     1      36.035 -21.886 -18.126  0.00  0.00    +0.202 C 
ATOM      8  C   UNL     1      36.397 -23.283 -16.100  0.00  0.00    +0.133 C 
ATOM      9  C   UNL     1      33.203 -22.454 -17.939  0.00  0.00    +0.196 C 
ATOM     10  C   UNL     1      35.913 -24.093 -15.073  0.00  0.00    +0.023 C 
ATOM     11  C   UNL     1      33.665 -23.832 -15.921  0.00  0.00    +0.003 C 
ATOM     12  C   UNL     1      34.550 -24.368 -14.984  0.00  0.00    -0.001 C 
ATOM     13  C   UNL     1      35.574 -20.507 -20.143  0.00  0.00    +0.137 C 
ATOM     14  C   UNL     1      32.841 -21.055 -19.963  0.00  0.00    +0.003 C 
ATOM     15  C   UNL     1      34.689 -19.970 -21.080  0.00  0.00    +0.037 C 
ATOM     16  C   UNL     1      33.325 -20.243 -20.989  0.00  0.00    +0.003 C 
ENDROOT
BRANCH   8  17
ATOM     17  O   UNL     1      37.741 -23.046 -16.143  0.00  0.00    -0.506 OA
ATOM     18  H   UNL     1      38.097 -22.290 -15.719  0.00  0.00    +0.292 HD
ENDBRANCH   8  17
BRANCH  13  19
ATOM     19  O   UNL     1      36.893 -20.199 -20.292  0.00  0.00    -0.505 OA
ATOM     20  H   UNL     1      37.162 -19.603 -20.964  0.00  0.00    +0.292 HD
ENDBRANCH  13  19
BRANCH  10  21
ATOM     21  C   UNL     1      36.837 -24.680 -14.056  0.00  0.00    +0.139 C 
BRANCH  21  23
ATOM     22  O   UNL     1      37.506 -26.671 -15.288  0.00  0.00    -0.250 OA
ATOM     23  C   UNL     1      37.090 -26.160 -14.258  0.00  0.00    +0.318 C 
BRANCH  23  24
ATOM     24  O   UNL     1      36.794 -26.879 -13.142  0.00  0.00    -0.480 OA
ATOM     25  H   UNL     1      36.116 -26.590 -12.565  0.00  0.00    +0.295 HD
ENDBRANCH  23  24
ENDBRANCH  21  23
ENDBRANCH  10  21
TORSDOF 5
ENDMDL
MODEL 8
REMARK VINA RESULT:      -9.6      2.847      6.864
REMARK  Name = 3266379
REMARK  5 active torsions:
REMARK  status: ('A' for Active; 'I' for Inactive)
REMARK    1  A    between atoms: C_8  and  O_17
REMARK    2  A    between atoms: C_10  and  C_21
REMARK    3  A    between atoms: C_13  and  O_19
REMARK    4  A    between atoms: C_21  and  C_23
REMARK    5  A    between atoms: C_23  and  O_24
REMARK                            x       y       z     vdW  Elec       q    Type
REMARK                         _______ _______ _______ _____ _____    ______ ____
ROOT
ATOM      1  O   UNL     1      37.499 -22.086 -17.123  0.00  0.00    -0.286 OA
ATOM      2  O   UNL     1      32.377 -23.530 -16.639  0.00  0.00    -0.287 OA
ATOM      3  C   UNL     1      35.874 -23.197 -15.839  0.00  0.00    +0.075 C 
ATOM      4  C   UNL     1      34.535 -23.575 -15.714  0.00  0.00    +0.045 C 
ATOM      5  C   UNL     1      35.340 -22.038 -18.043  0.00  0.00    +0.076 C 
ATOM      6  C   UNL     1      34.002 -22.417 -17.917  0.00  0.00    +0.045 C 
ATOM      7  C   UNL     1      36.325 -22.416 -17.009  0.00  0.00    +0.202 C 
ATOM      8  C   UNL     1      36.797 -23.560 -14.851  0.00  0.00    +0.133 C 
ATOM      9  C   UNL     1      33.550 -23.198 -16.749  0.00  0.00    +0.196 C 
ATOM     10  C   UNL     1      36.379 -24.297 -13.743  0.00  0.00    +0.023 C 
ATOM     11  C   UNL     1      34.120 -24.316 -14.601  0.00  0.00    +0.003 C 
ATOM     12  C   UNL     1      35.044 -24.675 -13.618  0.00  0.00    -0.001 C 
ATOM     13  C   UNL     1      35.756 -21.298 -19.156  0.00  0.00    +0.137 C 
ATOM     14  C   UNL     1      33.078 -22.053 -18.905  0.00  0.00    +0.003 C 
ATOM     15  C   UNL     1      34.832 -20.938 -20.138  0.00  0.00    +0.037 C 
ATOM     16  C   UNL     1      33.496 -21.314 -20.013  0.00  0.00    +0.003 C 
ENDROOT
BRANCH   8  17
ATOM     17  O   UNL     1      38.116 -23.217 -14.926  0.00  0.00    -0.506 OA
ATOM     18  H   UNL     1      38.750 -23.849 -15.201  0.00  0.00    +0.292 HD
ENDBRANCH   8  17
BRANCH  13  19
ATOM     19  O   UNL     1      37.045 -20.897 -19.343  0.00  0.00    -0.505 OA
ATOM     20  H   UNL     1      37.325 -20.598 -20.187  0.00  0.00    +0.292 HD
ENDBRANCH  13  19
BRANCH  10  21
ATOM     21  C   UNL     1      37.346 -24.695 -12.676  0.00  0.00    +0.139 C 
BRANCH  21  23
ATOM     22  O   UNL     1      38.284 -22.668 -11.707  0.00  0.00    -0.250 OA
ATOM     23  C   UNL     1      37.539 -23.634 -11.613  0.00  0.00    +0.318 C 
BRANCH  23  24
ATOM     24  O   UNL     1      36.778 -23.877 -10.513  0.00  0.00    -0.480 OA
ATOM     25  H   UNL     1      37.157 -23.818  -9.659  0.00  0.00    +0.295 HD
ENDBRANCH  23  24
ENDBRANCH  21  23
ENDBRANCH  10  21
TORSDOF 5
ENDMDL
MODEL 9
REMARK VINA RESULT:      -9.4      9.016     11.754
REMARK  Name = 3266379
REMARK  5 active torsions:
REMARK  status: ('A' for Active; 'I' for Inactive)
REMARK    1  A    between atoms: C_8  and  O_17
REMARK    2  A    between atoms: C_10  and  C_21
REMARK    3  A    between atoms: C_13  and  O_19
REMARK    4  A    between atoms: C_21  and  C_23
REMARK    5  A    between atoms: C_23  and  O_24
REMARK                            x       y       z     vdW  Elec       q    Type
REMARK                         _______ _______ _______ _____ _____    ______ ____
ROOT
ATOM      1  O   UNL     1      34.752 -14.927 -21.566  0.00  0.00    -0.286 OA
ATOM      2  O   UNL     1      33.885 -17.685 -26.061  0.00  0.00    -0.287 OA
ATOM      3  C   UNL     1      34.787 -17.019 -22.637  0.00  0.00    +0.075 C 
ATOM      4  C   UNL     1      34.562 -17.739 -23.812  0.00  0.00    +0.045 C 
ATOM      5  C   UNL     1      34.072 -14.876 -23.812  0.00  0.00    +0.076 C 
ATOM      6  C   UNL     1      33.846 -15.597 -24.987  0.00  0.00    +0.045 C 
ATOM      7  C   UNL     1      34.552 -15.561 -22.595  0.00  0.00    +0.202 C 
ATOM      8  C   UNL     1      35.240 -17.680 -21.490  0.00  0.00    +0.133 C 
ATOM      9  C   UNL     1      34.082 -17.053 -25.031  0.00  0.00    +0.196 C 
ATOM     10  C   UNL     1      35.465 -19.056 -21.521  0.00  0.00    +0.023 C 
ATOM     11  C   UNL     1      34.789 -19.119 -23.840  0.00  0.00    +0.003 C 
ATOM     12  C   UNL     1      35.241 -19.775 -22.693  0.00  0.00    -0.001 C 
ATOM     13  C   UNL     1      33.844 -13.495 -23.784  0.00  0.00    +0.137 C 
ATOM     14  C   UNL     1      33.392 -14.935 -26.135  0.00  0.00    +0.003 C 
ATOM     15  C   UNL     1      33.392 -12.839 -24.931  0.00  0.00    +0.037 C 
ATOM     16  C   UNL     1      33.165 -13.558 -26.103  0.00  0.00    +0.003 C 
ENDROOT
BRANCH   8  17
ATOM     17  O   UNL     1      35.477 -17.024 -20.317  0.00  0.00    -0.506 OA
ATOM     18  H   UNL     1      35.081 -17.326 -19.522  0.00  0.00    +0.292 HD
ENDBRANCH   8  17
BRANCH  13  19
ATOM     19  O   UNL     1      34.045 -12.731 -22.674  0.00  0.00    -0.505 OA
ATOM     20  H   UNL     1      34.910 -12.619 -22.332  0.00  0.00    +0.292 HD
ENDBRANCH  13  19
BRANCH  10  21
ATOM     21  C   UNL     1      35.949 -19.784 -20.309  0.00  0.00    +0.139 C 
BRANCH  21  23
ATOM     22  O   UNL     1      35.453 -22.090 -19.705  0.00  0.00    -0.250 OA
ATOM     23  C   UNL     1      35.065 -20.950 -19.915  0.00  0.00    +0.318 C 
BRANCH  23  24
ATOM     24  O   UNL     1      33.759 -20.583 -19.821  0.00  0.00    -0.480 OA
ATOM     25  H   UNL     1      33.488 -19.736 -20.116  0.00  0.00    +0.295 HD
ENDBRANCH  23  24
ENDBRANCH  21  23
ENDBRANCH  10  21
TORSDOF 5
ENDMDL
