MODEL 1
REMARK VINA RESULT:      -8.1      0.000      0.000
REMARK  Name = 4357
REMARK  2 active torsions:
REMARK  status: ('A' for Active; 'I' for Inactive)
REMARK    1  A    between atoms: N_2  and  C_14
REMARK    2  A    between atoms: N_3  and  C_8
REMARK                            x       y       z     vdW  Elec       q    Type
REMARK                         _______ _______ _______ _____ _____    ______ ____
ROOT
ATOM      1  O   UNL     1      31.667 -12.217 -22.138  0.00  0.00    -0.252 OA
ATOM      2  N   UNL     1      32.475 -10.298 -23.144  0.00  0.00    -0.290 N 
ATOM      3  N   UNL     1      33.481 -12.303 -23.625  0.00  0.00    -0.268 N 
ATOM      4  C   UNL     1      32.467 -11.675 -22.896  0.00  0.00    +0.304 C 
ATOM      5  H   UNL     1      33.148  -9.936 -23.764  0.00  0.00    +0.151 HD
ATOM      6  H   UNL     1      34.037 -11.717 -24.188  0.00  0.00    +0.156 HD
ENDROOT
BRANCH   3   8
ATOM      7  I   UNL     1      34.917 -18.398 -23.746  0.00  0.00    -0.043 I 
ATOM      8  C   UNL     1      33.805 -13.680 -23.652  0.00  0.00    +0.052 C 
ATOM      9  C   UNL     1      33.497 -14.427 -24.778  0.00  0.00    +0.015 C 
ATOM     10  C   UNL     1      34.423 -14.253 -22.552  0.00  0.00    +0.015 C 
ATOM     11  C   UNL     1      33.818 -15.785 -24.805  0.00  0.00    +0.007 C 
ATOM     12  C   UNL     1      34.743 -15.611 -22.579  0.00  0.00    +0.007 C 
ATOM     13  C   UNL     1      34.441 -16.376 -23.706  0.00  0.00    +0.030 C 
ENDBRANCH   3   8
BRANCH   2  14
ATOM     14  C   UNL     1      31.540  -9.381 -22.530  0.00  0.00    +0.073 C 
ATOM     15  C   UNL     1      32.128  -8.767 -21.255  0.00  0.00    +0.020 C 
ATOM     16  C   UNL     1      31.104  -8.295 -23.519  0.00  0.00    +0.020 C 
ATOM     17  C   UNL     1      33.238  -7.759 -21.550  0.00  0.00    +0.002 C 
ATOM     18  C   UNL     1      32.216  -7.288 -23.810  0.00  0.00    +0.002 C 
ATOM     19  C   UNL     1      32.777  -6.682 -22.528  0.00  0.00    +0.000 C 
ENDBRANCH   2  14
TORSDOF 2
ENDMDL
MODEL 2
REMARK VINA RESULT:      -8.1      1.404      1.911
REMARK  Name = 4357
REMARK  2 active torsions:
REMARK  status: ('A' for Active; 'I' for Inactive)
REMARK    1  A    between atoms: N_2  and  C_14
REMARK    2  A    between atoms: N_3  and  C_8
REMARK                            x       y       z     vdW  Elec       q    Type
REMARK                         _______ _______ _______ _____ _____    ______ ____
ROOT
ATOM      1  O   UNL     1      34.429 -10.807 -24.751  0.00  0.00    -0.252 OA
ATOM      2  N   UNL     1      32.908  -9.797 -23.332  0.00  0.00    -0.290 N 
ATOM      3  N   UNL     1      33.043 -12.087 -23.355  0.00  0.00    -0.268 N 
ATOM      4  C   UNL     1      33.550 -10.904 -23.898  0.00  0.00    +0.304 C 
ATOM      5  H   UNL     1      32.212  -9.954 -22.654  0.00  0.00    +0.151 HD
ATOM      6  H   UNL     1      32.336 -11.985 -22.678  0.00  0.00    +0.156 HD
ENDROOT
BRANCH   3   8
ATOM      7  I   UNL     1      34.731 -17.966 -24.703  0.00  0.00    -0.043 I 
ATOM      8  C   UNL     1      33.424 -13.415 -23.659  0.00  0.00    +0.052 C 
ATOM      9  C   UNL     1      33.060 -13.963 -24.878  0.00  0.00    +0.015 C 
ATOM     10  C   UNL     1      34.154 -14.141 -22.731  0.00  0.00    +0.015 C 
ATOM     11  C   UNL     1      33.437 -15.272 -25.179  0.00  0.00    +0.007 C 
ATOM     12  C   UNL     1      34.530 -15.451 -23.032  0.00  0.00    +0.007 C 
ATOM     13  C   UNL     1      34.172 -16.016 -24.256  0.00  0.00    +0.030 C 
ENDBRANCH   3   8
BRANCH   2  14
ATOM     14  C   UNL     1      33.220  -8.432 -23.697  0.00  0.00    +0.073 C 
ATOM     15  C   UNL     1      31.958  -7.676 -24.127  0.00  0.00    +0.020 C 
ATOM     16  C   UNL     1      33.940  -7.708 -22.555  0.00  0.00    +0.020 C 
ATOM     17  C   UNL     1      31.033  -7.367 -22.950  0.00  0.00    +0.002 C 
ATOM     18  C   UNL     1      33.012  -7.398 -21.381  0.00  0.00    +0.002 C 
ATOM     19  C   UNL     1      31.770  -6.635 -21.831  0.00  0.00    +0.000 C 
ENDBRANCH   2  14
TORSDOF 2
ENDMDL
MODEL 3
REMARK VINA RESULT:      -7.9      3.535      7.776
REMARK  Name = 4357
REMARK  2 active torsions:
REMARK  status: ('A' for Active; 'I' for Inactive)
REMARK    1  A    between atoms: N_2  and  C_14
REMARK    2  A    between atoms: N_3  and  C_8
REMARK                            x       y       z     vdW  Elec       q    Type
REMARK                         _______ _______ _______ _____ _____    ______ ____
ROOT
ATOM      1  O   UNL     1      35.156 -14.382 -21.665  0.00  0.00    -0.252 OA
ATOM      2  N   UNL     1      34.692 -16.159 -23.068  0.00  0.00    -0.290 N 
ATOM      3  N   UNL     1      33.612 -14.165 -23.418  0.00  0.00    -0.268 N 
ATOM      4  C   UNL     1      34.542 -14.841 -22.623  0.00  0.00    +0.304 C 
ATOM      5  H   UNL     1      34.163 -16.455 -23.844  0.00  0.00    +0.151 HD
ATOM      6  H   UNL     1      33.208 -14.685 -24.150  0.00  0.00    +0.156 HD
ENDROOT
BRANCH   3   8
ATOM      7  I   UNL     1      31.703  -8.224 -22.887  0.00  0.00    -0.043 I 
ATOM      8  C   UNL     1      33.180 -12.823 -23.298  0.00  0.00    +0.052 C 
ATOM      9  C   UNL     1      32.175 -12.512 -22.397  0.00  0.00    +0.015 C 
ATOM     10  C   UNL     1      33.772 -11.848 -24.085  0.00  0.00    +0.015 C 
ATOM     11  C   UNL     1      31.750 -11.188 -22.278  0.00  0.00    +0.007 C 
ATOM     12  C   UNL     1      33.347 -10.524 -23.966  0.00  0.00    +0.007 C 
ATOM     13  C   UNL     1      32.337 -10.195 -23.063  0.00  0.00    +0.030 C 
ENDBRANCH   3   8
BRANCH   2  14
ATOM     14  C   UNL     1      35.588 -17.106 -22.442  0.00  0.00    +0.073 C 
ATOM     15  C   UNL     1      35.107 -17.470 -21.033  0.00  0.00    +0.020 C 
ATOM     16  C   UNL     1      35.761 -18.357 -23.310  0.00  0.00    +0.020 C 
ATOM     17  C   UNL     1      33.858 -18.351 -21.052  0.00  0.00    +0.002 C 
ATOM     18  C   UNL     1      34.512 -19.237 -23.325  0.00  0.00    +0.002 C 
ATOM     19  C   UNL     1      34.059 -19.595 -21.913  0.00  0.00    +0.000 C 
ENDBRANCH   2  14
TORSDOF 2
ENDMDL
MODEL 4
REMARK VINA RESULT:      -7.9     14.376     15.460
REMARK  Name = 4357
REMARK  2 active torsions:
REMARK  status: ('A' for Active; 'I' for Inactive)
REMARK    1  A    between atoms: N_2  and  C_14
REMARK    2  A    between atoms: N_3  and  C_8
REMARK                            x       y       z     vdW  Elec       q    Type
REMARK                         _______ _______ _______ _____ _____    ______ ____
ROOT
ATOM      1  O   UNL     1      33.362 -24.159 -13.198  0.00  0.00    -0.252 OA
ATOM      2  N   UNL     1      32.057 -23.504 -14.990  0.00  0.00    -0.290 N 
ATOM      3  N   UNL     1      34.267 -23.999 -15.357  0.00  0.00    -0.268 N 
ATOM      4  C   UNL     1      33.255 -23.916 -14.396  0.00  0.00    +0.304 C 
ATOM      5  H   UNL     1      32.050 -23.326 -15.958  0.00  0.00    +0.151 HD
ATOM      6  H   UNL     1      34.010 -23.767 -16.278  0.00  0.00    +0.156 HD
ENDROOT
BRANCH   3   8
ATOM      7  I   UNL     1      40.242 -25.674 -14.511  0.00  0.00    -0.043 I 
ATOM      8  C   UNL     1      35.617 -24.377 -15.165  0.00  0.00    +0.052 C 
ATOM      9  C   UNL     1      35.933 -25.720 -15.035  0.00  0.00    +0.015 C 
ATOM     10  C   UNL     1      36.595 -23.397 -15.112  0.00  0.00    +0.015 C 
ATOM     11  C   UNL     1      37.264 -26.093 -14.847  0.00  0.00    +0.007 C 
ATOM     12  C   UNL     1      37.926 -23.770 -14.924  0.00  0.00    +0.007 C 
ATOM     13  C   UNL     1      38.260 -25.118 -14.792  0.00  0.00    +0.030 C 
ENDBRANCH   3   8
BRANCH   2  14
ATOM     14  C   UNL     1      30.829 -23.325 -14.246  0.00  0.00    +0.073 C 
ATOM     15  C   UNL     1      29.861 -22.403 -14.996  0.00  0.00    +0.020 C 
ATOM     16  C   UNL     1      30.178 -24.675 -13.928  0.00  0.00    +0.020 C 
ATOM     17  C   UNL     1      29.257 -23.072 -16.231  0.00  0.00    +0.002 C 
ATOM     18  C   UNL     1      29.573 -25.339 -15.164  0.00  0.00    +0.002 C 
ATOM     19  C   UNL     1      28.604 -24.408 -15.886  0.00  0.00    +0.000 C 
ENDBRANCH   2  14
TORSDOF 2
ENDMDL
MODEL 5
REMARK VINA RESULT:      -7.8      5.275      7.531
REMARK  Name = 4357
REMARK  2 active torsions:
REMARK  status: ('A' for Active; 'I' for Inactive)
REMARK    1  A    between atoms: N_2  and  C_14
REMARK    2  A    between atoms: N_3  and  C_8
REMARK                            x       y       z     vdW  Elec       q    Type
REMARK                         _______ _______ _______ _____ _____    ______ ____
ROOT
ATOM      1  O   UNL     1      35.355 -17.446 -20.708  0.00  0.00    -0.252 OA
ATOM      2  N   UNL     1      34.599 -17.299 -22.888  0.00  0.00    -0.290 N 
ATOM      3  N   UNL     1      34.160 -19.209 -21.694  0.00  0.00    -0.268 N 
ATOM      4  C   UNL     1      34.761 -17.948 -21.659  0.00  0.00    +0.304 C 
ATOM      5  H   UNL     1      34.112 -17.767 -23.604  0.00  0.00    +0.151 HD
ATOM      6  H   UNL     1      33.724 -19.458 -22.541  0.00  0.00    +0.156 HD
ENDROOT
BRANCH   3   8
ATOM      7  I   UNL     1      33.900 -23.473 -17.115  0.00  0.00    -0.043 I 
ATOM      8  C   UNL     1      34.101 -20.172 -20.660  0.00  0.00    +0.052 C 
ATOM      9  C   UNL     1      32.874 -20.499 -20.106  0.00  0.00    +0.015 C 
ATOM     10  C   UNL     1      35.273 -20.768 -20.221  0.00  0.00    +0.015 C 
ATOM     11  C   UNL     1      32.816 -21.450 -19.087  0.00  0.00    +0.007 C 
ATOM     12  C   UNL     1      35.215 -21.718 -19.200  0.00  0.00    +0.007 C 
ATOM     13  C   UNL     1      33.987 -22.059 -18.634  0.00  0.00    +0.030 C 
ENDBRANCH   3   8
BRANCH   2  14
ATOM     14  C   UNL     1      35.116 -15.975 -23.156  0.00  0.00    +0.073 C 
ATOM     15  C   UNL     1      34.977 -15.620 -24.640  0.00  0.00    +0.020 C 
ATOM     16  C   UNL     1      34.435 -14.929 -22.268  0.00  0.00    +0.020 C 
ATOM     17  C   UNL     1      33.527 -15.359 -25.045  0.00  0.00    +0.002 C 
ATOM     18  C   UNL     1      32.985 -14.669 -22.677  0.00  0.00    +0.002 C 
ATOM     19  C   UNL     1      32.874 -14.305 -24.155  0.00  0.00    +0.000 C 
ENDBRANCH   2  14
TORSDOF 2
ENDMDL
MODEL 6
REMARK VINA RESULT:      -7.8     10.408     14.143
REMARK  Name = 4357
REMARK  2 active torsions:
REMARK  status: ('A' for Active; 'I' for Inactive)
REMARK    1  A    between atoms: N_2  and  C_14
REMARK    2  A    between atoms: N_3  and  C_8
REMARK                            x       y       z     vdW  Elec       q    Type
REMARK                         _______ _______ _______ _____ _____    ______ ____
ROOT
ATOM      1  O   UNL     1      37.566 -21.499 -16.469  0.00  0.00    -0.252 OA
ATOM      2  N   UNL     1      36.606 -23.391 -15.551  0.00  0.00    -0.290 N 
ATOM      3  N   UNL     1      35.726 -22.537 -17.491  0.00  0.00    -0.268 N 
ATOM      4  C   UNL     1      36.713 -22.381 -16.514  0.00  0.00    +0.304 C 
ATOM      5  H   UNL     1      35.894 -24.063 -15.654  0.00  0.00    +0.151 HD
ATOM      6  H   UNL     1      35.118 -23.302 -17.374  0.00  0.00    +0.156 HD
ENDROOT
BRANCH   3   8
ATOM      7  I   UNL     1      34.706 -18.959 -22.528  0.00  0.00    -0.043 I 
ATOM      8  C   UNL     1      35.496 -21.729 -18.629  0.00  0.00    +0.052 C 
ATOM      9  C   UNL     1      34.204 -21.584 -19.107  0.00  0.00    +0.015 C 
ATOM     10  C   UNL     1      36.568 -21.101 -19.243  0.00  0.00    +0.015 C 
ATOM     11  C   UNL     1      33.976 -20.785 -20.229  0.00  0.00    +0.007 C 
ATOM     12  C   UNL     1      36.340 -20.303 -20.365  0.00  0.00    +0.007 C 
ATOM     13  C   UNL     1      35.045 -20.146 -20.857  0.00  0.00    +0.030 C 
ENDBRANCH   3   8
BRANCH   2  14
ATOM     14  C   UNL     1      37.491 -23.492 -14.412  0.00  0.00    +0.073 C 
ATOM     15  C   UNL     1      36.697 -23.597 -13.105  0.00  0.00    +0.020 C 
ATOM     16  C   UNL     1      38.459 -24.669 -14.570  0.00  0.00    +0.020 C 
ATOM     17  C   UNL     1      36.007 -24.952 -12.949  0.00  0.00    +0.002 C 
ATOM     18  C   UNL     1      37.766 -26.022 -14.411  0.00  0.00    +0.002 C 
ATOM     19  C   UNL     1      36.993 -26.107 -13.099  0.00  0.00    +0.000 C 
ENDBRANCH   2  14
TORSDOF 2
ENDMDL
MODEL 7
REMARK VINA RESULT:      -7.7      2.065      2.557
REMARK  Name = 4357
REMARK  2 active torsions:
REMARK  status: ('A' for Active; 'I' for Inactive)
REMARK    1  A    between atoms: N_2  and  C_14
REMARK    2  A    between atoms: N_3  and  C_8
REMARK                            x       y       z     vdW  Elec       q    Type
REMARK                         _______ _______ _______ _____ _____    ______ ____
ROOT
ATOM      1  O   UNL     1      32.749 -13.447 -24.106  0.00  0.00    -0.252 OA
ATOM      2  N   UNL     1      34.160 -11.678 -23.635  0.00  0.00    -0.290 N 
ATOM      3  N   UNL     1      34.602 -13.723 -22.694  0.00  0.00    -0.268 N 
ATOM      4  C   UNL     1      33.741 -13.009 -23.530  0.00  0.00    +0.304 C 
ATOM      5  H   UNL     1      34.966 -11.400 -23.142  0.00  0.00    +0.151 HD
ATOM      6  H   UNL     1      35.353 -13.216 -22.310  0.00  0.00    +0.156 HD
ENDROOT
BRANCH   3   8
ATOM      7  I   UNL     1      34.266 -19.768 -21.091  0.00  0.00    -0.043 I 
ATOM      8  C   UNL     1      34.526 -15.089 -22.332  0.00  0.00    +0.052 C 
ATOM      9  C   UNL     1      34.961 -16.053 -23.226  0.00  0.00    +0.015 C 
ATOM     10  C   UNL     1      34.017 -15.433 -21.090  0.00  0.00    +0.015 C 
ATOM     11  C   UNL     1      34.887 -17.399 -22.869  0.00  0.00    +0.007 C 
ATOM     12  C   UNL     1      33.942 -16.780 -20.733  0.00  0.00    +0.007 C 
ATOM     13  C   UNL     1      34.378 -17.763 -21.622  0.00  0.00    +0.030 C 
ENDBRANCH   3   8
BRANCH   2  14
ATOM     14  C   UNL     1      33.466 -10.692 -24.434  0.00  0.00    +0.073 C 
ATOM     15  C   UNL     1      32.383  -9.983 -23.613  0.00  0.00    +0.020 C 
ATOM     16  C   UNL     1      34.448  -9.686 -25.043  0.00  0.00    +0.020 C 
ATOM     17  C   UNL     1      32.968  -9.028 -22.574  0.00  0.00    +0.002 C 
ATOM     18  C   UNL     1      35.030  -8.732 -24.001  0.00  0.00    +0.002 C 
ATOM     19  C   UNL     1      33.934  -8.030 -23.206  0.00  0.00    +0.000 C 
ENDBRANCH   2  14
TORSDOF 2
ENDMDL
MODEL 8
REMARK VINA RESULT:      -7.6      5.715      9.869
REMARK  Name = 4357
REMARK  2 active torsions:
REMARK  status: ('A' for Active; 'I' for Inactive)
REMARK    1  A    between atoms: N_2  and  C_14
REMARK    2  A    between atoms: N_3  and  C_8
REMARK                            x       y       z     vdW  Elec       q    Type
REMARK                         _______ _______ _______ _____ _____    ______ ____
ROOT
ATOM      1  O   UNL     1      34.961 -19.341 -22.307  0.00  0.00    -0.252 OA
ATOM      2  N   UNL     1      35.569 -19.775 -20.119  0.00  0.00    -0.290 N 
ATOM      3  N   UNL     1      35.090 -17.613 -20.724  0.00  0.00    -0.268 N 
ATOM      4  C   UNL     1      35.180 -18.935 -21.169  0.00  0.00    +0.304 C 
ATOM      5  H   UNL     1      35.729 -19.375 -19.234  0.00  0.00    +0.151 HD
ATOM      6  H   UNL     1      35.302 -17.460 -19.775  0.00  0.00    +0.156 HD
ENDROOT
BRANCH   3   8
ATOM      7  I   UNL     1      33.494 -12.545 -24.038  0.00  0.00    -0.043 I 
ATOM      8  C   UNL     1      34.730 -16.468 -21.472  0.00  0.00    +0.052 C 
ATOM      9  C   UNL     1      35.063 -16.404 -22.816  0.00  0.00    +0.015 C 
ATOM     10  C   UNL     1      34.052 -15.435 -20.846  0.00  0.00    +0.015 C 
ATOM     11  C   UNL     1      34.706 -15.275 -23.554  0.00  0.00    +0.007 C 
ATOM     12  C   UNL     1      33.696 -14.306 -21.584  0.00  0.00    +0.007 C 
ATOM     13  C   UNL     1      34.023 -14.226 -22.938  0.00  0.00    +0.030 C 
ENDBRANCH   3   8
BRANCH   2  14
ATOM     14  C   UNL     1      35.748 -21.201 -20.274  0.00  0.00    +0.073 C 
ATOM     15  C   UNL     1      36.812 -21.731 -19.307  0.00  0.00    +0.020 C 
ATOM     16  C   UNL     1      34.420 -21.945 -20.101  0.00  0.00    +0.020 C 
ATOM     17  C   UNL     1      36.329 -21.742 -17.857  0.00  0.00    +0.002 C 
ATOM     18  C   UNL     1      33.941 -21.956 -18.649  0.00  0.00    +0.002 C 
ATOM     19  C   UNL     1      35.011 -22.498 -17.708  0.00  0.00    +0.000 C 
ENDBRANCH   2  14
TORSDOF 2
ENDMDL
MODEL 9
REMARK VINA RESULT:      -7.6      5.688      9.890
REMARK  Name = 4357
REMARK  2 active torsions:
REMARK  status: ('A' for Active; 'I' for Inactive)
REMARK    1  A    between atoms: N_2  and  C_14
REMARK    2  A    between atoms: N_3  and  C_8
REMARK                            x       y       z     vdW  Elec       q    Type
REMARK                         _______ _______ _______ _____ _____    ______ ____
ROOT
ATOM      1  O   UNL     1      34.880 -19.289 -22.313  0.00  0.00    -0.252 OA
ATOM      2  N   UNL     1      35.568 -19.741 -20.153  0.00  0.00    -0.290 N 
ATOM      3  N   UNL     1      35.098 -17.570 -20.730  0.00  0.00    -0.268 N 
ATOM      4  C   UNL     1      35.151 -18.891 -21.183  0.00  0.00    +0.304 C 
ATOM      5  H   UNL     1      35.768 -19.348 -19.273  0.00  0.00    +0.151 HD
ATOM      6  H   UNL     1      35.350 -17.425 -19.789  0.00  0.00    +0.156 HD
ENDROOT
BRANCH   3   8
ATOM      7  I   UNL     1      33.452 -12.461 -23.956  0.00  0.00    -0.043 I 
ATOM      8  C   UNL     1      34.726 -16.416 -21.458  0.00  0.00    +0.052 C 
ATOM      9  C   UNL     1      34.048 -15.396 -20.812  0.00  0.00    +0.015 C 
ATOM     10  C   UNL     1      35.048 -16.331 -22.804  0.00  0.00    +0.015 C 
ATOM     11  C   UNL     1      33.682 -14.257 -21.531  0.00  0.00    +0.007 C 
ATOM     12  C   UNL     1      34.681 -15.193 -23.522  0.00  0.00    +0.007 C 
ATOM     13  C   UNL     1      33.999 -14.156 -22.886  0.00  0.00    +0.030 C 
ENDBRANCH   3   8
BRANCH   2  14
ATOM     14  C   UNL     1      35.719 -21.170 -20.321  0.00  0.00    +0.073 C 
ATOM     15  C   UNL     1      36.821 -21.718 -19.407  0.00  0.00    +0.020 C 
ATOM     16  C   UNL     1      34.390 -21.895 -20.085  0.00  0.00    +0.020 C 
ATOM     17  C   UNL     1      36.409 -21.728 -17.936  0.00  0.00    +0.002 C 
ATOM     18  C   UNL     1      33.982 -21.905 -18.612  0.00  0.00    +0.002 C 
ATOM     19  C   UNL     1      35.089 -22.466 -17.725  0.00  0.00    +0.000 C 
ENDBRANCH   2  14
TORSDOF 2
ENDMDL
