MODEL 1
REMARK VINA RESULT:      -6.9      0.000      0.000
REMARK  Name = 17754158
REMARK  11 active torsions:
REMARK  status: ('A' for Active; 'I' for Inactive)
REMARK    1  A    between atoms: P_1  and  O_3
REMARK    2  A    between atoms: P_1  and  O_5
REMARK    3  A    between atoms: P_1  and  O_14
REMARK    4  A    between atoms: O_5  and  C_6
REMARK    5  A    between atoms: C_6  and  C_7
REMARK    6  A    between atoms: C_7  and  C_8
REMARK    7  A    between atoms: C_8  and  C_11
REMARK    8  A    between atoms: C_8  and  O_12
REMARK    9  A    between atoms: O_14  and  P_15
REMARK   10  A    between atoms: P_15  and  O_17
REMARK   11  A    between atoms: P_15  and  O_19
REMARK                            x       y       z     vdW  Elec       q    Type
REMARK                         _______ _______ _______ _____ _____    ______ ____
ROOT
ATOM      1  P   UNL     1      37.517 -25.083 -12.582  0.00  0.00    +0.484 P 
ATOM      2  O   UNL     1      37.473 -24.509 -11.195  0.00  0.00    -0.227 OA
ENDROOT
BRANCH   1   3
ATOM      3  O   UNL     1      36.896 -26.571 -12.707  0.00  0.00    -0.302 OA
ATOM      4  H   UNL     1      36.449 -26.806 -11.878  0.00  0.00    +0.222 HD
ENDBRANCH   1   3
BRANCH   1   5
ATOM      5  O   UNL     1      36.724 -24.218 -13.692  0.00  0.00    -0.273 OA
BRANCH   5   6
ATOM      6  C   UNL     1      35.440 -24.643 -14.136  0.00  0.00    +0.156 C 
BRANCH   6   7
ATOM      7  C   UNL     1      34.382 -24.205 -13.128  0.00  0.00    +0.060 C 
BRANCH   7   8
ATOM      8  C   UNL     1      32.989 -23.902 -13.717  0.00  0.00    +0.101 C 
ATOM      9  C   UNL     1      33.112 -23.319 -15.133  0.00  0.00    +0.030 C 
BRANCH   8  11
ATOM     10 BR   UNL     1      30.286 -24.634 -14.521  0.00  0.00    -0.078 Br
ATOM     11  C   UNL     1      32.024 -25.092 -13.761  0.00  0.00    +0.094 C 
ENDBRANCH   8  11
BRANCH   8  12
ATOM     12  O   UNL     1      32.380 -22.884 -12.909  0.00  0.00    -0.386 OA
ATOM     13  H   UNL     1      32.110 -22.143 -13.472  0.00  0.00    +0.210 HD
ENDBRANCH   8  12
ENDBRANCH   7   8
ENDBRANCH   6   7
ENDBRANCH   5   6
ENDBRANCH   1   5
BRANCH   1  14
ATOM     14  O   UNL     1      39.008 -25.251 -13.184  0.00  0.00    -0.186 OA
BRANCH  14  15
ATOM     15  P   UNL     1      39.520 -25.482 -14.699  0.00  0.00    +0.481 P 
ATOM     16  O   UNL     1      40.916 -26.017 -14.812  0.00  0.00    -0.227 OA
BRANCH  15  17
ATOM     17  O   UNL     1      39.275 -24.042 -15.391  0.00  0.00    -0.302 OA
ATOM     18  H   UNL     1      39.967 -23.424 -15.107  0.00  0.00    +0.222 HD
ENDBRANCH  15  17
BRANCH  15  19
ATOM     19  O   UNL     1      38.367 -26.413 -15.344  0.00  0.00    -0.302 OA
ATOM     20  H   UNL     1      37.605 -26.447 -14.745  0.00  0.00    +0.222 HD
ENDBRANCH  15  19
ENDBRANCH  14  15
ENDBRANCH   1  14
TORSDOF 11
ENDMDL
MODEL 2
REMARK VINA RESULT:      -6.9      2.100      2.271
REMARK  Name = 17754158
REMARK  11 active torsions:
REMARK  status: ('A' for Active; 'I' for Inactive)
REMARK    1  A    between atoms: P_1  and  O_3
REMARK    2  A    between atoms: P_1  and  O_5
REMARK    3  A    between atoms: P_1  and  O_14
REMARK    4  A    between atoms: O_5  and  C_6
REMARK    5  A    between atoms: C_6  and  C_7
REMARK    6  A    between atoms: C_7  and  C_8
REMARK    7  A    between atoms: C_8  and  C_11
REMARK    8  A    between atoms: C_8  and  O_12
REMARK    9  A    between atoms: O_14  and  P_15
REMARK   10  A    between atoms: P_15  and  O_17
REMARK   11  A    between atoms: P_15  and  O_19
REMARK                            x       y       z     vdW  Elec       q    Type
REMARK                         _______ _______ _______ _____ _____    ______ ____
ROOT
ATOM      1  P   UNL     1      37.917 -24.432 -12.368  0.00  0.00    +0.484 P 
ATOM      2  O   UNL     1      38.000 -23.428 -11.255  0.00  0.00    -0.227 OA
ENDROOT
BRANCH   1   3
ATOM      3  O   UNL     1      37.401 -25.895 -11.908  0.00  0.00    -0.302 OA
ATOM      4  H   UNL     1      36.876 -25.812 -11.097  0.00  0.00    +0.222 HD
ENDBRANCH   1   3
BRANCH   1   5
ATOM      5  O   UNL     1      36.930 -24.015 -13.577  0.00  0.00    -0.273 OA
BRANCH   5   6
ATOM      6  C   UNL     1      35.762 -24.788 -13.835  0.00  0.00    +0.156 C 
BRANCH   6   7
ATOM      7  C   UNL     1      35.394 -24.676 -15.310  0.00  0.00    +0.060 C 
BRANCH   7   8
ATOM      8  C   UNL     1      34.897 -23.289 -15.768  0.00  0.00    +0.101 C 
ATOM      9  C   UNL     1      35.957 -22.591 -16.633  0.00  0.00    +0.030 C 
BRANCH   8  11
ATOM     10 BR   UNL     1      33.754 -22.713 -18.386  0.00  0.00    -0.078 Br
ATOM     11  C   UNL     1      33.567 -23.291 -16.531  0.00  0.00    +0.094 C 
ENDBRANCH   8  11
BRANCH   8  12
ATOM     12  O   UNL     1      34.722 -22.475 -14.600  0.00  0.00    -0.386 OA
ATOM     13  H   UNL     1      34.009 -21.836 -14.755  0.00  0.00    +0.210 HD
ENDBRANCH   8  12
ENDBRANCH   7   8
ENDBRANCH   6   7
ENDBRANCH   5   6
ENDBRANCH   1   5
BRANCH   1  14
ATOM     14  O   UNL     1      39.331 -24.746 -13.085  0.00  0.00    -0.186 OA
BRANCH  14  15
ATOM     15  P   UNL     1      39.669 -25.417 -14.516  0.00  0.00    +0.481 P 
ATOM     16  O   UNL     1      41.102 -25.821 -14.695  0.00  0.00    -0.227 OA
BRANCH  15  17
ATOM     17  O   UNL     1      39.124 -24.320 -15.572  0.00  0.00    -0.302 OA
ATOM     18  H   UNL     1      38.568 -23.674 -15.109  0.00  0.00    +0.222 HD
ENDBRANCH  15  17
BRANCH  15  19
ATOM     19  O   UNL     1      38.592 -26.617 -14.629  0.00  0.00    -0.302 OA
ATOM     20  H   UNL     1      38.892 -27.261 -15.288  0.00  0.00    +0.222 HD
ENDBRANCH  15  19
ENDBRANCH  14  15
ENDBRANCH   1  14
TORSDOF 11
ENDMDL
MODEL 3
REMARK VINA RESULT:      -6.8      1.986      3.395
REMARK  Name = 17754158
REMARK  11 active torsions:
REMARK  status: ('A' for Active; 'I' for Inactive)
REMARK    1  A    between atoms: P_1  and  O_3
REMARK    2  A    between atoms: P_1  and  O_5
REMARK    3  A    between atoms: P_1  and  O_14
REMARK    4  A    between atoms: O_5  and  C_6
REMARK    5  A    between atoms: C_6  and  C_7
REMARK    6  A    between atoms: C_7  and  C_8
REMARK    7  A    between atoms: C_8  and  C_11
REMARK    8  A    between atoms: C_8  and  O_12
REMARK    9  A    between atoms: O_14  and  P_15
REMARK   10  A    between atoms: P_15  and  O_17
REMARK   11  A    between atoms: P_15  and  O_19
REMARK                            x       y       z     vdW  Elec       q    Type
REMARK                         _______ _______ _______ _____ _____    ______ ____
ROOT
ATOM      1  P   UNL     1      36.222 -25.440 -14.953  0.00  0.00    +0.484 P 
ATOM      2  O   UNL     1      36.350 -26.761 -15.653  0.00  0.00    -0.227 OA
ENDROOT
BRANCH   1   3
ATOM      3  O   UNL     1      37.078 -24.243 -15.625  0.00  0.00    -0.302 OA
ATOM      4  H   UNL     1      37.996 -24.533 -15.749  0.00  0.00    +0.222 HD
ENDBRANCH   1   3
BRANCH   1   5
ATOM      5  O   UNL     1      34.714 -24.865 -14.876  0.00  0.00    -0.273 OA
BRANCH   5   6
ATOM      6  C   UNL     1      34.382 -23.655 -15.550  0.00  0.00    +0.156 C 
BRANCH   6   7
ATOM      7  C   UNL     1      32.867 -23.535 -15.662  0.00  0.00    +0.060 C 
BRANCH   7   8
ATOM      8  C   UNL     1      32.092 -23.631 -14.331  0.00  0.00    +0.101 C 
ATOM      9  C   UNL     1      30.971 -22.583 -14.278  0.00  0.00    +0.030 C 
BRANCH   8  11
ATOM     10 BR   UNL     1      29.756 -25.284 -14.875  0.00  0.00    -0.078 Br
ATOM     11  C   UNL     1      31.490 -25.007 -14.024  0.00  0.00    +0.094 C 
ENDBRANCH   8  11
BRANCH   8  12
ATOM     12  O   UNL     1      33.000 -23.311 -13.267  0.00  0.00    -0.386 OA
ATOM     13  H   UNL     1      32.572 -22.698 -12.650  0.00  0.00    +0.210 HD
ENDBRANCH   8  12
ENDBRANCH   7   8
ENDBRANCH   6   7
ENDBRANCH   5   6
ENDBRANCH   1   5
BRANCH   1  14
ATOM     14  O   UNL     1      36.735 -25.448 -13.420  0.00  0.00    -0.186 OA
BRANCH  14  15
ATOM     15  P   UNL     1      36.328 -24.521 -12.160  0.00  0.00    +0.481 P 
ATOM     16  O   UNL     1      37.314 -24.533 -11.031  0.00  0.00    -0.227 OA
BRANCH  15  17
ATOM     17  O   UNL     1      34.844 -25.042 -11.787  0.00  0.00    -0.302 OA
ATOM     18  H   UNL     1      34.718 -24.995 -10.826  0.00  0.00    +0.222 HD
ENDBRANCH  15  17
BRANCH  15  19
ATOM     19  O   UNL     1      36.062 -23.075 -12.832  0.00  0.00    -0.302 OA
ATOM     20  H   UNL     1      35.324 -22.638 -12.380  0.00  0.00    +0.222 HD
ENDBRANCH  15  19
ENDBRANCH  14  15
ENDBRANCH   1  14
TORSDOF 11
ENDMDL
MODEL 4
REMARK VINA RESULT:      -6.8      1.460      2.226
REMARK  Name = 17754158
REMARK  11 active torsions:
REMARK  status: ('A' for Active; 'I' for Inactive)
REMARK    1  A    between atoms: P_1  and  O_3
REMARK    2  A    between atoms: P_1  and  O_5
REMARK    3  A    between atoms: P_1  and  O_14
REMARK    4  A    between atoms: O_5  and  C_6
REMARK    5  A    between atoms: C_6  and  C_7
REMARK    6  A    between atoms: C_7  and  C_8
REMARK    7  A    between atoms: C_8  and  C_11
REMARK    8  A    between atoms: C_8  and  O_12
REMARK    9  A    between atoms: O_14  and  P_15
REMARK   10  A    between atoms: P_15  and  O_17
REMARK   11  A    between atoms: P_15  and  O_19
REMARK                            x       y       z     vdW  Elec       q    Type
REMARK                         _______ _______ _______ _____ _____    ______ ____
ROOT
ATOM      1  P   UNL     1      37.402 -26.110 -14.962  0.00  0.00    +0.484 P 
ATOM      2  O   UNL     1      36.807 -27.118 -15.901  0.00  0.00    -0.227 OA
ENDROOT
BRANCH   1   3
ATOM      3  O   UNL     1      37.695 -24.666 -15.631  0.00  0.00    -0.302 OA
ATOM      4  H   UNL     1      37.236 -24.607 -16.485  0.00  0.00    +0.222 HD
ENDBRANCH   1   3
BRANCH   1   5
ATOM      5  O   UNL     1      36.493 -25.779 -13.668  0.00  0.00    -0.273 OA
BRANCH   5   6
ATOM      6  C   UNL     1      35.723 -24.582 -13.631  0.00  0.00    +0.156 C 
BRANCH   6   7
ATOM      7  C   UNL     1      34.497 -24.739 -14.525  0.00  0.00    +0.060 C 
BRANCH   7   8
ATOM      8  C   UNL     1      33.192 -24.125 -13.976  0.00  0.00    +0.101 C 
ATOM      9  C   UNL     1      32.645 -23.062 -14.939  0.00  0.00    +0.030 C 
BRANCH   8  11
ATOM     10 BR   UNL     1      30.438 -24.772 -14.671  0.00  0.00    -0.078 Br
ATOM     11  C   UNL     1      32.075 -25.130 -13.671  0.00  0.00    +0.094 C 
ENDBRANCH   8  11
BRANCH   8  12
ATOM     12  O   UNL     1      33.505 -23.445 -12.751  0.00  0.00    -0.386 OA
ATOM     13  H   UNL     1      34.305 -22.912 -12.873  0.00  0.00    +0.210 HD
ENDBRANCH   8  12
ENDBRANCH   7   8
ENDBRANCH   6   7
ENDBRANCH   5   6
ENDBRANCH   1   5
BRANCH   1  14
ATOM     14  O   UNL     1      38.838 -26.536 -14.355  0.00  0.00    -0.186 OA
BRANCH  14  15
ATOM     15  P   UNL     1      40.312 -25.911 -14.578  0.00  0.00    +0.481 P 
ATOM     16  O   UNL     1      40.532 -24.579 -13.926  0.00  0.00    -0.227 OA
BRANCH  15  17
ATOM     17  O   UNL     1      40.476 -25.927 -16.187  0.00  0.00    -0.302 OA
ATOM     18  H   UNL     1      40.207 -25.068 -16.548  0.00  0.00    +0.222 HD
ENDBRANCH  15  17
BRANCH  15  19
ATOM     19  O   UNL     1      41.297 -27.094 -14.086  0.00  0.00    -0.302 OA
ATOM     20  H   UNL     1      41.021 -27.401 -13.208  0.00  0.00    +0.222 HD
ENDBRANCH  15  19
ENDBRANCH  14  15
ENDBRANCH   1  14
TORSDOF 11
ENDMDL
MODEL 5
REMARK VINA RESULT:      -6.6      2.701      3.266
REMARK  Name = 17754158
REMARK  11 active torsions:
REMARK  status: ('A' for Active; 'I' for Inactive)
REMARK    1  A    between atoms: P_1  and  O_3
REMARK    2  A    between atoms: P_1  and  O_5
REMARK    3  A    between atoms: P_1  and  O_14
REMARK    4  A    between atoms: O_5  and  C_6
REMARK    5  A    between atoms: C_6  and  C_7
REMARK    6  A    between atoms: C_7  and  C_8
REMARK    7  A    between atoms: C_8  and  C_11
REMARK    8  A    between atoms: C_8  and  O_12
REMARK    9  A    between atoms: O_14  and  P_15
REMARK   10  A    between atoms: P_15  and  O_17
REMARK   11  A    between atoms: P_15  and  O_19
REMARK                            x       y       z     vdW  Elec       q    Type
REMARK                         _______ _______ _______ _____ _____    ______ ____
ROOT
ATOM      1  P   UNL     1      37.702 -25.013 -12.311  0.00  0.00    +0.484 P 
ATOM      2  O   UNL     1      37.650 -24.060 -11.152  0.00  0.00    -0.227 OA
ENDROOT
BRANCH   1   3
ATOM      3  O   UNL     1      37.904 -26.562 -11.890  0.00  0.00    -0.302 OA
ATOM      4  H   UNL     1      38.464 -27.005 -12.547  0.00  0.00    +0.222 HD
ENDBRANCH   1   3
BRANCH   1   5
ATOM      5  O   UNL     1      36.381 -25.013 -13.240  0.00  0.00    -0.273 OA
BRANCH   5   6
ATOM      6  C   UNL     1      35.569 -23.846 -13.317  0.00  0.00    +0.156 C 
BRANCH   6   7
ATOM      7  C   UNL     1      36.291 -22.777 -14.130  0.00  0.00    +0.060 C 
BRANCH   7   8
ATOM      8  C   UNL     1      36.359 -23.032 -15.651  0.00  0.00    +0.101 C 
ATOM      9  C   UNL     1      34.951 -23.035 -16.264  0.00  0.00    +0.030 C 
BRANCH   8  11
ATOM     10 BR   UNL     1      36.542 -21.682 -18.226  0.00  0.00    -0.078 Br
ATOM     11  C   UNL     1      37.234 -22.051 -16.439  0.00  0.00    +0.094 C 
ENDBRANCH   8  11
BRANCH   8  12
ATOM     12  O   UNL     1      36.896 -24.347 -15.854  0.00  0.00    -0.386 OA
ATOM     13  H   UNL     1      37.167 -24.721 -15.002  0.00  0.00    +0.210 HD
ENDBRANCH   8  12
ENDBRANCH   7   8
ENDBRANCH   6   7
ENDBRANCH   5   6
ENDBRANCH   1   5
BRANCH   1  14
ATOM     14  O   UNL     1      38.923 -24.744 -13.335  0.00  0.00    -0.186 OA
BRANCH  14  15
ATOM     15  P   UNL     1      39.649 -25.721 -14.400  0.00  0.00    +0.481 P 
ATOM     16  O   UNL     1      40.945 -26.307 -13.928  0.00  0.00    -0.227 OA
BRANCH  15  17
ATOM     17  O   UNL     1      39.748 -24.804 -15.728  0.00  0.00    -0.302 OA
ATOM     18  H   UNL     1      40.248 -23.998 -15.527  0.00  0.00    +0.222 HD
ENDBRANCH  15  17
BRANCH  15  19
ATOM     19  O   UNL     1      38.496 -26.793 -14.766  0.00  0.00    -0.302 OA
ATOM     20  H   UNL     1      38.496 -26.955 -15.723  0.00  0.00    +0.222 HD
ENDBRANCH  15  19
ENDBRANCH  14  15
ENDBRANCH   1  14
TORSDOF 11
ENDMDL
MODEL 6
REMARK VINA RESULT:      -6.5      1.263      1.727
REMARK  Name = 17754158
REMARK  11 active torsions:
REMARK  status: ('A' for Active; 'I' for Inactive)
REMARK    1  A    between atoms: P_1  and  O_3
REMARK    2  A    between atoms: P_1  and  O_5
REMARK    3  A    between atoms: P_1  and  O_14
REMARK    4  A    between atoms: O_5  and  C_6
REMARK    5  A    between atoms: C_6  and  C_7
REMARK    6  A    between atoms: C_7  and  C_8
REMARK    7  A    between atoms: C_8  and  C_11
REMARK    8  A    between atoms: C_8  and  O_12
REMARK    9  A    between atoms: O_14  and  P_15
REMARK   10  A    between atoms: P_15  and  O_17
REMARK   11  A    between atoms: P_15  and  O_19
REMARK                            x       y       z     vdW  Elec       q    Type
REMARK                         _______ _______ _______ _____ _____    ______ ____
ROOT
ATOM      1  P   UNL     1      37.205 -23.863 -12.578  0.00  0.00    +0.484 P 
ATOM      2  O   UNL     1      37.589 -22.416 -12.467  0.00  0.00    -0.227 OA
ENDROOT
BRANCH   1   3
ATOM      3  O   UNL     1      37.418 -24.715 -11.219  0.00  0.00    -0.302 OA
ATOM      4  H   UNL     1      37.845 -24.155 -10.551  0.00  0.00    +0.222 HD
ENDBRANCH   1   3
BRANCH   1   5
ATOM      5  O   UNL     1      35.661 -24.119 -12.979  0.00  0.00    -0.273 OA
BRANCH   5   6
ATOM      6  C   UNL     1      35.089 -23.416 -14.077  0.00  0.00    +0.156 C 
BRANCH   6   7
ATOM      7  C   UNL     1      33.926 -24.221 -14.646  0.00  0.00    +0.060 C 
BRANCH   7   8
ATOM      8  C   UNL     1      32.538 -23.892 -14.055  0.00  0.00    +0.101 C 
ATOM      9  C   UNL     1      31.755 -22.963 -14.994  0.00  0.00    +0.030 C 
BRANCH   8  11
ATOM     10 BR   UNL     1      30.061 -25.211 -14.838  0.00  0.00    -0.078 Br
ATOM     11  C   UNL     1      31.663 -25.107 -13.728  0.00  0.00    +0.094 C 
ENDBRANCH   8  11
BRANCH   8  12
ATOM     12  O   UNL     1      32.739 -23.165 -12.835  0.00  0.00    -0.386 OA
ATOM     13  H   UNL     1      32.182 -23.544 -12.137  0.00  0.00    +0.210 HD
ENDBRANCH   8  12
ENDBRANCH   7   8
ENDBRANCH   6   7
ENDBRANCH   5   6
ENDBRANCH   1   5
BRANCH   1  14
ATOM     14  O   UNL     1      38.055 -24.693 -13.674  0.00  0.00    -0.186 OA
BRANCH  14  15
ATOM     15  P   UNL     1      37.824 -26.163 -14.305  0.00  0.00    +0.481 P 
ATOM     16  O   UNL     1      39.083 -26.921 -14.602  0.00  0.00    -0.227 OA
BRANCH  15  17
ATOM     17  O   UNL     1      36.878 -25.868 -15.582  0.00  0.00    -0.302 OA
ATOM     18  H   UNL     1      37.430 -25.681 -16.357  0.00  0.00    +0.222 HD
ENDBRANCH  15  17
BRANCH  15  19
ATOM     19  O   UNL     1      36.824 -26.868 -13.248  0.00  0.00    -0.302 OA
ATOM     20  H   UNL     1      36.472 -26.200 -12.640  0.00  0.00    +0.222 HD
ENDBRANCH  15  19
ENDBRANCH  14  15
ENDBRANCH   1  14
TORSDOF 11
ENDMDL
MODEL 7
REMARK VINA RESULT:      -6.3      2.666      3.824
REMARK  Name = 17754158
REMARK  11 active torsions:
REMARK  status: ('A' for Active; 'I' for Inactive)
REMARK    1  A    between atoms: P_1  and  O_3
REMARK    2  A    between atoms: P_1  and  O_5
REMARK    3  A    between atoms: P_1  and  O_14
REMARK    4  A    between atoms: O_5  and  C_6
REMARK    5  A    between atoms: C_6  and  C_7
REMARK    6  A    between atoms: C_7  and  C_8
REMARK    7  A    between atoms: C_8  and  C_11
REMARK    8  A    between atoms: C_8  and  O_12
REMARK    9  A    between atoms: O_14  and  P_15
REMARK   10  A    between atoms: P_15  and  O_17
REMARK   11  A    between atoms: P_15  and  O_19
REMARK                            x       y       z     vdW  Elec       q    Type
REMARK                         _______ _______ _______ _____ _____    ______ ____
ROOT
ATOM      1  P   UNL     1      34.732 -24.027 -13.993  0.00  0.00    +0.484 P 
ATOM      2  O   UNL     1      35.100 -25.120 -14.954  0.00  0.00    -0.227 OA
ENDROOT
BRANCH   1   3
ATOM      3  O   UNL     1      34.578 -22.567 -14.672  0.00  0.00    -0.302 OA
ATOM      4  H   UNL     1      35.458 -22.206 -14.866  0.00  0.00    +0.222 HD
ENDBRANCH   1   3
BRANCH   1   5
ATOM      5  O   UNL     1      33.336 -24.260 -13.214  0.00  0.00    -0.273 OA
BRANCH   5   6
ATOM      6  C   UNL     1      32.335 -25.092 -13.789  0.00  0.00    +0.156 C 
BRANCH   6   7
ATOM      7  C   UNL     1      31.005 -24.346 -13.813  0.00  0.00    +0.060 C 
BRANCH   7   8
ATOM      8  C   UNL     1      30.927 -23.159 -14.795  0.00  0.00    +0.101 C 
ATOM      9  C   UNL     1      31.561 -23.528 -16.145  0.00  0.00    +0.030 C 
BRANCH   8  11
ATOM     10 BR   UNL     1      28.513 -23.677 -16.340  0.00  0.00    -0.078 Br
ATOM     11  C   UNL     1      29.518 -22.613 -15.049  0.00  0.00    +0.094 C 
ENDBRANCH   8  11
BRANCH   8  12
ATOM     12  O   UNL     1      31.713 -22.087 -14.255  0.00  0.00    -0.386 OA
ATOM     13  H   UNL     1      31.519 -21.268 -14.737  0.00  0.00    +0.210 HD
ENDBRANCH   8  12
ENDBRANCH   7   8
ENDBRANCH   6   7
ENDBRANCH   5   6
ENDBRANCH   1   5
BRANCH   1  14
ATOM     14  O   UNL     1      35.818 -23.779 -12.822  0.00  0.00    -0.186 OA
BRANCH  14  15
ATOM     15  P   UNL     1      36.467 -24.795 -11.745  0.00  0.00    +0.481 P 
ATOM     16  O   UNL     1      37.741 -24.313 -11.120  0.00  0.00    -0.227 OA
BRANCH  15  17
ATOM     17  O   UNL     1      36.584 -26.179 -12.573  0.00  0.00    -0.302 OA
ATOM     18  H   UNL     1      36.456 -26.928 -11.969  0.00  0.00    +0.222 HD
ENDBRANCH  15  17
BRANCH  15  19
ATOM     19  O   UNL     1      35.251 -25.072 -10.716  0.00  0.00    -0.302 OA
ATOM     20  H   UNL     1      35.172 -24.327 -10.100  0.00  0.00    +0.222 HD
ENDBRANCH  15  19
ENDBRANCH  14  15
ENDBRANCH   1  14
TORSDOF 11
ENDMDL
MODEL 8
REMARK VINA RESULT:      -6.2      1.906      2.755
REMARK  Name = 17754158
REMARK  11 active torsions:
REMARK  status: ('A' for Active; 'I' for Inactive)
REMARK    1  A    between atoms: P_1  and  O_3
REMARK    2  A    between atoms: P_1  and  O_5
REMARK    3  A    between atoms: P_1  and  O_14
REMARK    4  A    between atoms: O_5  and  C_6
REMARK    5  A    between atoms: C_6  and  C_7
REMARK    6  A    between atoms: C_7  and  C_8
REMARK    7  A    between atoms: C_8  and  C_11
REMARK    8  A    between atoms: C_8  and  O_12
REMARK    9  A    between atoms: O_14  and  P_15
REMARK   10  A    between atoms: P_15  and  O_17
REMARK   11  A    between atoms: P_15  and  O_19
REMARK                            x       y       z     vdW  Elec       q    Type
REMARK                         _______ _______ _______ _____ _____    ______ ____
ROOT
ATOM      1  P   UNL     1      36.800 -23.447 -15.007  0.00  0.00    +0.484 P 
ATOM      2  O   UNL     1      37.553 -22.270 -15.557  0.00  0.00    -0.227 OA
ENDROOT
BRANCH   1   3
ATOM      3  O   UNL     1      36.251 -23.241 -13.500  0.00  0.00    -0.302 OA
ATOM      4  H   UNL     1      35.438 -23.758 -13.378  0.00  0.00    +0.222 HD
ENDBRANCH   1   3
BRANCH   1   5
ATOM      5  O   UNL     1      35.494 -23.866 -15.860  0.00  0.00    -0.273 OA
BRANCH   5   6
ATOM      6  C   UNL     1      34.329 -23.048 -15.820  0.00  0.00    +0.156 C 
BRANCH   6   7
ATOM      7  C   UNL     1      33.093 -23.929 -15.678  0.00  0.00    +0.060 C 
BRANCH   7   8
ATOM      8  C   UNL     1      32.635 -24.204 -14.231  0.00  0.00    +0.101 C 
ATOM      9  C   UNL     1      32.261 -22.893 -13.522  0.00  0.00    +0.030 C 
BRANCH   8  11
ATOM     10 BR   UNL     1      29.834 -24.553 -14.952  0.00  0.00    -0.078 Br
ATOM     11  C   UNL     1      31.467 -25.186 -14.090  0.00  0.00    +0.094 C 
ENDBRANCH   8  11
BRANCH   8  12
ATOM     12  O   UNL     1      33.749 -24.753 -13.512  0.00  0.00    -0.386 OA
ATOM     13  H   UNL     1      34.429 -24.071 -13.399  0.00  0.00    +0.210 HD
ENDBRANCH   8  12
ENDBRANCH   7   8
ENDBRANCH   6   7
ENDBRANCH   5   6
ENDBRANCH   1   5
BRANCH   1  14
ATOM     14  O   UNL     1      37.673 -24.803 -14.902  0.00  0.00    -0.186 OA
BRANCH  14  15
ATOM     15  P   UNL     1      37.232 -26.328 -14.596  0.00  0.00    +0.481 P 
ATOM     16  O   UNL     1      38.359 -27.316 -14.589  0.00  0.00    -0.227 OA
BRANCH  15  17
ATOM     17  O   UNL     1      36.080 -26.603 -15.697  0.00  0.00    -0.302 OA
ATOM     18  H   UNL     1      36.471 -26.592 -16.584  0.00  0.00    +0.222 HD
ENDBRANCH  15  17
BRANCH  15  19
ATOM     19  O   UNL     1      36.409 -26.206 -13.210  0.00  0.00    -0.302 OA
ATOM     20  H   UNL     1      36.979 -26.468 -12.471  0.00  0.00    +0.222 HD
ENDBRANCH  15  19
ENDBRANCH  14  15
ENDBRANCH   1  14
TORSDOF 11
ENDMDL
MODEL 9
REMARK VINA RESULT:      -6.1     11.484     12.884
REMARK  Name = 17754158
REMARK  11 active torsions:
REMARK  status: ('A' for Active; 'I' for Inactive)
REMARK    1  A    between atoms: P_1  and  O_3
REMARK    2  A    between atoms: P_1  and  O_5
REMARK    3  A    between atoms: P_1  and  O_14
REMARK    4  A    between atoms: O_5  and  C_6
REMARK    5  A    between atoms: C_6  and  C_7
REMARK    6  A    between atoms: C_7  and  C_8
REMARK    7  A    between atoms: C_8  and  C_11
REMARK    8  A    between atoms: C_8  and  O_12
REMARK    9  A    between atoms: O_14  and  P_15
REMARK   10  A    between atoms: P_15  and  O_17
REMARK   11  A    between atoms: P_15  and  O_19
REMARK                            x       y       z     vdW  Elec       q    Type
REMARK                         _______ _______ _______ _____ _____    ______ ____
ROOT
ATOM      1  P   UNL     1      33.403 -14.585 -22.663  0.00  0.00    +0.484 P 
ATOM      2  O   UNL     1      32.112 -14.112 -22.063  0.00  0.00    -0.227 OA
ENDROOT
BRANCH   1   3
ATOM      3  O   UNL     1      34.300 -13.411 -23.323  0.00  0.00    -0.302 OA
ATOM      4  H   UNL     1      33.824 -13.024 -24.075  0.00  0.00    +0.222 HD
ENDBRANCH   1   3
BRANCH   1   5
ATOM      5  O   UNL     1      34.399 -15.319 -21.624  0.00  0.00    -0.273 OA
BRANCH   5   6
ATOM      6  C   UNL     1      34.042 -16.584 -21.076  0.00  0.00    +0.156 C 
BRANCH   6   7
ATOM      7  C   UNL     1      35.299 -17.423 -20.875  0.00  0.00    +0.060 C 
BRANCH   7   8
ATOM      8  C   UNL     1      35.254 -18.842 -21.481  0.00  0.00    +0.101 C 
ATOM      9  C   UNL     1      36.104 -19.814 -20.650  0.00  0.00    +0.030 C 
BRANCH   8  11
ATOM     10 BR   UNL     1      33.335 -20.593 -20.164  0.00  0.00    -0.078 Br
ATOM     11  C   UNL     1      33.852 -19.437 -21.649  0.00  0.00    +0.094 C 
ENDBRANCH   8  11
BRANCH   8  12
ATOM     12  O   UNL     1      35.856 -18.784 -22.783  0.00  0.00    -0.386 OA
ATOM     13  H   UNL     1      36.131 -19.674 -23.052  0.00  0.00    +0.210 HD
ENDBRANCH   8  12
ENDBRANCH   7   8
ENDBRANCH   6   7
ENDBRANCH   5   6
ENDBRANCH   1   5
BRANCH   1  14
ATOM     14  O   UNL     1      33.225 -15.640 -23.874  0.00  0.00    -0.186 OA
BRANCH  14  15
ATOM     15  P   UNL     1      34.301 -16.258 -24.910  0.00  0.00    +0.481 P 
ATOM     16  O   UNL     1      34.237 -15.685 -26.294  0.00  0.00    -0.227 OA
BRANCH  15  17
ATOM     17  O   UNL     1      34.034 -17.849 -24.808  0.00  0.00    -0.302 OA
ATOM     18  H   UNL     1      33.221 -18.009 -24.303  0.00  0.00    +0.222 HD
ENDBRANCH  15  17
BRANCH  15  19
ATOM     19  O   UNL     1      35.711 -16.062 -24.143  0.00  0.00    -0.302 OA
ATOM     20  H   UNL     1      36.438 -16.319 -24.731  0.00  0.00    +0.222 HD
ENDBRANCH  15  19
ENDBRANCH  14  15
ENDBRANCH   1  14
TORSDOF 11
ENDMDL
