MODEL 1
REMARK VINA RESULT:      -9.6      0.000      0.000
REMARK  Name = 49806720
REMARK  4 active torsions:
REMARK  status: ('A' for Active; 'I' for Inactive)
REMARK    1  A    between atoms: C_4  and  N_22
REMARK    2  A    between atoms: C_9  and  C_37
REMARK    3  A    between atoms: C_20  and  C_36
REMARK    4  A    between atoms: C_23  and  N_29
REMARK                            x       y       z     vdW  Elec       q    Type
REMARK                         _______ _______ _______ _____ _____    ______ ____
ROOT
ATOM      1  O   UNL     1      34.305 -14.770 -24.988  0.00  0.00    -0.287 OA
ATOM      2  N   UNL     1      32.748 -12.338 -21.458  0.00  0.00    -0.356 N 
ATOM      3  C   UNL     1      33.238 -14.771 -20.860  0.00  0.00    +0.052 C 
ATOM      4  C   UNL     1      34.376 -18.388 -21.540  0.00  0.00    +0.043 C 
ATOM      5  C   UNL     1      33.762 -16.019 -21.601  0.00  0.00    -0.013 C 
ATOM      6  C   UNL     1      33.170 -13.596 -21.801  0.00  0.00    +0.040 A 
ATOM      7  C   UNL     1      33.905 -17.236 -20.905  0.00  0.00    +0.010 C 
ATOM      8  C   UNL     1      34.112 -16.000 -22.973  0.00  0.00    +0.035 C 
ATOM      9  C   UNL     1      34.716 -18.351 -22.887  0.00  0.00    -0.009 C 
ATOM     10  C   UNL     1      33.512 -13.580 -23.134  0.00  0.00    +0.052 A 
ATOM     11  C   UNL     1      34.191 -14.423 -19.694  0.00  0.00    +0.010 C 
ATOM     12  C   UNL     1      31.822 -15.051 -20.309  0.00  0.00    +0.010 C 
ATOM     13  C   UNL     1      34.585 -17.163 -23.603  0.00  0.00    -0.000 C 
ATOM     14  C   UNL     1      33.998 -14.764 -23.802  0.00  0.00    +0.196 C 
ATOM     15  C   UNL     1      33.289 -12.257 -23.623  0.00  0.00    +0.020 A 
ATOM     16  C   UNL     1      32.811 -11.503 -22.550  0.00  0.00    +0.057 A 
ATOM     17  C   UNL     1      33.446 -11.623 -24.874  0.00  0.00    +0.002 C 
ATOM     18  C   UNL     1      32.483 -10.147 -22.662  0.00  0.00    +0.027 C 
ATOM     19  C   UNL     1      33.122 -10.268 -25.001  0.00  0.00    +0.010 C 
ATOM     20  C   UNL     1      32.647  -9.542 -23.911  0.00  0.00    +0.070 C 
ATOM     21  H   UNL     1      32.445 -12.071 -20.560  0.00  0.00    +0.166 HD
ENDROOT
BRANCH   4  22
ATOM     22  N   UNL     1      34.501 -19.571 -20.802  0.00  0.00    -0.308 N 
ATOM     23  C   UNL     1      34.820 -22.078 -19.402  0.00  0.00    -0.054 C 
ATOM     24  C   UNL     1      35.956 -21.056 -19.478  0.00  0.00    +0.001 C 
ATOM     25  C   UNL     1      33.471 -21.358 -19.453  0.00  0.00    +0.001 C 
ATOM     26  C   UNL     1      33.355 -20.482 -20.702  0.00  0.00    +0.089 C 
ATOM     27  C   UNL     1      35.833 -20.186 -20.730  0.00  0.00    +0.089 C 
BRANCH  23  29
ATOM     28  O   UNL     1      34.706 -23.152 -15.346  0.00  0.00    -0.358 OA
ATOM     29  N   UNL     1      34.927 -22.855 -18.169  0.00  0.00    +0.392 N 
ATOM     30  C   UNL     1      33.619 -22.967 -17.508  0.00  0.00    -0.045 C 
ATOM     31  C   UNL     1      35.902 -22.248 -17.253  0.00  0.00    -0.045 C 
ATOM     32  C   UNL     1      33.757 -23.771 -16.218  0.00  0.00    +0.119 C 
ATOM     33  C   UNL     1      35.987 -23.069 -15.969  0.00  0.00    +0.119 C 
ATOM     34  H   UNL     1      35.249 -23.790 -18.416  0.00  0.00    -0.079 HD
ENDBRANCH  23  29
ENDBRANCH   4  22
BRANCH  20  36
ATOM     35  N   UNL     1      32.059  -7.036 -24.198  0.00  0.00    -0.191 NA
ATOM     36  C   UNL     1      32.323  -8.159 -24.070  0.00  0.00    +0.100 C 
ENDBRANCH  20  36
BRANCH   9  37
ATOM     37  C   UNL     1      35.223 -19.566 -23.591  0.00  0.00    +0.028 C 
ATOM     38  C   UNL     1      34.667 -19.688 -25.006  0.00  0.00    +0.005 C 
ENDBRANCH   9  37
TORSDOF 4
ENDMDL
MODEL 2
REMARK VINA RESULT:      -8.6      2.209      4.302
REMARK  Name = 49806720
REMARK  4 active torsions:
REMARK  status: ('A' for Active; 'I' for Inactive)
REMARK    1  A    between atoms: C_4  and  N_22
REMARK    2  A    between atoms: C_9  and  C_37
REMARK    3  A    between atoms: C_20  and  C_36
REMARK    4  A    between atoms: C_23  and  N_29
REMARK                            x       y       z     vdW  Elec       q    Type
REMARK                         _______ _______ _______ _____ _____    ______ ____
ROOT
ATOM      1  O   UNL     1      33.576 -10.132 -24.994  0.00  0.00    -0.287 OA
ATOM      2  N   UNL     1      31.333  -8.623 -21.321  0.00  0.00    -0.356 N 
ATOM      3  C   UNL     1      31.889 -11.111 -21.202  0.00  0.00    +0.052 C 
ATOM      4  C   UNL     1      33.360 -14.439 -22.466  0.00  0.00    +0.043 C 
ATOM      5  C   UNL     1      32.604 -12.139 -22.104  0.00  0.00    -0.013 C 
ATOM      6  C   UNL     1      31.887  -9.755 -21.858  0.00  0.00    +0.040 A 
ATOM      7  C   UNL     1      32.720 -13.479 -21.680  0.00  0.00    +0.010 C 
ATOM      8  C   UNL     1      33.159 -11.797 -23.360  0.00  0.00    +0.035 C 
ATOM      9  C   UNL     1      33.899 -14.084 -23.697  0.00  0.00    -0.009 C 
ATOM     10  C   UNL     1      32.428  -9.423 -23.080  0.00  0.00    +0.052 A 
ATOM     11  C   UNL     1      32.625 -11.010 -19.847  0.00  0.00    +0.010 C 
ATOM     12  C   UNL     1      30.427 -11.554 -20.968  0.00  0.00    +0.010 C 
ATOM     13  C   UNL     1      33.800 -12.769 -24.144  0.00  0.00    -0.000 C 
ATOM     14  C   UNL     1      33.090 -10.408 -23.903  0.00  0.00    +0.196 C 
ATOM     15  C   UNL     1      32.194  -8.032 -23.294  0.00  0.00    +0.020 A 
ATOM     16  C   UNL     1      31.506  -7.558 -22.175  0.00  0.00    +0.057 A 
ATOM     17  C   UNL     1      32.499  -7.123 -24.330  0.00  0.00    +0.002 C 
ATOM     18  C   UNL     1      31.109  -6.223 -22.038  0.00  0.00    +0.027 C 
ATOM     19  C   UNL     1      32.107  -5.785 -24.208  0.00  0.00    +0.010 C 
ATOM     20  C   UNL     1      31.422  -5.344 -23.078  0.00  0.00    +0.070 C 
ATOM     21  H   UNL     1      30.878  -8.577 -20.449  0.00  0.00    +0.166 HD
ENDROOT
BRANCH   4  22
ATOM     22  N   UNL     1      33.449 -15.755 -21.998  0.00  0.00    -0.308 N 
ATOM     23  C   UNL     1      33.602 -18.520 -21.173  0.00  0.00    -0.054 C 
ATOM     24  C   UNL     1      34.809 -17.799 -21.775  0.00  0.00    +0.001 C 
ATOM     25  C   UNL     1      32.713 -17.515 -20.438  0.00  0.00    +0.001 C 
ATOM     26  C   UNL     1      32.281 -16.375 -21.362  0.00  0.00    +0.089 C 
ATOM     27  C   UNL     1      34.369 -16.662 -22.699  0.00  0.00    +0.089 C 
BRANCH  23  29
ATOM     28  O   UNL     1      34.832 -22.230 -19.642  0.00  0.00    -0.358 OA
ATOM     29  N   UNL     1      34.050 -19.561 -20.250  0.00  0.00    +0.392 N 
ATOM     30  C   UNL     1      35.360 -20.089 -20.654  0.00  0.00    -0.045 C 
ATOM     31  C   UNL     1      33.069 -20.652 -20.177  0.00  0.00    -0.045 C 
ATOM     32  C   UNL     1      35.802 -21.181 -19.684  0.00  0.00    +0.119 C 
ATOM     33  C   UNL     1      33.564 -21.730 -19.217  0.00  0.00    +0.119 C 
ATOM     34  H   UNL     1      34.139 -19.141 -19.324  0.00  0.00    -0.079 HD
ENDBRANCH  23  29
ENDBRANCH   4  22
BRANCH  20  36
ATOM     35  N   UNL     1      30.717  -2.858 -22.897  0.00  0.00    -0.191 NA
ATOM     36  C   UNL     1      31.033  -3.971 -22.978  0.00  0.00    +0.100 C 
ENDBRANCH  20  36
BRANCH   9  37
ATOM     37  C   UNL     1      34.590 -15.090 -24.558  0.00  0.00    +0.028 C 
ATOM     38  C   UNL     1      33.771 -15.452 -25.793  0.00  0.00    +0.005 C 
ENDBRANCH   9  37
TORSDOF 4
ENDMDL
MODEL 3
REMARK VINA RESULT:      -8.6      4.119     13.665
REMARK  Name = 49806720
REMARK  4 active torsions:
REMARK  status: ('A' for Active; 'I' for Inactive)
REMARK    1  A    between atoms: C_4  and  N_22
REMARK    2  A    between atoms: C_9  and  C_37
REMARK    3  A    between atoms: C_20  and  C_36
REMARK    4  A    between atoms: C_23  and  N_29
REMARK                            x       y       z     vdW  Elec       q    Type
REMARK                         _______ _______ _______ _____ _____    ______ ____
ROOT
ATOM      1  O   UNL     1      31.357 -11.152 -20.962  0.00  0.00    -0.287 OA
ATOM      2  N   UNL     1      34.226 -13.357 -23.739  0.00  0.00    -0.356 N 
ATOM      3  C   UNL     1      33.857 -10.922 -24.409  0.00  0.00    +0.052 C 
ATOM      4  C   UNL     1      32.360  -7.387 -24.092  0.00  0.00    +0.043 C 
ATOM      5  C   UNL     1      33.034  -9.730 -23.876  0.00  0.00    -0.013 C 
ATOM      6  C   UNL     1      33.640 -12.134 -23.541  0.00  0.00    +0.040 A 
ATOM      7  C   UNL     1      33.089  -8.489 -24.543  0.00  0.00    +0.010 C 
ATOM      8  C   UNL     1      32.208  -9.824 -22.730  0.00  0.00    +0.035 C 
ATOM      9  C   UNL     1      31.556  -7.498 -22.964  0.00  0.00    -0.009 C 
ATOM     10  C   UNL     1      32.838 -12.224 -22.426  0.00  0.00    +0.052 A 
ATOM     11  C   UNL     1      35.359 -10.560 -24.396  0.00  0.00    +0.010 C 
ATOM     12  C   UNL     1      33.414 -11.255 -25.851  0.00  0.00    +0.010 C 
ATOM     13  C   UNL     1      31.478  -8.711 -22.284  0.00  0.00    -0.000 C 
ATOM     14  C   UNL     1      32.077 -11.091 -21.952  0.00  0.00    +0.196 C 
ATOM     15  C   UNL     1      32.941 -13.556 -21.924  0.00  0.00    +0.020 A 
ATOM     16  C   UNL     1      33.817 -14.242 -22.768  0.00  0.00    +0.057 A 
ATOM     17  C   UNL     1      32.375 -14.251 -20.834  0.00  0.00    +0.002 C 
ATOM     18  C   UNL     1      34.157 -15.586 -22.577  0.00  0.00    +0.027 C 
ATOM     19  C   UNL     1      32.706 -15.596 -20.631  0.00  0.00    +0.010 C 
ATOM     20  C   UNL     1      33.584 -16.252 -21.490  0.00  0.00    +0.070 C 
ATOM     21  H   UNL     1      34.850 -13.571 -24.470  0.00  0.00    +0.166 HD
ENDROOT
BRANCH   4  22
ATOM     22  N   UNL     1      32.452  -6.177 -24.790  0.00  0.00    -0.308 N 
ATOM     23  C   UNL     1      32.765  -3.646 -26.148  0.00  0.00    -0.054 C 
ATOM     24  C   UNL     1      33.516  -4.897 -26.609  0.00  0.00    +0.001 C 
ATOM     25  C   UNL     1      31.437  -4.047 -25.503  0.00  0.00    +0.001 C 
ATOM     26  C   UNL     1      31.654  -5.027 -24.349  0.00  0.00    +0.089 C 
ATOM     27  C   UNL     1      33.729  -5.870 -25.449  0.00  0.00    +0.089 C 
BRANCH  23  29
ATOM     28  O   UNL     1      31.609  -2.245 -29.932  0.00  0.00    -0.358 OA
ATOM     29  N   UNL     1      32.522  -2.761 -27.286  0.00  0.00    +0.392 N 
ATOM     30  C   UNL     1      31.089  -2.705 -27.607  0.00  0.00    -0.045 C 
ATOM     31  C   UNL     1      33.284  -3.202 -28.462  0.00  0.00    -0.045 C 
ATOM     32  C   UNL     1      30.861  -1.786 -28.804  0.00  0.00    +0.119 C 
ATOM     33  C   UNL     1      33.005  -2.270 -29.638  0.00  0.00    +0.119 C 
ATOM     34  H   UNL     1      32.835  -1.825 -27.027  0.00  0.00    -0.079 HD
ENDBRANCH  23  29
ENDBRANCH   4  22
BRANCH  20  36
ATOM     35  N   UNL     1      34.164 -18.741 -21.073  0.00  0.00    -0.191 NA
ATOM     36  C   UNL     1      33.904 -17.626 -21.260  0.00  0.00    +0.100 C 
ENDBRANCH  20  36
BRANCH   9  37
ATOM     37  C   UNL     1      30.765  -6.335 -22.460  0.00  0.00    +0.028 C 
ATOM     38  C   UNL     1      31.204  -5.900 -21.066  0.00  0.00    +0.005 C 
ENDBRANCH   9  37
TORSDOF 4
ENDMDL
MODEL 4
REMARK VINA RESULT:      -8.4      2.778     11.468
REMARK  Name = 49806720
REMARK  4 active torsions:
REMARK  status: ('A' for Active; 'I' for Inactive)
REMARK    1  A    between atoms: C_4  and  N_22
REMARK    2  A    between atoms: C_9  and  C_37
REMARK    3  A    between atoms: C_20  and  C_36
REMARK    4  A    between atoms: C_23  and  N_29
REMARK                            x       y       z     vdW  Elec       q    Type
REMARK                         _______ _______ _______ _____ _____    ______ ____
ROOT
ATOM      1  O   UNL     1      34.844 -16.152 -24.940  0.00  0.00    -0.287 OA
ATOM      2  N   UNL     1      34.072 -16.835 -20.498  0.00  0.00    -0.356 N 
ATOM      3  C   UNL     1      33.606 -14.437 -21.237  0.00  0.00    +0.052 C 
ATOM      4  C   UNL     1      33.382 -11.524 -23.748  0.00  0.00    +0.043 C 
ATOM      5  C   UNL     1      33.680 -13.643 -22.558  0.00  0.00    -0.013 C 
ATOM      6  C   UNL     1      34.026 -15.866 -21.465  0.00  0.00    +0.040 A 
ATOM      7  C   UNL     1      33.328 -12.278 -22.573  0.00  0.00    +0.010 C 
ATOM      8  C   UNL     1      34.093 -14.228 -23.779  0.00  0.00    +0.035 C 
ATOM      9  C   UNL     1      33.789 -12.116 -24.937  0.00  0.00    -0.009 C 
ATOM     10  C   UNL     1      34.427 -16.434 -22.653  0.00  0.00    +0.052 A 
ATOM     11  C   UNL     1      32.156 -14.422 -20.705  0.00  0.00    +0.010 C 
ATOM     12  C   UNL     1      34.552 -13.799 -20.195  0.00  0.00    +0.010 C 
ATOM     13  C   UNL     1      34.144 -13.463 -24.955  0.00  0.00    -0.000 C 
ATOM     14  C   UNL     1      34.489 -15.665 -23.874  0.00  0.00    +0.196 C 
ATOM     15  C   UNL     1      34.728 -17.806 -22.398  0.00  0.00    +0.020 A 
ATOM     16  C   UNL     1      34.496 -18.027 -21.039  0.00  0.00    +0.057 A 
ATOM     17  C   UNL     1      35.176 -18.886 -23.188  0.00  0.00    +0.002 C 
ATOM     18  C   UNL     1      34.687 -19.272 -20.430  0.00  0.00    +0.027 C 
ATOM     19  C   UNL     1      35.372 -20.137 -22.593  0.00  0.00    +0.010 C 
ATOM     20  C   UNL     1      35.131 -20.326 -21.234  0.00  0.00    +0.070 C 
ATOM     21  H   UNL     1      33.835 -16.699 -19.552  0.00  0.00    +0.166 HD
ENDROOT
BRANCH   4  22
ATOM     22  N   UNL     1      33.020 -10.172 -23.708  0.00  0.00    -0.308 N 
ATOM     23  C   UNL     1      32.359  -7.367 -23.500  0.00  0.00    -0.054 C 
ATOM     24  C   UNL     1      33.631  -7.837 -24.210  0.00  0.00    +0.001 C 
ATOM     25  C   UNL     1      31.272  -8.437 -23.623  0.00  0.00    +0.001 C 
ATOM     26  C   UNL     1      31.753  -9.783 -23.078  0.00  0.00    +0.089 C 
ATOM     27  C   UNL     1      34.105  -9.182 -23.658  0.00  0.00    +0.089 C 
BRANCH  23  29
ATOM     28  O   UNL     1      32.170  -3.335 -24.651  0.00  0.00    -0.358 OA
ATOM     29  N   UNL     1      31.894  -6.111 -24.086  0.00  0.00    +0.392 N 
ATOM     30  C   UNL     1      32.844  -5.623 -25.096  0.00  0.00    -0.045 C 
ATOM     31  C   UNL     1      31.698  -5.091 -23.046  0.00  0.00    -0.045 C 
ATOM     32  C   UNL     1      32.344  -4.307 -25.684  0.00  0.00    +0.119 C 
ATOM     33  C   UNL     1      31.224  -3.788 -23.683  0.00  0.00    +0.119 C 
ATOM     34  H   UNL     1      30.999  -6.291 -24.540  0.00  0.00    -0.079 HD
ENDBRANCH  23  29
ENDBRANCH   4  22
BRANCH  20  36
ATOM     35  N   UNL     1      35.510 -22.660 -20.177  0.00  0.00    -0.191 NA
ATOM     36  C   UNL     1      35.341 -21.614 -20.651  0.00  0.00    +0.100 C 
ENDBRANCH  20  36
BRANCH   9  37
ATOM     37  C   UNL     1      33.854 -11.334 -26.208  0.00  0.00    +0.028 C 
ATOM     38  C   UNL     1      35.260 -10.819 -26.497  0.00  0.00    +0.005 C 
ENDBRANCH   9  37
TORSDOF 4
ENDMDL
MODEL 5
REMARK VINA RESULT:      -8.0      4.085     12.240
REMARK  Name = 49806720
REMARK  4 active torsions:
REMARK  status: ('A' for Active; 'I' for Inactive)
REMARK    1  A    between atoms: C_4  and  N_22
REMARK    2  A    between atoms: C_9  and  C_37
REMARK    3  A    between atoms: C_20  and  C_36
REMARK    4  A    between atoms: C_23  and  N_29
REMARK                            x       y       z     vdW  Elec       q    Type
REMARK                         _______ _______ _______ _____ _____    ______ ____
ROOT
ATOM      1  O   UNL     1      32.870 -14.528 -20.899  0.00  0.00    -0.287 OA
ATOM      2  N   UNL     1      34.029 -15.035 -25.280  0.00  0.00    -0.356 N 
ATOM      3  C   UNL     1      33.326 -12.651 -24.701  0.00  0.00    +0.052 C 
ATOM      4  C   UNL     1      32.110  -9.818 -22.390  0.00  0.00    +0.043 C 
ATOM      5  C   UNL     1      32.851 -11.904 -23.436  0.00  0.00    -0.013 C 
ATOM      6  C   UNL     1      33.593 -14.099 -24.380  0.00  0.00    +0.040 A 
ATOM      7  C   UNL     1      32.543 -10.530 -23.511  0.00  0.00    +0.010 C 
ATOM      8  C   UNL     1      32.705 -12.543 -22.182  0.00  0.00    +0.035 C 
ATOM      9  C   UNL     1      31.974 -10.462 -21.167  0.00  0.00    -0.009 C 
ATOM     10  C   UNL     1      33.452 -14.718 -23.159  0.00  0.00    +0.052 A 
ATOM     11  C   UNL     1      34.629 -12.006 -25.224  0.00  0.00    +0.010 C 
ATOM     12  C   UNL     1      32.232 -12.575 -25.790  0.00  0.00    +0.010 C 
ATOM     13  C   UNL     1      32.269 -11.819 -21.060  0.00  0.00    -0.000 C 
ATOM     14  C   UNL     1      33.003 -13.993 -21.993  0.00  0.00    +0.196 C 
ATOM     15  C   UNL     1      33.818 -16.088 -23.323  0.00  0.00    +0.020 A 
ATOM     16  C   UNL     1      34.174 -16.256 -24.663  0.00  0.00    +0.057 A 
ATOM     17  C   UNL     1      33.881 -17.207 -22.465  0.00  0.00    +0.002 C 
ATOM     18  C   UNL     1      34.592 -17.484 -25.188  0.00  0.00    +0.027 C 
ATOM     19  C   UNL     1      34.297 -18.442 -22.977  0.00  0.00    +0.010 C 
ATOM     20  C   UNL     1      34.646 -18.577 -24.318  0.00  0.00    +0.070 C 
ATOM     21  H   UNL     1      34.212 -14.860 -26.232  0.00  0.00    +0.166 HD
ENDROOT
BRANCH   4  22
ATOM     22  N   UNL     1      31.819  -8.455 -22.519  0.00  0.00    -0.308 N 
ATOM     23  C   UNL     1      31.132  -5.652 -22.659  0.00  0.00    -0.054 C 
ATOM     24  C   UNL     1      32.298  -6.146 -21.800  0.00  0.00    +0.001 C 
ATOM     25  C   UNL     1      30.943  -6.581 -23.859  0.00  0.00    +0.001 C 
ATOM     26  C   UNL     1      30.736  -8.030 -23.413  0.00  0.00    +0.089 C 
ATOM     27  C   UNL     1      32.083  -7.594 -21.357  0.00  0.00    +0.089 C 
BRANCH  23  29
ATOM     28  O   UNL     1      30.623  -1.872 -24.412  0.00  0.00    -0.358 OA
ATOM     29  N   UNL     1      31.391  -4.289 -23.117  0.00  0.00    +0.392 N 
ATOM     30  C   UNL     1      30.462  -3.340 -22.487  0.00  0.00    -0.045 C 
ATOM     31  C   UNL     1      31.283  -4.200 -24.580  0.00  0.00    -0.045 C 
ATOM     32  C   UNL     1      30.743  -1.927 -22.989  0.00  0.00    +0.119 C 
ATOM     33  C   UNL     1      31.546  -2.767 -25.033  0.00  0.00    +0.119 C 
ATOM     34  H   UNL     1      32.343  -4.043 -22.845  0.00  0.00    -0.079 HD
ENDBRANCH  23  29
ENDBRANCH   4  22
BRANCH  20  36
ATOM     35  N   UNL     1      35.408 -20.882 -25.218  0.00  0.00    -0.191 NA
ATOM     36  C   UNL     1      35.067 -19.849 -24.815  0.00  0.00    +0.100 C 
ENDBRANCH  20  36
BRANCH   9  37
ATOM     37  C   UNL     1      31.514  -9.725 -19.951  0.00  0.00    +0.028 C 
ATOM     38  C   UNL     1      31.295 -10.654 -18.762  0.00  0.00    +0.005 C 
ENDBRANCH   9  37
TORSDOF 4
ENDMDL
MODEL 6
REMARK VINA RESULT:      -7.6      2.591      5.357
REMARK  Name = 49806720
REMARK  4 active torsions:
REMARK  status: ('A' for Active; 'I' for Inactive)
REMARK    1  A    between atoms: C_4  and  N_22
REMARK    2  A    between atoms: C_9  and  C_37
REMARK    3  A    between atoms: C_20  and  C_36
REMARK    4  A    between atoms: C_23  and  N_29
REMARK                            x       y       z     vdW  Elec       q    Type
REMARK                         _______ _______ _______ _____ _____    ______ ____
ROOT
ATOM      1  O   UNL     1      30.977  -9.576 -21.163  0.00  0.00    -0.287 OA
ATOM      2  N   UNL     1      33.247  -8.278 -24.900  0.00  0.00    -0.356 N 
ATOM      3  C   UNL     1      33.759 -10.679 -24.201  0.00  0.00    +0.052 C 
ATOM      4  C   UNL     1      33.460 -13.831 -22.008  0.00  0.00    +0.043 C 
ATOM      5  C   UNL     1      33.314 -11.631 -23.072  0.00  0.00    -0.013 C 
ATOM      6  C   UNL     1      33.072  -9.345 -24.059  0.00  0.00    +0.040 A 
ATOM      7  C   UNL     1      33.838 -12.939 -23.014  0.00  0.00    +0.010 C 
ATOM      8  C   UNL     1      32.389 -11.249 -22.071  0.00  0.00    +0.035 C 
ATOM      9  C   UNL     1      32.550 -13.438 -21.034  0.00  0.00    -0.009 C 
ATOM     10  C   UNL     1      32.172  -8.975 -23.085  0.00  0.00    +0.052 A 
ATOM     11  C   UNL     1      33.386 -11.289 -25.571  0.00  0.00    +0.010 C 
ATOM     12  C   UNL     1      35.288 -10.463 -24.126  0.00  0.00    +0.010 C 
ATOM     13  C   UNL     1      32.015 -12.152 -21.063  0.00  0.00    -0.000 C 
ATOM     14  C   UNL     1      31.776  -9.888 -22.039  0.00  0.00    +0.196 C 
ATOM     15  C   UNL     1      31.782  -7.627 -23.345  0.00  0.00    +0.020 A 
ATOM     16  C   UNL     1      32.472  -7.217 -24.488  0.00  0.00    +0.057 A 
ATOM     17  C   UNL     1      30.910  -6.709 -22.722  0.00  0.00    +0.002 C 
ATOM     18  C   UNL     1      32.334  -5.939 -25.040  0.00  0.00    +0.027 C 
ATOM     19  C   UNL     1      30.761  -5.427 -23.263  0.00  0.00    +0.010 C 
ATOM     20  C   UNL     1      31.463  -5.049 -24.405  0.00  0.00    +0.070 C 
ATOM     21  H   UNL     1      33.840  -8.270 -25.686  0.00  0.00    +0.166 HD
ENDROOT
BRANCH   4  22
ATOM     22  N   UNL     1      34.009 -15.119 -21.997  0.00  0.00    -0.308 N 
ATOM     23  C   UNL     1      35.280 -17.714 -21.990  0.00  0.00    -0.054 C 
ATOM     24  C   UNL     1      35.138 -16.892 -20.708  0.00  0.00    +0.001 C 
ATOM     25  C   UNL     1      34.126 -17.392 -22.942  0.00  0.00    +0.001 C 
ATOM     26  C   UNL     1      34.055 -15.894 -23.242  0.00  0.00    +0.089 C 
ATOM     27  C   UNL     1      35.069 -15.395 -21.017  0.00  0.00    +0.089 C 
BRANCH  23  29
ATOM     28  O   UNL     1      35.219 -21.318 -19.840  0.00  0.00    -0.358 OA
ATOM     29  N   UNL     1      35.283 -19.140 -21.672  0.00  0.00    +0.392 N 
ATOM     30  C   UNL     1      34.047 -19.523 -20.976  0.00  0.00    -0.045 C 
ATOM     31  C   UNL     1      36.451 -19.489 -20.851  0.00  0.00    -0.045 C 
ATOM     32  C   UNL     1      34.078 -21.012 -20.643  0.00  0.00    +0.119 C 
ATOM     33  C   UNL     1      36.426 -20.979 -20.523  0.00  0.00    +0.119 C 
ATOM     34  H   UNL     1      35.336 -19.656 -22.550  0.00  0.00    -0.079 HD
ENDBRANCH  23  29
ENDBRANCH   4  22
BRANCH  20  36
ATOM     35  N   UNL     1      31.156  -2.665 -25.368  0.00  0.00    -0.191 NA
ATOM     36  C   UNL     1      31.294  -3.733 -24.936  0.00  0.00    +0.100 C 
ENDBRANCH  20  36
BRANCH   9  37
ATOM     37  C   UNL     1      32.127 -14.372 -19.948  0.00  0.00    +0.028 C 
ATOM     38  C   UNL     1      31.745 -15.747 -20.484  0.00  0.00    +0.005 C 
ENDBRANCH   9  37
TORSDOF 4
ENDMDL
MODEL 7
REMARK VINA RESULT:      -6.8      2.921     11.556
REMARK  Name = 49806720
REMARK  4 active torsions:
REMARK  status: ('A' for Active; 'I' for Inactive)
REMARK    1  A    between atoms: C_4  and  N_22
REMARK    2  A    between atoms: C_9  and  C_37
REMARK    3  A    between atoms: C_20  and  C_36
REMARK    4  A    between atoms: C_23  and  N_29
REMARK                            x       y       z     vdW  Elec       q    Type
REMARK                         _______ _______ _______ _____ _____    ______ ____
ROOT
ATOM      1  O   UNL     1      33.088 -22.941 -17.330  0.00  0.00    -0.287 OA
ATOM      2  N   UNL     1      37.547 -22.944 -16.376  0.00  0.00    -0.356 N 
ATOM      3  C   UNL     1      36.938 -21.388 -18.306  0.00  0.00    +0.052 C 
ATOM      4  C   UNL     1      34.565 -19.663 -20.802  0.00  0.00    +0.043 C 
ATOM      5  C   UNL     1      35.646 -20.983 -19.047  0.00  0.00    -0.013 C 
ATOM      6  C   UNL     1      36.624 -22.385 -17.220  0.00  0.00    +0.040 A 
ATOM      7  C   UNL     1      35.711 -20.055 -20.106  0.00  0.00    +0.010 C 
ATOM      8  C   UNL     1      34.375 -21.509 -18.710  0.00  0.00    +0.035 C 
ATOM      9  C   UNL     1      33.326 -20.188 -20.456  0.00  0.00    -0.009 C 
ATOM     10  C   UNL     1      35.387 -22.894 -16.892  0.00  0.00    +0.052 A 
ATOM     11  C   UNL     1      37.581 -20.138 -17.665  0.00  0.00    +0.010 C 
ATOM     12  C   UNL     1      37.928 -22.032 -19.302  0.00  0.00    +0.010 C 
ATOM     13  C   UNL     1      33.229 -21.108 -19.415  0.00  0.00    -0.000 C 
ATOM     14  C   UNL     1      34.196 -22.498 -17.606  0.00  0.00    +0.196 C 
ATOM     15  C   UNL     1      35.566 -23.800 -15.804  0.00  0.00    +0.020 A 
ATOM     16  C   UNL     1      36.929 -23.810 -15.503  0.00  0.00    +0.057 A 
ATOM     17  C   UNL     1      34.703 -24.616 -15.042  0.00  0.00    +0.002 C 
ATOM     18  C   UNL     1      37.474 -24.593 -14.479  0.00  0.00    +0.027 C 
ATOM     19  C   UNL     1      35.233 -25.404 -14.014  0.00  0.00    +0.010 C 
ATOM     20  C   UNL     1      36.598 -25.392 -13.738  0.00  0.00    +0.070 C 
ATOM     21  H   UNL     1      38.513 -22.753 -16.391  0.00  0.00    +0.166 HD
ENDROOT
BRANCH   4  22
ATOM     22  N   UNL     1      34.685 -18.737 -21.845  0.00  0.00    -0.308 N 
ATOM     23  C   UNL     1      35.055 -16.901 -24.045  0.00  0.00    -0.054 C 
ATOM     24  C   UNL     1      34.302 -18.220 -24.225  0.00  0.00    +0.001 C 
ATOM     25  C   UNL     1      34.891 -16.402 -22.608  0.00  0.00    +0.001 C 
ATOM     26  C   UNL     1      35.354 -17.455 -21.599  0.00  0.00    +0.089 C 
ATOM     27  C   UNL     1      34.772 -19.266 -23.214  0.00  0.00    +0.089 C 
BRANCH  23  29
ATOM     28  O   UNL     1      32.497 -14.208 -26.001  0.00  0.00    -0.358 OA
ATOM     29  N   UNL     1      34.546 -15.902 -24.983  0.00  0.00    +0.392 N 
ATOM     30  C   UNL     1      34.134 -14.682 -24.274  0.00  0.00    -0.045 C 
ATOM     31  C   UNL     1      33.418 -16.439 -25.756  0.00  0.00    -0.045 C 
ATOM     32  C   UNL     1      33.596 -13.659 -25.270  0.00  0.00    +0.119 C 
ATOM     33  C   UNL     1      32.898 -15.375 -26.718  0.00  0.00    +0.119 C 
ATOM     34  H   UNL     1      35.301 -15.665 -25.627  0.00  0.00    -0.079 HD
ENDBRANCH  23  29
ENDBRANCH   4  22
BRANCH  20  36
ATOM     35  N   UNL     1      37.533 -26.869 -11.827  0.00  0.00    -0.191 NA
ATOM     36  C   UNL     1      37.114 -26.207 -12.683  0.00  0.00    +0.100 C 
ENDBRANCH  20  36
BRANCH   9  37
ATOM     37  C   UNL     1      32.085 -19.786 -21.182  0.00  0.00    +0.028 C 
ATOM     38  C   UNL     1      31.678 -18.348 -20.877  0.00  0.00    +0.005 C 
ENDBRANCH   9  37
TORSDOF 4
ENDMDL
MODEL 8
REMARK VINA RESULT:      -6.7      3.073     11.983
REMARK  Name = 49806720
REMARK  4 active torsions:
REMARK  status: ('A' for Active; 'I' for Inactive)
REMARK    1  A    between atoms: C_4  and  N_22
REMARK    2  A    between atoms: C_9  and  C_37
REMARK    3  A    between atoms: C_20  and  C_36
REMARK    4  A    between atoms: C_23  and  N_29
REMARK                            x       y       z     vdW  Elec       q    Type
REMARK                         _______ _______ _______ _____ _____    ______ ____
ROOT
ATOM      1  O   UNL     1      34.972 -14.794 -24.300  0.00  0.00    -0.287 OA
ATOM      2  N   UNL     1      32.251 -15.482 -20.706  0.00  0.00    -0.356 N 
ATOM      3  C   UNL     1      32.258 -13.059 -21.506  0.00  0.00    +0.052 C 
ATOM      4  C   UNL     1      33.298 -10.115 -23.763  0.00  0.00    +0.043 C 
ATOM      5  C   UNL     1      32.950 -12.256 -22.628  0.00  0.00    -0.013 C 
ATOM      6  C   UNL     1      32.683 -14.503 -21.561  0.00  0.00    +0.040 A 
ATOM      7  C   UNL     1      32.692 -10.877 -22.761  0.00  0.00    +0.010 C 
ATOM      8  C   UNL     1      33.848 -12.849 -23.548  0.00  0.00    +0.035 C 
ATOM      9  C   UNL     1      34.177 -10.714 -24.657  0.00  0.00    -0.009 C 
ATOM     10  C   UNL     1      33.557 -15.078 -22.457  0.00  0.00    +0.052 A 
ATOM     11  C   UNL     1      30.725 -12.982 -21.685  0.00  0.00    +0.010 C 
ATOM     12  C   UNL     1      32.653 -12.474 -20.131  0.00  0.00    +0.010 C 
ATOM     13  C   UNL     1      34.453 -12.075 -24.552  0.00  0.00    -0.000 C 
ATOM     14  C   UNL     1      34.191 -14.301 -23.495  0.00  0.00    +0.196 C 
ATOM     15  C   UNL     1      33.660 -16.464 -22.133  0.00  0.00    +0.020 A 
ATOM     16  C   UNL     1      32.831 -16.687 -21.032  0.00  0.00    +0.057 A 
ATOM     17  C   UNL     1      34.376 -17.556 -22.667  0.00  0.00    +0.002 C 
ATOM     18  C   UNL     1      32.681 -17.945 -20.437  0.00  0.00    +0.027 C 
ATOM     19  C   UNL     1      34.237 -18.820 -22.083  0.00  0.00    +0.010 C 
ATOM     20  C   UNL     1      33.401 -19.011 -20.985  0.00  0.00    +0.070 C 
ATOM     21  H   UNL     1      31.618 -15.344 -19.965  0.00  0.00    +0.166 HD
ENDROOT
BRANCH   4  22
ATOM     22  N   UNL     1      33.007  -8.749 -23.852  0.00  0.00    -0.308 N 
ATOM     23  C   UNL     1      32.437  -5.916 -23.886  0.00  0.00    -0.054 C 
ATOM     24  C   UNL     1      33.863  -6.445 -24.053  0.00  0.00    +0.001 C 
ATOM     25  C   UNL     1      31.438  -6.939 -24.431  0.00  0.00    +0.001 C 
ATOM     26  C   UNL     1      31.613  -8.301 -23.757  0.00  0.00    +0.089 C 
ATOM     27  C   UNL     1      34.029  -7.806 -23.375  0.00  0.00    +0.089 C 
BRANCH  23  29
ATOM     28  O   UNL     1      31.167  -3.007 -26.632  0.00  0.00    -0.358 OA
ATOM     29  N   UNL     1      32.289  -4.646 -24.592  0.00  0.00    +0.392 N 
ATOM     30  C   UNL     1      30.903  -4.163 -24.515  0.00  0.00    -0.045 C 
ATOM     31  C   UNL     1      32.697  -4.779 -25.998  0.00  0.00    -0.045 C 
ATOM     32  C   UNL     1      30.770  -2.843 -25.268  0.00  0.00    +0.119 C 
ATOM     33  C   UNL     1      32.523  -3.444 -26.716  0.00  0.00    +0.119 C 
ATOM     34  H   UNL     1      32.897  -3.963 -24.139  0.00  0.00    -0.079 HD
ENDBRANCH  23  29
ENDBRANCH   4  22
BRANCH  20  36
ATOM     35  N   UNL     1      33.176 -21.369 -19.938  0.00  0.00    -0.191 NA
ATOM     36  C   UNL     1      33.277 -20.312 -20.407  0.00  0.00    +0.100 C 
ENDBRANCH  20  36
BRANCH   9  37
ATOM     37  C   UNL     1      34.838  -9.925 -25.739  0.00  0.00    +0.028 C 
ATOM     38  C   UNL     1      35.704 -10.796 -26.643  0.00  0.00    +0.005 C 
ENDBRANCH   9  37
TORSDOF 4
ENDMDL
MODEL 9
REMARK VINA RESULT:      -6.7      3.600     12.805
REMARK  Name = 49806720
REMARK  4 active torsions:
REMARK  status: ('A' for Active; 'I' for Inactive)
REMARK    1  A    between atoms: C_4  and  N_22
REMARK    2  A    between atoms: C_9  and  C_37
REMARK    3  A    between atoms: C_20  and  C_36
REMARK    4  A    between atoms: C_23  and  N_29
REMARK                            x       y       z     vdW  Elec       q    Type
REMARK                         _______ _______ _______ _____ _____    ______ ____
ROOT
ATOM      1  O   UNL     1      32.503 -13.080 -20.382  0.00  0.00    -0.287 OA
ATOM      2  N   UNL     1      34.162 -14.884 -24.228  0.00  0.00    -0.356 N 
ATOM      3  C   UNL     1      33.547 -12.418 -24.463  0.00  0.00    +0.052 C 
ATOM      4  C   UNL     1      32.238  -9.001 -23.259  0.00  0.00    +0.043 C 
ATOM      5  C   UNL     1      32.967 -11.320 -23.546  0.00  0.00    -0.013 C 
ATOM      6  C   UNL     1      33.679 -13.713 -23.705  0.00  0.00    +0.040 A 
ATOM      7  C   UNL     1      32.760 -10.023 -24.056  0.00  0.00    +0.010 C 
ATOM      8  C   UNL     1      32.626 -11.558 -22.193  0.00  0.00    +0.035 C 
ATOM      9  C   UNL     1      31.909  -9.253 -21.932  0.00  0.00    -0.009 C 
ATOM     10  C   UNL     1      33.348 -13.943 -22.388  0.00  0.00    +0.052 A 
ATOM     11  C   UNL     1      34.944 -11.989 -24.965  0.00  0.00    +0.010 C 
ATOM     12  C   UNL     1      32.604 -12.639 -25.667  0.00  0.00    +0.010 C 
ATOM     13  C   UNL     1      32.102 -10.525 -21.399  0.00  0.00    -0.000 C 
ATOM     14  C   UNL     1      32.804 -12.895 -21.555  0.00  0.00    +0.196 C 
ATOM     15  C   UNL     1      33.642 -15.309 -22.098  0.00  0.00    +0.020 A 
ATOM     16  C   UNL     1      34.150 -15.872 -23.270  0.00  0.00    +0.057 A 
ATOM     17  C   UNL     1      33.526 -16.126 -20.954  0.00  0.00    +0.002 C 
ATOM     18  C   UNL     1      34.550 -17.211 -23.356  0.00  0.00    +0.027 C 
ATOM     19  C   UNL     1      33.922 -17.467 -21.025  0.00  0.00    +0.010 C 
ATOM     20  C   UNL     1      34.427 -17.999 -22.209  0.00  0.00    +0.070 C 
ATOM     21  H   UNL     1      34.473 -15.001 -25.154  0.00  0.00    +0.166 HD
ENDROOT
BRANCH   4  22
ATOM     22  N   UNL     1      32.053  -7.730 -23.814  0.00  0.00    -0.308 N 
ATOM     23  C   UNL     1      31.722  -5.045 -24.829  0.00  0.00    -0.054 C 
ATOM     24  C   UNL     1      33.065  -5.771 -24.917  0.00  0.00    +0.001 C 
ATOM     25  C   UNL     1      30.580  -6.062 -24.873  0.00  0.00    +0.001 C 
ATOM     26  C   UNL     1      30.725  -7.108 -23.766  0.00  0.00    +0.089 C 
ATOM     27  C   UNL     1      33.203  -6.814 -23.807  0.00  0.00    +0.089 C 
BRANCH  23  29
ATOM     28  O   UNL     1      32.663  -2.240 -27.806  0.00  0.00    -0.358 OA
ATOM     29  N   UNL     1      31.592  -4.098 -25.934  0.00  0.00    +0.392 N 
ATOM     30  C   UNL     1      32.373  -4.542 -27.097  0.00  0.00    -0.045 C 
ATOM     31  C   UNL     1      32.021  -2.754 -25.524  0.00  0.00    -0.045 C 
ATOM     32  C   UNL     1      32.231  -3.533 -28.234  0.00  0.00    +0.119 C 
ATOM     33  C   UNL     1      31.887  -1.787 -26.697  0.00  0.00    +0.119 C 
ATOM     34  H   UNL     1      30.607  -4.059 -26.198  0.00  0.00    -0.079 HD
ENDBRANCH  23  29
ENDBRANCH   4  22
BRANCH  20  36
ATOM     35  N   UNL     1      35.145 -20.486 -22.292  0.00  0.00    -0.191 NA
ATOM     36  C   UNL     1      34.823 -19.372 -22.255  0.00  0.00    +0.100 C 
ENDBRANCH  20  36
BRANCH   9  37
ATOM     37  C   UNL     1      31.350  -8.180 -21.056  0.00  0.00    +0.028 C 
ATOM     38  C   UNL     1      32.428  -7.494 -20.224  0.00  0.00    +0.005 C 
ENDBRANCH   9  37
TORSDOF 4
ENDMDL
