MODEL 1
REMARK VINA RESULT:     -10.6      0.000      0.000
REMARK  Name = 11953153
REMARK  7 active torsions:
REMARK  status: ('A' for Active; 'I' for Inactive)
REMARK    1  A    between atoms: C_8  and  C_21
REMARK    2  A    between atoms: C_11  and  C_16
REMARK    3  A    between atoms: C_12  and  C_20
REMARK    4  A    between atoms: C_21  and  C_22
REMARK    5  A    between atoms: C_22  and  N_23
REMARK    6  A    between atoms: C_22  and  C_27
REMARK    7  A    between atoms: C_27  and  N_31
REMARK                            x       y       z     vdW  Elec       q    Type
REMARK                         _______ _______ _______ _____ _____    ______ ____
ROOT
ATOM      1  O   UNL     1      32.612 -20.625 -20.387  0.00  0.00    -0.275 OA
ATOM      2  N   UNL     1      33.886 -21.921 -18.934  0.00  0.00    -0.273 N 
ATOM      3  N   UNL     1      36.303 -23.151 -16.380  0.00  0.00    -0.344 NA
ATOM      4  N   UNL     1      35.106 -23.961 -14.453  0.00  0.00    -0.337 NA
ATOM      5  C   UNL     1      32.759 -22.776 -18.556  0.00  0.00    +0.095 C 
ATOM      6  C   UNL     1      35.190 -22.285 -18.361  0.00  0.00    +0.149 C 
ATOM      7  C   UNL     1      32.598 -22.814 -17.040  0.00  0.00    +0.035 C 
ATOM      8  C   UNL     1      33.705 -20.933 -19.905  0.00  0.00    +0.224 C 
ATOM      9  C   UNL     1      33.896 -23.145 -16.373  0.00  0.00    +0.110 C 
ATOM     10  C   UNL     1      35.119 -22.881 -16.979  0.00  0.00    +0.125 C 
ATOM     11  C   UNL     1      33.956 -23.678 -15.096  0.00  0.00    +0.198 C 
ATOM     12  C   UNL     1      36.225 -23.680 -15.144  0.00  0.00    +0.210 C 
ENDROOT
BRANCH  11  16
ATOM     13  F   UNL     1      32.060 -22.846 -13.896  0.00  0.00    -0.164 F 
ATOM     14  F   UNL     1      31.780 -24.670 -15.036  0.00  0.00    -0.164 F 
ATOM     15  F   UNL     1      32.949 -24.705 -13.203  0.00  0.00    -0.164 F 
ATOM     16  C   UNL     1      32.710 -23.968 -14.324  0.00  0.00    +0.443 C 
ENDBRANCH  11  16
BRANCH  12  20
ATOM     17  F   UNL     1      37.596 -25.255 -13.978  0.00  0.00    -0.156 F 
ATOM     18  F   UNL     1      38.607 -23.848 -15.283  0.00  0.00    -0.156 F 
ATOM     19  F   UNL     1      37.757 -23.165 -13.401  0.00  0.00    -0.156 F 
ATOM     20  C   UNL     1      37.519 -23.982 -14.468  0.00  0.00    +0.500 C 
ENDBRANCH  12  20
BRANCH   8  21
ATOM     21  C   UNL     1      34.947 -20.210 -20.365  0.00  0.00    +0.065 C 
BRANCH  21  22
ATOM     22  C   UNL     1      34.611 -19.141 -21.406  0.00  0.00    -0.036 C 
BRANCH  22  23
ATOM     23  N   UNL     1      34.796 -19.747 -22.728  0.00  0.00    +0.383 N 
ATOM     24  H   UNL     1      35.659 -20.292 -22.736  0.00  0.00    -0.089 HD
ATOM     25  H   UNL     1      34.851 -19.014 -23.435  0.00  0.00    -0.089 HD
ATOM     26  H   UNL     1      34.006 -20.359 -22.936  0.00  0.00    -0.089 HD
ENDBRANCH  22  23
BRANCH  22  27
ATOM     27  C   UNL     1      35.503 -17.895 -21.306  0.00  0.00    +0.072 C 
BRANCH  27  31
ATOM     28  F   UNL     1      32.478 -14.390 -19.984  0.00  0.00    -0.202 F 
ATOM     29  F   UNL     1      34.473 -13.802 -20.620  0.00  0.00    -0.202 F 
ATOM     30  O   UNL     1      35.345 -16.798 -23.895  0.00  0.00    -0.275 OA
ATOM     31  N   UNL     1      34.798 -16.664 -21.641  0.00  0.00    -0.276 N 
ATOM     32  C   UNL     1      33.972 -16.095 -20.577  0.00  0.00    +0.160 C 
ATOM     33  C   UNL     1      33.477 -14.694 -20.848  0.00  0.00    +0.282 C 
ATOM     34  C   UNL     1      32.979 -14.557 -22.266  0.00  0.00    +0.078 C 
ATOM     35  C   UNL     1      34.103 -14.887 -23.227  0.00  0.00    +0.091 C 
ATOM     36  C   UNL     1      34.780 -16.219 -22.963  0.00  0.00    +0.226 C 
ENDBRANCH  27  31
ENDBRANCH  22  27
ENDBRANCH  21  22
ENDBRANCH   8  21
TORSDOF 7
ENDMDL
MODEL 2
REMARK VINA RESULT:     -10.1      1.683      2.210
REMARK  Name = 11953153
REMARK  7 active torsions:
REMARK  status: ('A' for Active; 'I' for Inactive)
REMARK    1  A    between atoms: C_8  and  C_21
REMARK    2  A    between atoms: C_11  and  C_16
REMARK    3  A    between atoms: C_12  and  C_20
REMARK    4  A    between atoms: C_21  and  C_22
REMARK    5  A    between atoms: C_22  and  N_23
REMARK    6  A    between atoms: C_22  and  C_27
REMARK    7  A    between atoms: C_27  and  N_31
REMARK                            x       y       z     vdW  Elec       q    Type
REMARK                         _______ _______ _______ _____ _____    ______ ____
ROOT
ATOM      1  O   UNL     1      32.999 -19.734 -21.262  0.00  0.00    -0.275 OA
ATOM      2  N   UNL     1      34.210 -21.115 -19.835  0.00  0.00    -0.273 N 
ATOM      3  N   UNL     1      36.468 -22.494 -17.213  0.00  0.00    -0.344 NA
ATOM      4  N   UNL     1      35.159 -23.535 -15.479  0.00  0.00    -0.337 NA
ATOM      5  C   UNL     1      33.098 -22.046 -19.636  0.00  0.00    +0.095 C 
ATOM      6  C   UNL     1      35.479 -21.482 -19.190  0.00  0.00    +0.149 C 
ATOM      7  C   UNL     1      32.817 -22.239 -18.150  0.00  0.00    +0.035 C 
ATOM      8  C   UNL     1      34.062 -20.045 -20.720  0.00  0.00    +0.224 C 
ATOM      9  C   UNL     1      34.071 -22.583 -17.409  0.00  0.00    +0.110 C 
ATOM     10  C   UNL     1      35.325 -22.214 -17.882  0.00  0.00    +0.125 C 
ATOM     11  C   UNL     1      34.053 -23.235 -16.188  0.00  0.00    +0.198 C 
ATOM     12  C   UNL     1      36.316 -23.144 -16.043  0.00  0.00    +0.210 C 
ENDROOT
BRANCH  11  16
ATOM     13  F   UNL     1      31.856 -24.147 -16.445  0.00  0.00    -0.164 F 
ATOM     14  F   UNL     1      32.908 -24.619 -14.607  0.00  0.00    -0.164 F 
ATOM     15  F   UNL     1      32.133 -22.613 -14.930  0.00  0.00    -0.164 F 
ATOM     16  C   UNL     1      32.763 -23.648 -15.555  0.00  0.00    +0.443 C 
ENDBRANCH  11  16
BRANCH  12  20
ATOM     17  F   UNL     1      37.664 -22.807 -14.096  0.00  0.00    -0.156 F 
ATOM     18  F   UNL     1      37.696 -24.785 -14.984  0.00  0.00    -0.156 F 
ATOM     19  F   UNL     1      38.692 -23.130 -15.984  0.00  0.00    -0.156 F 
ATOM     20  C   UNL     1      37.564 -23.461 -15.291  0.00  0.00    +0.500 C 
ENDBRANCH  12  20
BRANCH   8  21
ATOM     21  C   UNL     1      35.302 -19.233 -21.003  0.00  0.00    +0.065 C 
BRANCH  21  22
ATOM     22  C   UNL     1      34.992 -18.052 -21.924  0.00  0.00    -0.036 C 
BRANCH  22  23
ATOM     23  N   UNL     1      35.935 -18.113 -23.045  0.00  0.00    +0.383 N 
ATOM     24  H   UNL     1      36.654 -17.399 -22.924  0.00  0.00    -0.089 HD
ATOM     25  H   UNL     1      35.437 -17.949 -23.919  0.00  0.00    -0.089 HD
ATOM     26  H   UNL     1      36.373 -19.035 -23.072  0.00  0.00    -0.089 HD
ENDBRANCH  22  23
BRANCH  22  27
ATOM     27  C   UNL     1      35.136 -16.688 -21.233  0.00  0.00    +0.072 C 
BRANCH  27  31
ATOM     28  F   UNL     1      34.346 -13.320 -24.582  0.00  0.00    -0.202 F 
ATOM     29  F   UNL     1      32.907 -14.945 -24.437  0.00  0.00    -0.202 F 
ATOM     30  O   UNL     1      32.802 -15.726 -19.984  0.00  0.00    -0.275 OA
ATOM     31  N   UNL     1      34.257 -15.670 -21.794  0.00  0.00    -0.276 N 
ATOM     32  C   UNL     1      34.754 -14.991 -22.990  0.00  0.00    +0.160 C 
ATOM     33  C   UNL     1      33.725 -14.148 -23.706  0.00  0.00    +0.282 C 
ATOM     34  C   UNL     1      32.912 -13.334 -22.729  0.00  0.00    +0.078 C 
ATOM     35  C   UNL     1      32.212 -14.265 -21.760  0.00  0.00    +0.091 C 
ATOM     36  C   UNL     1      33.129 -15.265 -21.080  0.00  0.00    +0.226 C 
ENDBRANCH  27  31
ENDBRANCH  22  27
ENDBRANCH  21  22
ENDBRANCH   8  21
TORSDOF 7
ENDMDL
MODEL 3
REMARK VINA RESULT:     -10.0      3.749     11.427
REMARK  Name = 11953153
REMARK  7 active torsions:
REMARK  status: ('A' for Active; 'I' for Inactive)
REMARK    1  A    between atoms: C_8  and  C_21
REMARK    2  A    between atoms: C_11  and  C_16
REMARK    3  A    between atoms: C_12  and  C_20
REMARK    4  A    between atoms: C_21  and  C_22
REMARK    5  A    between atoms: C_22  and  N_23
REMARK    6  A    between atoms: C_22  and  C_27
REMARK    7  A    between atoms: C_27  and  N_31
REMARK                            x       y       z     vdW  Elec       q    Type
REMARK                         _______ _______ _______ _____ _____    ______ ____
ROOT
ATOM      1  O   UNL     1      34.627 -16.696 -23.679  0.00  0.00    -0.275 OA
ATOM      2  N   UNL     1      33.307 -15.046 -22.705  0.00  0.00    -0.273 N 
ATOM      3  N   UNL     1      31.867 -12.437 -20.469  0.00  0.00    -0.344 NA
ATOM      4  N   UNL     1      32.004 -10.285 -21.540  0.00  0.00    -0.337 NA
ATOM      5  C   UNL     1      33.035 -14.376 -23.977  0.00  0.00    +0.095 C 
ATOM      6  C   UNL     1      32.622 -14.492 -21.527  0.00  0.00    +0.149 C 
ATOM      7  C   UNL     1      33.395 -12.897 -23.894  0.00  0.00    +0.035 C 
ATOM      8  C   UNL     1      34.051 -16.229 -22.694  0.00  0.00    +0.224 C 
ATOM      9  C   UNL     1      32.764 -12.260 -22.696  0.00  0.00    +0.110 C 
ATOM     10  C   UNL     1      32.415 -13.001 -21.571  0.00  0.00    +0.125 C 
ATOM     11  C   UNL     1      32.543 -10.896 -22.613  0.00  0.00    +0.198 C 
ATOM     12  C   UNL     1      31.691 -11.103 -20.520  0.00  0.00    +0.210 C 
ENDROOT
BRANCH  11  16
ATOM     13  F   UNL     1      34.070  -9.297 -23.528  0.00  0.00    -0.164 F 
ATOM     14  F   UNL     1      33.099 -10.639 -24.927  0.00  0.00    -0.164 F 
ATOM     15  F   UNL     1      31.960  -9.043 -23.986  0.00  0.00    -0.164 F 
ATOM     16  C   UNL     1      32.913  -9.988 -23.742  0.00  0.00    +0.443 C 
ENDBRANCH  11  16
BRANCH  12  20
ATOM     17  F   UNL     1      31.434  -9.153 -19.160  0.00  0.00    -0.156 F 
ATOM     18  F   UNL     1      29.723 -10.477 -19.314  0.00  0.00    -0.156 F 
ATOM     19  F   UNL     1      31.461 -11.080 -18.154  0.00  0.00    -0.156 F 
ATOM     20  C   UNL     1      31.089 -10.465 -19.315  0.00  0.00    +0.500 C 
ENDBRANCH  12  20
BRANCH   8  21
ATOM     21  C   UNL     1      34.142 -16.951 -21.372  0.00  0.00    +0.065 C 
BRANCH  21  22
ATOM     22  C   UNL     1      35.207 -18.048 -21.414  0.00  0.00    -0.036 C 
BRANCH  22  23
ATOM     23  N   UNL     1      36.152 -17.698 -22.480  0.00  0.00    +0.383 N 
ATOM     24  H   UNL     1      36.926 -17.163 -22.085  0.00  0.00    -0.089 HD
ATOM     25  H   UNL     1      35.676 -17.137 -23.186  0.00  0.00    -0.089 HD
ATOM     26  H   UNL     1      36.511 -18.551 -22.910  0.00  0.00    -0.089 HD
ENDBRANCH  22  23
BRANCH  22  27
ATOM     27  C   UNL     1      34.632 -19.443 -21.703  0.00  0.00    +0.072 C 
BRANCH  27  31
ATOM     28  F   UNL     1      32.866 -22.359 -18.304  0.00  0.00    -0.202 F 
ATOM     29  F   UNL     1      34.153 -23.248 -19.815  0.00  0.00    -0.202 F 
ATOM     30  O   UNL     1      37.156 -19.951 -20.563  0.00  0.00    -0.275 OA
ATOM     31  N   UNL     1      34.876 -20.392 -20.626  0.00  0.00    -0.276 N 
ATOM     32  C   UNL     1      33.684 -20.955 -19.991  0.00  0.00    +0.160 C 
ATOM     33  C   UNL     1      33.954 -22.127 -19.078  0.00  0.00    +0.282 C 
ATOM     34  C   UNL     1      35.154 -21.869 -18.200  0.00  0.00    +0.078 C 
ATOM     35  C   UNL     1      36.369 -21.622 -19.071  0.00  0.00    +0.091 C 
ATOM     36  C   UNL     1      36.171 -20.556 -20.132  0.00  0.00    +0.226 C 
ENDBRANCH  27  31
ENDBRANCH  22  27
ENDBRANCH  21  22
ENDBRANCH   8  21
TORSDOF 7
ENDMDL
MODEL 4
REMARK VINA RESULT:      -9.8      1.583      3.572
REMARK  Name = 11953153
REMARK  7 active torsions:
REMARK  status: ('A' for Active; 'I' for Inactive)
REMARK    1  A    between atoms: C_8  and  C_21
REMARK    2  A    between atoms: C_11  and  C_16
REMARK    3  A    between atoms: C_12  and  C_20
REMARK    4  A    between atoms: C_21  and  C_22
REMARK    5  A    between atoms: C_22  and  N_23
REMARK    6  A    between atoms: C_22  and  C_27
REMARK    7  A    between atoms: C_27  and  N_31
REMARK                            x       y       z     vdW  Elec       q    Type
REMARK                         _______ _______ _______ _____ _____    ______ ____
ROOT
ATOM      1  O   UNL     1      36.947 -21.408 -19.715  0.00  0.00    -0.275 OA
ATOM      2  N   UNL     1      35.574 -21.957 -17.919  0.00  0.00    -0.273 N 
ATOM      3  N   UNL     1      33.047 -23.492 -15.653  0.00  0.00    -0.344 NA
ATOM      4  N   UNL     1      34.161 -24.651 -13.860  0.00  0.00    -0.337 NA
ATOM      5  C   UNL     1      36.639 -21.790 -16.929  0.00  0.00    +0.095 C 
ATOM      6  C   UNL     1      34.241 -22.269 -17.383  0.00  0.00    +0.149 C 
ATOM      7  C   UNL     1      36.775 -23.041 -16.068  0.00  0.00    +0.035 C 
ATOM      8  C   UNL     1      35.831 -21.670 -19.261  0.00  0.00    +0.224 C 
ATOM      9  C   UNL     1      35.449 -23.451 -15.508  0.00  0.00    +0.110 C 
ATOM     10  C   UNL     1      34.254 -23.108 -16.131  0.00  0.00    +0.125 C 
ATOM     11  C   UNL     1      35.337 -24.239 -14.375  0.00  0.00    +0.198 C 
ATOM     12  C   UNL     1      33.072 -24.245 -14.537  0.00  0.00    +0.210 C 
ENDROOT
BRANCH  11  16
ATOM     13  F   UNL     1      37.329 -25.563 -14.362  0.00  0.00    -0.164 F 
ATOM     14  F   UNL     1      37.386 -23.691 -13.268  0.00  0.00    -0.164 F 
ATOM     15  F   UNL     1      36.242 -25.369 -12.490  0.00  0.00    -0.164 F 
ATOM     16  C   UNL     1      36.551 -24.706 -13.639  0.00  0.00    +0.443 C 
ENDBRANCH  11  16
BRANCH  12  20
ATOM     17  F   UNL     1      31.005 -23.651 -13.490  0.00  0.00    -0.156 F 
ATOM     18  F   UNL     1      30.950 -25.277 -14.924  0.00  0.00    -0.156 F 
ATOM     19  F   UNL     1      31.873 -25.578 -12.977  0.00  0.00    -0.156 F 
ATOM     20  C   UNL     1      31.752 -24.677 -13.995  0.00  0.00    +0.500 C 
ENDBRANCH  12  20
BRANCH   8  21
ATOM     21  C   UNL     1      34.643 -21.699 -20.192  0.00  0.00    +0.065 C 
BRANCH  21  22
ATOM     22  C   UNL     1      34.169 -20.284 -20.527  0.00  0.00    -0.036 C 
BRANCH  22  23
ATOM     23  N   UNL     1      32.703 -20.311 -20.559  0.00  0.00    +0.383 N 
ATOM     24  H   UNL     1      32.378 -21.274 -20.456  0.00  0.00    -0.089 HD
ATOM     25  H   UNL     1      32.374 -19.936 -21.449  0.00  0.00    -0.089 HD
ATOM     26  H   UNL     1      32.334 -19.744 -19.795  0.00  0.00    -0.089 HD
ENDBRANCH  22  23
BRANCH  22  27
ATOM     27  C   UNL     1      34.681 -19.776 -21.883  0.00  0.00    +0.072 C 
BRANCH  27  31
ATOM     28  F   UNL     1      32.926 -15.598 -20.259  0.00  0.00    -0.202 F 
ATOM     29  F   UNL     1      35.086 -15.770 -20.446  0.00  0.00    -0.202 F 
ATOM     30  O   UNL     1      35.516 -18.329 -24.150  0.00  0.00    -0.275 OA
ATOM     31  N   UNL     1      34.567 -18.331 -22.030  0.00  0.00    -0.276 N 
ATOM     32  C   UNL     1      33.789 -17.647 -20.997  0.00  0.00    +0.160 C 
ATOM     33  C   UNL     1      33.912 -16.142 -21.013  0.00  0.00    +0.282 C 
ATOM     34  C   UNL     1      33.828 -15.604 -22.421  0.00  0.00    +0.078 C 
ATOM     35  C   UNL     1      34.939 -16.207 -23.256  0.00  0.00    +0.091 C 
ATOM     36  C   UNL     1      35.008 -17.722 -23.204  0.00  0.00    +0.226 C 
ENDBRANCH  27  31
ENDBRANCH  22  27
ENDBRANCH  21  22
ENDBRANCH   8  21
TORSDOF 7
ENDMDL
MODEL 5
REMARK VINA RESULT:      -9.7      7.850     11.884
REMARK  Name = 11953153
REMARK  7 active torsions:
REMARK  status: ('A' for Active; 'I' for Inactive)
REMARK    1  A    between atoms: C_8  and  C_21
REMARK    2  A    between atoms: C_11  and  C_16
REMARK    3  A    between atoms: C_12  and  C_20
REMARK    4  A    between atoms: C_21  and  C_22
REMARK    5  A    between atoms: C_22  and  N_23
REMARK    6  A    between atoms: C_22  and  C_27
REMARK    7  A    between atoms: C_27  and  N_31
REMARK                            x       y       z     vdW  Elec       q    Type
REMARK                         _______ _______ _______ _____ _____    ______ ____
ROOT
ATOM      1  O   UNL     1      31.639  -9.832 -19.491  0.00  0.00    -0.275 OA
ATOM      2  N   UNL     1      31.753 -11.407 -21.199  0.00  0.00    -0.273 N 
ATOM      3  N   UNL     1      32.638 -13.363 -24.244  0.00  0.00    -0.344 NA
ATOM      4  N   UNL     1      33.616 -15.467 -23.601  0.00  0.00    -0.337 NA
ATOM      5  C   UNL     1      31.548 -12.542 -20.298  0.00  0.00    +0.095 C 
ATOM      6  C   UNL     1      31.833 -11.729 -22.632  0.00  0.00    +0.149 C 
ATOM      7  C   UNL     1      32.658 -13.573 -20.472  0.00  0.00    +0.035 C 
ATOM      8  C   UNL     1      31.706 -10.107 -20.691  0.00  0.00    +0.224 C 
ATOM      9  C   UNL     1      32.832 -13.933 -21.914  0.00  0.00    +0.110 C 
ATOM     10  C   UNL     1      32.464 -13.064 -22.935  0.00  0.00    +0.125 C 
ATOM     11  C   UNL     1      33.418 -15.122 -22.313  0.00  0.00    +0.198 C 
ATOM     12  C   UNL     1      33.206 -14.556 -24.501  0.00  0.00    +0.210 C 
ENDROOT
BRANCH  11  16
ATOM     13  F   UNL     1      34.734 -15.596 -20.372  0.00  0.00    -0.164 F 
ATOM     14  F   UNL     1      32.880 -16.699 -20.596  0.00  0.00    -0.164 F 
ATOM     15  F   UNL     1      34.576 -17.153 -21.880  0.00  0.00    -0.164 F 
ATOM     16  C   UNL     1      33.892 -16.122 -21.308  0.00  0.00    +0.443 C 
ENDBRANCH  11  16
BRANCH  12  20
ATOM     17  F   UNL     1      32.286 -15.399 -26.542  0.00  0.00    -0.156 F 
ATOM     18  F   UNL     1      33.784 -13.840 -26.709  0.00  0.00    -0.156 F 
ATOM     19  F   UNL     1      34.371 -15.850 -26.119  0.00  0.00    -0.156 F 
ATOM     20  C   UNL     1      33.406 -14.902 -25.937  0.00  0.00    +0.500 C 
ENDBRANCH  12  20
BRANCH   8  21
ATOM     21  C   UNL     1      31.752  -8.989 -21.704  0.00  0.00    +0.065 C 
BRANCH  21  22
ATOM     22  C   UNL     1      32.657  -7.850 -21.230  0.00  0.00    -0.036 C 
BRANCH  22  23
ATOM     23  N   UNL     1      33.045  -8.148 -19.848  0.00  0.00    +0.383 N 
ATOM     24  H   UNL     1      32.461  -8.902 -19.485  0.00  0.00    -0.089 HD
ATOM     25  H   UNL     1      32.919  -7.315 -19.272  0.00  0.00    -0.089 HD
ATOM     26  H   UNL     1      34.024  -8.433 -19.822  0.00  0.00    -0.089 HD
ENDBRANCH  22  23
BRANCH  22  27
ATOM     27  C   UNL     1      31.972  -6.476 -21.265  0.00  0.00    +0.072 C 
BRANCH  27  31
ATOM     28  F   UNL     1      34.031  -5.910 -25.580  0.00  0.00    -0.202 F 
ATOM     29  F   UNL     1      32.030  -6.761 -25.531  0.00  0.00    -0.202 F 
ATOM     30  O   UNL     1      30.129  -4.515 -22.096  0.00  0.00    -0.275 OA
ATOM     31  N   UNL     1      31.927  -5.897 -22.602  0.00  0.00    -0.276 N 
ATOM     32  C   UNL     1      33.046  -6.238 -23.480  0.00  0.00    +0.160 C 
ATOM     33  C   UNL     1      32.844  -5.859 -24.928  0.00  0.00    +0.282 C 
ATOM     34  C   UNL     1      32.257  -4.474 -25.052  0.00  0.00    +0.078 C 
ATOM     35  C   UNL     1      30.926  -4.426 -24.331  0.00  0.00    +0.091 C 
ATOM     36  C   UNL     1      30.973  -4.924 -22.898  0.00  0.00    +0.226 C 
ENDBRANCH  27  31
ENDBRANCH  22  27
ENDBRANCH  21  22
ENDBRANCH   8  21
TORSDOF 7
ENDMDL
MODEL 6
REMARK VINA RESULT:      -9.7      2.381      3.011
REMARK  Name = 11953153
REMARK  7 active torsions:
REMARK  status: ('A' for Active; 'I' for Inactive)
REMARK    1  A    between atoms: C_8  and  C_21
REMARK    2  A    between atoms: C_11  and  C_16
REMARK    3  A    between atoms: C_12  and  C_20
REMARK    4  A    between atoms: C_21  and  C_22
REMARK    5  A    between atoms: C_22  and  N_23
REMARK    6  A    between atoms: C_22  and  C_27
REMARK    7  A    between atoms: C_27  and  N_31
REMARK                            x       y       z     vdW  Elec       q    Type
REMARK                         _______ _______ _______ _____ _____    ______ ____
ROOT
ATOM      1  O   UNL     1      33.242 -21.661 -19.921  0.00  0.00    -0.275 OA
ATOM      2  N   UNL     1      33.814 -22.746 -17.944  0.00  0.00    -0.273 N 
ATOM      3  N   UNL     1      35.122 -23.638 -14.572  0.00  0.00    -0.344 NA
ATOM      4  N   UNL     1      33.285 -23.988 -13.055  0.00  0.00    -0.337 NA
ATOM      5  C   UNL     1      32.527 -23.435 -17.836  0.00  0.00    +0.095 C 
ATOM      6  C   UNL     1      34.813 -23.085 -16.920  0.00  0.00    +0.149 C 
ATOM      7  C   UNL     1      31.891 -23.177 -16.475  0.00  0.00    +0.035 C 
ATOM      8  C   UNL     1      34.077 -21.948 -19.060  0.00  0.00    +0.224 C 
ATOM      9  C   UNL     1      32.858 -23.465 -15.370  0.00  0.00    +0.110 C 
ATOM     10  C   UNL     1      34.233 -23.405 -15.566  0.00  0.00    +0.125 C 
ATOM     11  C   UNL     1      32.443 -23.751 -14.080  0.00  0.00    +0.198 C 
ATOM     12  C   UNL     1      34.591 -23.919 -13.367  0.00  0.00    +0.210 C 
ENDROOT
BRANCH  11  16
ATOM     13  F   UNL     1      30.282 -22.731 -14.190  0.00  0.00    -0.164 F 
ATOM     14  F   UNL     1      30.349 -24.898 -14.242  0.00  0.00    -0.164 F 
ATOM     15  F   UNL     1      30.774 -23.844 -12.389  0.00  0.00    -0.164 F 
ATOM     16  C   UNL     1      30.990 -23.805 -13.734  0.00  0.00    +0.443 C 
ENDBRANCH  11  16
BRANCH  12  20
ATOM     17  F   UNL     1      36.682 -24.840 -12.657  0.00  0.00    -0.156 F 
ATOM     18  F   UNL     1      36.006 -23.041 -11.650  0.00  0.00    -0.156 F 
ATOM     19  F   UNL     1      35.016 -24.939 -11.263  0.00  0.00    -0.156 F 
ATOM     20  C   UNL     1      35.555 -24.178 -12.259  0.00  0.00    +0.500 C 
ENDBRANCH  12  20
BRANCH   8  21
ATOM     21  C   UNL     1      35.482 -21.412 -19.185  0.00  0.00    +0.065 C 
BRANCH  21  22
ATOM     22  C   UNL     1      35.630 -20.533 -20.428  0.00  0.00    -0.036 C 
BRANCH  22  23
ATOM     23  N   UNL     1      36.888 -19.791 -20.289  0.00  0.00    +0.383 N 
ATOM     24  H   UNL     1      37.240 -19.894 -19.337  0.00  0.00    -0.089 HD
ATOM     25  H   UNL     1      36.724 -18.804 -20.486  0.00  0.00    -0.089 HD
ATOM     26  H   UNL     1      37.574 -20.159 -20.948  0.00  0.00    -0.089 HD
ENDBRANCH  22  23
BRANCH  22  27
ATOM     27  C   UNL     1      34.482 -19.528 -20.602  0.00  0.00    +0.072 C 
BRANCH  27  31
ATOM     28  F   UNL     1      35.133 -19.214 -25.362  0.00  0.00    -0.202 F 
ATOM     29  F   UNL     1      33.355 -18.277 -24.532  0.00  0.00    -0.202 F 
ATOM     30  O   UNL     1      34.861 -16.738 -20.555  0.00  0.00    -0.275 OA
ATOM     31  N   UNL     1      34.631 -18.694 -21.787  0.00  0.00    -0.276 N 
ATOM     32  C   UNL     1      34.783 -19.410 -23.053  0.00  0.00    +0.160 C 
ATOM     33  C   UNL     1      34.661 -18.542 -24.283  0.00  0.00    +0.282 C 
ATOM     34  C   UNL     1      35.425 -17.251 -24.117  0.00  0.00    +0.078 C 
ATOM     35  C   UNL     1      34.885 -16.499 -22.917  0.00  0.00    +0.091 C 
ATOM     36  C   UNL     1      34.823 -17.320 -21.642  0.00  0.00    +0.226 C 
ENDBRANCH  27  31
ENDBRANCH  22  27
ENDBRANCH  21  22
ENDBRANCH   8  21
TORSDOF 7
ENDMDL
MODEL 7
REMARK VINA RESULT:      -9.5      4.412     11.503
REMARK  Name = 11953153
REMARK  7 active torsions:
REMARK  status: ('A' for Active; 'I' for Inactive)
REMARK    1  A    between atoms: C_8  and  C_21
REMARK    2  A    between atoms: C_11  and  C_16
REMARK    3  A    between atoms: C_12  and  C_20
REMARK    4  A    between atoms: C_21  and  C_22
REMARK    5  A    between atoms: C_22  and  N_23
REMARK    6  A    between atoms: C_22  and  C_27
REMARK    7  A    between atoms: C_27  and  N_31
REMARK                            x       y       z     vdW  Elec       q    Type
REMARK                         _______ _______ _______ _____ _____    ______ ____
ROOT
ATOM      1  O   UNL     1      34.887 -16.436 -25.607  0.00  0.00    -0.275 OA
ATOM      2  N   UNL     1      33.571 -14.956 -24.386  0.00  0.00    -0.273 N 
ATOM      3  N   UNL     1      32.048 -12.844 -21.721  0.00  0.00    -0.344 NA
ATOM      4  N   UNL     1      32.452 -10.518 -22.199  0.00  0.00    -0.337 NA
ATOM      5  C   UNL     1      33.497 -13.976 -25.470  0.00  0.00    +0.095 C 
ATOM      6  C   UNL     1      32.789 -14.643 -23.180  0.00  0.00    +0.149 C 
ATOM      7  C   UNL     1      33.940 -12.600 -24.983  0.00  0.00    +0.035 C 
ATOM      8  C   UNL     1      34.230 -16.170 -24.598  0.00  0.00    +0.224 C 
ATOM      9  C   UNL     1      33.214 -12.217 -23.732  0.00  0.00    +0.110 C 
ATOM     10  C   UNL     1      32.686 -13.172 -22.869  0.00  0.00    +0.125 C 
ATOM     11  C   UNL     1      33.074 -10.899 -23.332  0.00  0.00    +0.198 C 
ATOM     12  C   UNL     1      31.968 -11.527 -21.452  0.00  0.00    +0.210 C 
ENDROOT
BRANCH  11  16
ATOM     13  F   UNL     1      33.564 -10.009 -25.498  0.00  0.00    -0.164 F 
ATOM     14  F   UNL     1      32.997  -8.591 -23.959  0.00  0.00    -0.164 F 
ATOM     15  F   UNL     1      34.949  -9.546 -23.889  0.00  0.00    -0.164 F 
ATOM     16  C   UNL     1      33.633  -9.783 -24.154  0.00  0.00    +0.443 C 
ENDBRANCH  11  16
BRANCH  12  20
ATOM     17  F   UNL     1      31.556  -9.880 -19.767  0.00  0.00    -0.156 F 
ATOM     18  F   UNL     1      29.907 -11.191 -20.285  0.00  0.00    -0.156 F 
ATOM     19  F   UNL     1      31.592 -11.964 -19.146  0.00  0.00    -0.156 F 
ATOM     20  C   UNL     1      31.269 -11.147 -20.191  0.00  0.00    +0.500 C 
ENDBRANCH  12  20
BRANCH   8  21
ATOM     21  C   UNL     1      34.116 -17.196 -23.498  0.00  0.00    +0.065 C 
BRANCH  21  22
ATOM     22  C   UNL     1      35.427 -17.320 -22.720  0.00  0.00    -0.036 C 
BRANCH  22  23
ATOM     23  N   UNL     1      36.119 -18.512 -23.221  0.00  0.00    +0.383 N 
ATOM     24  H   UNL     1      35.500 -19.320 -23.150  0.00  0.00    -0.089 HD
ATOM     25  H   UNL     1      36.958 -18.677 -22.664  0.00  0.00    -0.089 HD
ATOM     26  H   UNL     1      36.382 -18.369 -24.196  0.00  0.00    -0.089 HD
ENDBRANCH  22  23
BRANCH  22  27
ATOM     27  C   UNL     1      35.223 -17.469 -21.205  0.00  0.00    +0.072 C 
BRANCH  27  31
ATOM     28  F   UNL     1      37.614 -21.536 -20.244  0.00  0.00    -0.202 F 
ATOM     29  F   UNL     1      36.427 -20.671 -18.640  0.00  0.00    -0.202 F 
ATOM     30  O   UNL     1      32.877 -18.993 -20.885  0.00  0.00    -0.275 OA
ATOM     31  N   UNL     1      35.193 -18.859 -20.769  0.00  0.00    -0.276 N 
ATOM     32  C   UNL     1      36.492 -19.528 -20.690  0.00  0.00    +0.160 C 
ATOM     33  C   UNL     1      36.467 -20.862 -19.982  0.00  0.00    +0.282 C 
ATOM     34  C   UNL     1      35.283 -21.689 -20.419  0.00  0.00    +0.078 C 
ATOM     35  C   UNL     1      34.004 -20.935 -20.114  0.00  0.00    +0.091 C 
ATOM     36  C   UNL     1      33.970 -19.518 -20.654  0.00  0.00    +0.226 C 
ENDBRANCH  27  31
ENDBRANCH  22  27
ENDBRANCH  21  22
ENDBRANCH   8  21
TORSDOF 7
ENDMDL
MODEL 8
REMARK VINA RESULT:      -9.5      5.334     11.803
REMARK  Name = 11953153
REMARK  7 active torsions:
REMARK  status: ('A' for Active; 'I' for Inactive)
REMARK    1  A    between atoms: C_8  and  C_21
REMARK    2  A    between atoms: C_11  and  C_16
REMARK    3  A    between atoms: C_12  and  C_20
REMARK    4  A    between atoms: C_21  and  C_22
REMARK    5  A    between atoms: C_22  and  N_23
REMARK    6  A    between atoms: C_22  and  C_27
REMARK    7  A    between atoms: C_27  and  N_31
REMARK                            x       y       z     vdW  Elec       q    Type
REMARK                         _______ _______ _______ _____ _____    ______ ____
ROOT
ATOM      1  O   UNL     1      34.485 -14.941 -26.094  0.00  0.00    -0.275 OA
ATOM      2  N   UNL     1      33.247 -13.663 -24.594  0.00  0.00    -0.273 N 
ATOM      3  N   UNL     1      31.838 -12.035 -21.555  0.00  0.00    -0.344 NA
ATOM      4  N   UNL     1      32.355  -9.682 -21.580  0.00  0.00    -0.337 NA
ATOM      5  C   UNL     1      33.219 -12.490 -25.468  0.00  0.00    +0.095 C 
ATOM      6  C   UNL     1      32.485 -13.551 -23.342  0.00  0.00    +0.149 C 
ATOM      7  C   UNL     1      33.731 -11.257 -24.731  0.00  0.00    +0.035 C 
ATOM      8  C   UNL     1      33.844 -14.843 -25.045  0.00  0.00    +0.224 C 
ATOM      9  C   UNL     1      33.028 -11.088 -23.421  0.00  0.00    +0.110 C 
ATOM     10  C   UNL     1      32.456 -12.165 -22.752  0.00  0.00    +0.125 C 
ATOM     11  C   UNL     1      32.955  -9.866 -22.773  0.00  0.00    +0.198 C 
ATOM     12  C   UNL     1      31.823 -10.792 -21.037  0.00  0.00    +0.210 C 
ENDROOT
BRANCH  11  16
ATOM     13  F   UNL     1      33.766  -7.636 -22.470  0.00  0.00    -0.164 F 
ATOM     14  F   UNL     1      34.789  -8.863 -23.936  0.00  0.00    -0.164 F 
ATOM     15  F   UNL     1      32.797  -8.101 -24.359  0.00  0.00    -0.164 F 
ATOM     16  C   UNL     1      33.566  -8.641 -23.372  0.00  0.00    +0.443 C 
ENDBRANCH  11  16
BRANCH  12  20
ATOM     17  F   UNL     1      31.307  -9.387 -19.171  0.00  0.00    -0.156 F 
ATOM     18  F   UNL     1      29.797 -10.827 -19.766  0.00  0.00    -0.156 F 
ATOM     19  F   UNL     1      31.613 -11.504 -18.778  0.00  0.00    -0.156 F 
ATOM     20  C   UNL     1      31.148 -10.629 -19.718  0.00  0.00    +0.500 C 
ENDBRANCH  12  20
BRANCH   8  21
ATOM     21  C   UNL     1      33.683 -16.055 -24.162  0.00  0.00    +0.065 C 
BRANCH  21  22
ATOM     22  C   UNL     1      35.038 -16.568 -23.671  0.00  0.00    -0.036 C 
BRANCH  22  23
ATOM     23  N   UNL     1      35.211 -17.923 -24.205  0.00  0.00    +0.383 N 
ATOM     24  H   UNL     1      35.414 -17.872 -25.203  0.00  0.00    -0.089 HD
ATOM     25  H   UNL     1      34.355 -18.458 -24.059  0.00  0.00    -0.089 HD
ATOM     26  H   UNL     1      35.985 -18.382 -23.723  0.00  0.00    -0.089 HD
ENDBRANCH  22  23
BRANCH  22  27
ATOM     27  C   UNL     1      35.150 -16.622 -22.141  0.00  0.00    +0.072 C 
BRANCH  27  31
ATOM     28  F   UNL     1      32.195 -19.697 -19.906  0.00  0.00    -0.202 F 
ATOM     29  F   UNL     1      32.939 -20.272 -21.867  0.00  0.00    -0.202 F 
ATOM     30  O   UNL     1      37.138 -18.591 -21.817  0.00  0.00    -0.275 OA
ATOM     31  N   UNL     1      34.914 -17.955 -21.601  0.00  0.00    -0.276 N 
ATOM     32  C   UNL     1      33.590 -18.181 -21.022  0.00  0.00    +0.160 C 
ATOM     33  C   UNL     1      33.275 -19.627 -20.722  0.00  0.00    +0.282 C 
ATOM     34  C   UNL     1      34.448 -20.316 -20.069  0.00  0.00    +0.078 C 
ATOM     35  C   UNL     1      35.649 -20.245 -20.990  0.00  0.00    +0.091 C 
ATOM     36  C   UNL     1      35.979 -18.847 -21.479  0.00  0.00    +0.226 C 
ENDBRANCH  27  31
ENDBRANCH  22  27
ENDBRANCH  21  22
ENDBRANCH   8  21
TORSDOF 7
ENDMDL
MODEL 9
REMARK VINA RESULT:      -9.4      5.585      9.175
REMARK  Name = 11953153
REMARK  7 active torsions:
REMARK  status: ('A' for Active; 'I' for Inactive)
REMARK    1  A    between atoms: C_8  and  C_21
REMARK    2  A    between atoms: C_11  and  C_16
REMARK    3  A    between atoms: C_12  and  C_20
REMARK    4  A    between atoms: C_21  and  C_22
REMARK    5  A    between atoms: C_22  and  N_23
REMARK    6  A    between atoms: C_22  and  C_27
REMARK    7  A    between atoms: C_27  and  N_31
REMARK                            x       y       z     vdW  Elec       q    Type
REMARK                         _______ _______ _______ _____ _____    ______ ____
ROOT
ATOM      1  O   UNL     1      32.130 -12.268 -22.830  0.00  0.00    -0.275 OA
ATOM      2  N   UNL     1      33.360 -14.173 -22.309  0.00  0.00    -0.273 N 
ATOM      3  N   UNL     1      34.519 -17.479 -21.042  0.00  0.00    -0.344 NA
ATOM      4  N   UNL     1      34.868 -18.981 -22.892  0.00  0.00    -0.337 NA
ATOM      5  C   UNL     1      33.989 -14.245 -23.629  0.00  0.00    +0.095 C 
ATOM      6  C   UNL     1      33.810 -15.171 -21.327  0.00  0.00    +0.149 C 
ATOM      7  C   UNL     1      33.783 -15.622 -24.249  0.00  0.00    +0.035 C 
ATOM      8  C   UNL     1      32.510 -13.106 -22.009  0.00  0.00    +0.224 C 
ATOM      9  C   UNL     1      34.185 -16.703 -23.296  0.00  0.00    +0.110 C 
ATOM     10  C   UNL     1      34.182 -16.505 -21.919  0.00  0.00    +0.125 C 
ATOM     11  C   UNL     1      34.528 -17.976 -23.723  0.00  0.00    +0.198 C 
ATOM     12  C   UNL     1      34.845 -18.668 -21.584  0.00  0.00    +0.210 C 
ENDROOT
BRANCH  11  16
ATOM     13  F   UNL     1      33.285 -18.333 -25.735  0.00  0.00    -0.164 F 
ATOM     14  F   UNL     1      35.261 -17.463 -25.942  0.00  0.00    -0.164 F 
ATOM     15  F   UNL     1      35.049 -19.562 -25.415  0.00  0.00    -0.164 F 
ATOM     16  C   UNL     1      34.530 -18.325 -25.176  0.00  0.00    +0.443 C 
ENDBRANCH  11  16
BRANCH  12  20
ATOM     17  F   UNL     1      34.219 -20.085 -19.762  0.00  0.00    -0.156 F 
ATOM     18  F   UNL     1      35.560 -20.925 -21.246  0.00  0.00    -0.156 F 
ATOM     19  F   UNL     1      36.288 -19.422 -19.852  0.00  0.00    -0.156 F 
ATOM     20  C   UNL     1      35.218 -19.753 -20.633  0.00  0.00    +0.500 C 
ENDBRANCH  12  20
BRANCH   8  21
ATOM     21  C   UNL     1      32.038 -13.007 -20.579  0.00  0.00    +0.065 C 
BRANCH  21  22
ATOM     22  C   UNL     1      31.993 -11.552 -20.110  0.00  0.00    -0.036 C 
BRANCH  22  23
ATOM     23  N   UNL     1      31.622 -11.562 -18.691  0.00  0.00    +0.383 N 
ATOM     24  H   UNL     1      32.467 -11.527 -18.119  0.00  0.00    -0.089 HD
ATOM     25  H   UNL     1      31.105 -12.415 -18.481  0.00  0.00    -0.089 HD
ATOM     26  H   UNL     1      31.038 -10.751 -18.486  0.00  0.00    -0.089 HD
ENDBRANCH  22  23
BRANCH  22  27
ATOM     27  C   UNL     1      30.974 -10.697 -20.879  0.00  0.00    +0.072 C 
BRANCH  27  31
ATOM     28  F   UNL     1      32.175  -7.676 -24.431  0.00  0.00    -0.202 F 
ATOM     29  F   UNL     1      30.729  -6.973 -22.965  0.00  0.00    -0.202 F 
ATOM     30  O   UNL     1      32.246  -8.874 -19.151  0.00  0.00    -0.275 OA
ATOM     31  N   UNL     1      31.511  -9.406 -21.290  0.00  0.00    -0.276 N 
ATOM     32  C   UNL     1      31.546  -9.162 -22.731  0.00  0.00    +0.160 C 
ATOM     33  C   UNL     1      31.843  -7.732 -23.118  0.00  0.00    +0.282 C 
ATOM     34  C   UNL     1      32.969  -7.166 -22.287  0.00  0.00    +0.078 C 
ATOM     35  C   UNL     1      32.588  -7.221 -20.822  0.00  0.00    +0.091 C 
ATOM     36  C   UNL     1      32.129  -8.586 -20.346  0.00  0.00    +0.226 C 
ENDBRANCH  27  31
ENDBRANCH  22  27
ENDBRANCH  21  22
ENDBRANCH   8  21
TORSDOF 7
ENDMDL
