MODEL 1
REMARK VINA RESULT:      -8.9      0.000      0.000
REMARK  Name = 15143646
REMARK  2 active torsions:
REMARK  status: ('A' for Active; 'I' for Inactive)
REMARK    1  A    between atoms: C_4  and  C_10
REMARK    2  A    between atoms: C_11  and  C_12
REMARK                            x       y       z     vdW  Elec       q    Type
REMARK                         _______ _______ _______ _____ _____    ______ ____
ROOT
ATOM      1  C   UNL     1      33.879 -15.454 -21.628  0.00  0.00    +0.018 C 
ATOM      2  C   UNL     1      33.873 -14.282 -22.647  0.00  0.00    +0.004 C 
ATOM      3  C   UNL     1      33.312 -14.695 -23.996  0.00  0.00    +0.005 C 
ATOM      4  C   UNL     1      34.395 -16.763 -22.270  0.00  0.00    -0.031 C 
ATOM      5  C   UNL     1      34.156 -15.812 -24.591  0.00  0.00    +0.022 C 
ATOM      6  C   UNL     1      34.540 -16.903 -23.611  0.00  0.00    -0.048 C 
ATOM      7  C   UNL     1      32.441 -15.669 -21.100  0.00  0.00    +0.004 C 
ATOM      8  C   UNL     1      34.772 -14.991 -20.451  0.00  0.00    +0.004 C 
ATOM      9  C   UNL     1      35.086 -18.123 -24.318  0.00  0.00    +0.026 C 
ENDROOT
BRANCH   4  10
ATOM     10  C   UNL     1      34.689 -17.844 -21.344  0.00  0.00    -0.005 C 
ATOM     11  C   UNL     1      34.025 -19.000 -21.355  0.00  0.00    -0.005 C 
BRANCH  11  12
ATOM     12  C   UNL     1      34.255 -20.136 -20.459  0.00  0.00    -0.026 C 
ATOM     13  C   UNL     1      33.049 -20.781 -19.827  0.00  0.00    +0.031 C 
ATOM     14  C   UNL     1      35.525 -20.540 -20.245  0.00  0.00    -0.030 C 
ATOM     15  C   UNL     1      36.018 -21.665 -19.391  0.00  0.00    +0.030 C 
ENDBRANCH  11  12
ENDBRANCH   4  10
TORSDOF 2
ENDMDL
MODEL 2
REMARK VINA RESULT:      -7.8      7.021      9.125
REMARK  Name = 15143646
REMARK  2 active torsions:
REMARK  status: ('A' for Active; 'I' for Inactive)
REMARK    1  A    between atoms: C_4  and  C_10
REMARK    2  A    between atoms: C_11  and  C_12
REMARK                            x       y       z     vdW  Elec       q    Type
REMARK                         _______ _______ _______ _____ _____    ______ ____
ROOT
ATOM      1  C   UNL     1      32.922  -7.681 -22.748  0.00  0.00    +0.018 C 
ATOM      2  C   UNL     1      32.359  -6.977 -21.483  0.00  0.00    +0.004 C 
ATOM      3  C   UNL     1      32.580  -7.794 -20.224  0.00  0.00    +0.005 C 
ATOM      4  C   UNL     1      32.557  -9.184 -22.772  0.00  0.00    -0.031 C 
ATOM      5  C   UNL     1      31.881  -9.140 -20.346  0.00  0.00    +0.022 C 
ATOM      6  C   UNL     1      32.062  -9.826 -21.685  0.00  0.00    -0.048 C 
ATOM      7  C   UNL     1      34.460  -7.522 -22.770  0.00  0.00    +0.004 C 
ATOM      8  C   UNL     1      32.331  -6.919 -23.959  0.00  0.00    +0.004 C 
ATOM      9  C   UNL     1      31.630 -11.274 -21.635  0.00  0.00    +0.026 C 
ENDROOT
BRANCH   4  10
ATOM     10  C   UNL     1      32.804  -9.871 -24.029  0.00  0.00    -0.005 C 
ATOM     11  C   UNL     1      33.963 -10.471 -24.303  0.00  0.00    -0.005 C 
BRANCH  11  12
ATOM     12  C   UNL     1      34.294 -11.181 -25.541  0.00  0.00    -0.026 C 
ATOM     13  C   UNL     1      35.482 -10.691 -26.329  0.00  0.00    +0.031 C 
ATOM     14  C   UNL     1      33.523 -12.225 -25.912  0.00  0.00    -0.030 C 
ATOM     15  C   UNL     1      33.656 -13.107 -27.112  0.00  0.00    +0.030 C 
ENDBRANCH  11  12
ENDBRANCH   4  10
TORSDOF 2
ENDMDL
MODEL 3
REMARK VINA RESULT:      -7.8      2.620      6.544
REMARK  Name = 15143646
REMARK  2 active torsions:
REMARK  status: ('A' for Active; 'I' for Inactive)
REMARK    1  A    between atoms: C_4  and  C_10
REMARK    2  A    between atoms: C_11  and  C_12
REMARK                            x       y       z     vdW  Elec       q    Type
REMARK                         _______ _______ _______ _____ _____    ______ ____
ROOT
ATOM      1  C   UNL     1      33.561 -15.628 -21.494  0.00  0.00    +0.018 C 
ATOM      2  C   UNL     1      34.223 -16.974 -21.896  0.00  0.00    +0.004 C 
ATOM      3  C   UNL     1      35.221 -16.809 -23.028  0.00  0.00    +0.005 C 
ATOM      4  C   UNL     1      33.137 -14.809 -22.736  0.00  0.00    -0.031 C 
ATOM      5  C   UNL     1      34.523 -16.258 -24.262  0.00  0.00    +0.022 C 
ATOM      6  C   UNL     1      33.559 -15.121 -23.987  0.00  0.00    -0.048 C 
ATOM      7  C   UNL     1      34.564 -14.806 -20.651  0.00  0.00    +0.004 C 
ATOM      8  C   UNL     1      32.353 -15.997 -20.599  0.00  0.00    +0.004 C 
ATOM      9  C   UNL     1      33.153 -14.411 -25.258  0.00  0.00    +0.026 C 
ENDROOT
BRANCH   4  10
ATOM     10  C   UNL     1      32.277 -13.667 -22.472  0.00  0.00    -0.005 C 
ATOM     11  C   UNL     1      32.711 -12.409 -22.552  0.00  0.00    -0.005 C 
BRANCH  11  12
ATOM     12  C   UNL     1      31.915 -11.205 -22.302  0.00  0.00    -0.026 C 
ATOM     13  C   UNL     1      30.808 -11.300 -21.283  0.00  0.00    +0.031 C 
ATOM     14  C   UNL     1      32.207 -10.083 -22.994  0.00  0.00    -0.030 C 
ATOM     15  C   UNL     1      31.555  -8.739 -22.916  0.00  0.00    +0.030 C 
ENDBRANCH  11  12
ENDBRANCH   4  10
TORSDOF 2
ENDMDL
MODEL 4
REMARK VINA RESULT:      -7.8      2.021      6.202
REMARK  Name = 15143646
REMARK  2 active torsions:
REMARK  status: ('A' for Active; 'I' for Inactive)
REMARK    1  A    between atoms: C_4  and  C_10
REMARK    2  A    between atoms: C_11  and  C_12
REMARK                            x       y       z     vdW  Elec       q    Type
REMARK                         _______ _______ _______ _____ _____    ______ ____
ROOT
ATOM      1  C   UNL     1      33.804 -15.908 -21.460  0.00  0.00    +0.018 C 
ATOM      2  C   UNL     1      34.153 -17.357 -21.024  0.00  0.00    +0.004 C 
ATOM      3  C   UNL     1      35.416 -17.870 -21.692  0.00  0.00    +0.005 C 
ATOM      4  C   UNL     1      33.958 -15.720 -22.987  0.00  0.00    -0.031 C 
ATOM      5  C   UNL     1      35.241 -17.877 -23.203  0.00  0.00    +0.022 C 
ATOM      6  C   UNL     1      34.588 -16.632 -23.769  0.00  0.00    -0.048 C 
ATOM      7  C   UNL     1      34.738 -14.922 -20.721  0.00  0.00    +0.004 C 
ATOM      8  C   UNL     1      32.351 -15.658 -20.986  0.00  0.00    +0.004 C 
ATOM      9  C   UNL     1      34.737 -16.555 -25.271  0.00  0.00    +0.026 C 
ENDROOT
BRANCH   4  10
ATOM     10  C   UNL     1      33.406 -14.488 -23.528  0.00  0.00    -0.005 C 
ATOM     11  C   UNL     1      34.111 -13.360 -23.607  0.00  0.00    -0.005 C 
BRANCH  11  12
ATOM     12  C   UNL     1      33.633 -12.079 -24.134  0.00  0.00    -0.026 C 
ATOM     13  C   UNL     1      33.774 -11.840 -25.615  0.00  0.00    +0.031 C 
ATOM     14  C   UNL     1      33.099 -11.186 -23.274  0.00  0.00    -0.030 C 
ATOM     15  C   UNL     1      32.540  -9.829 -23.561  0.00  0.00    +0.030 C 
ENDBRANCH  11  12
ENDBRANCH   4  10
TORSDOF 2
ENDMDL
MODEL 5
REMARK VINA RESULT:      -7.7      7.664     10.330
REMARK  Name = 15143646
REMARK  2 active torsions:
REMARK  status: ('A' for Active; 'I' for Inactive)
REMARK    1  A    between atoms: C_4  and  C_10
REMARK    2  A    between atoms: C_11  and  C_12
REMARK                            x       y       z     vdW  Elec       q    Type
REMARK                         _______ _______ _______ _____ _____    ______ ____
ROOT
ATOM      1  C   UNL     1      31.641  -5.857 -23.795  0.00  0.00    +0.018 C 
ATOM      2  C   UNL     1      32.214  -4.799 -24.777  0.00  0.00    +0.004 C 
ATOM      3  C   UNL     1      33.063  -5.427 -25.867  0.00  0.00    +0.005 C 
ATOM      4  C   UNL     1      32.713  -6.895 -23.387  0.00  0.00    -0.031 C 
ATOM      5  C   UNL     1      34.243  -6.163 -25.250  0.00  0.00    +0.022 C 
ATOM      6  C   UNL     1      33.898  -7.006 -24.038  0.00  0.00    -0.048 C 
ATOM      7  C   UNL     1      30.453  -6.580 -24.471  0.00  0.00    +0.004 C 
ATOM      8  C   UNL     1      31.105  -5.064 -22.578  0.00  0.00    +0.004 C 
ATOM      9  C   UNL     1      35.020  -7.951 -23.675  0.00  0.00    +0.026 C 
ENDROOT
BRANCH   4  10
ATOM     10  C   UNL     1      32.357  -7.763 -22.276  0.00  0.00    -0.005 C 
ATOM     11  C   UNL     1      32.004  -9.037 -22.446  0.00  0.00    -0.005 C 
BRANCH  11  12
ATOM     12  C   UNL     1      31.631  -9.977 -21.386  0.00  0.00    -0.026 C 
ATOM     13  C   UNL     1      30.978 -11.271 -21.800  0.00  0.00    +0.031 C 
ATOM     14  C   UNL     1      31.885  -9.638 -20.104  0.00  0.00    -0.030 C 
ATOM     15  C   UNL     1      31.611 -10.417 -18.858  0.00  0.00    +0.030 C 
ENDBRANCH  11  12
ENDBRANCH   4  10
TORSDOF 2
ENDMDL
MODEL 6
REMARK VINA RESULT:      -7.5      4.677      7.564
REMARK  Name = 15143646
REMARK  2 active torsions:
REMARK  status: ('A' for Active; 'I' for Inactive)
REMARK    1  A    between atoms: C_4  and  C_10
REMARK    2  A    between atoms: C_11  and  C_12
REMARK                            x       y       z     vdW  Elec       q    Type
REMARK                         _______ _______ _______ _____ _____    ______ ____
ROOT
ATOM      1  C   UNL     1      32.347  -9.210 -22.580  0.00  0.00    +0.018 C 
ATOM      2  C   UNL     1      32.981  -7.945 -21.939  0.00  0.00    +0.004 C 
ATOM      3  C   UNL     1      33.678  -7.070 -22.964  0.00  0.00    +0.005 C 
ATOM      4  C   UNL     1      33.310  -9.881 -23.588  0.00  0.00    -0.031 C 
ATOM      5  C   UNL     1      34.797  -7.848 -23.640  0.00  0.00    +0.022 C 
ATOM      6  C   UNL     1      34.429  -9.263 -24.040  0.00  0.00    -0.048 C 
ATOM      7  C   UNL     1      31.040  -8.808 -23.302  0.00  0.00    +0.004 C 
ATOM      8  C   UNL     1      31.989 -10.151 -21.403  0.00  0.00    +0.004 C 
ATOM      9  C   UNL     1      35.450  -9.862 -24.981  0.00  0.00    +0.026 C 
ENDROOT
BRANCH   4  10
ATOM     10  C   UNL     1      32.922 -11.207 -24.040  0.00  0.00    -0.005 C 
ATOM     11  C   UNL     1      33.669 -12.288 -23.816  0.00  0.00    -0.005 C 
BRANCH  11  12
ATOM     12  C   UNL     1      33.355 -13.656 -24.237  0.00  0.00    -0.026 C 
ATOM     13  C   UNL     1      33.218 -14.702 -23.161  0.00  0.00    +0.031 C 
ATOM     14  C   UNL     1      33.209 -13.908 -25.555  0.00  0.00    -0.030 C 
ATOM     15  C   UNL     1      32.883 -15.202 -26.230  0.00  0.00    +0.030 C 
ENDBRANCH  11  12
ENDBRANCH   4  10
TORSDOF 2
ENDMDL
MODEL 7
REMARK VINA RESULT:      -7.4      1.154      3.110
REMARK  Name = 15143646
REMARK  2 active torsions:
REMARK  status: ('A' for Active; 'I' for Inactive)
REMARK    1  A    between atoms: C_4  and  C_10
REMARK    2  A    between atoms: C_11  and  C_12
REMARK                            x       y       z     vdW  Elec       q    Type
REMARK                         _______ _______ _______ _____ _____    ______ ____
ROOT
ATOM      1  C   UNL     1      35.012 -18.091 -23.250  0.00  0.00    +0.018 C 
ATOM      2  C   UNL     1      34.894 -16.934 -24.279  0.00  0.00    +0.004 C 
ATOM      3  C   UNL     1      34.970 -15.569 -23.620  0.00  0.00    +0.005 C 
ATOM      4  C   UNL     1      34.145 -17.830 -21.997  0.00  0.00    -0.031 C 
ATOM      5  C   UNL     1      33.835 -15.408 -22.620  0.00  0.00    +0.022 C 
ATOM      6  C   UNL     1      33.596 -16.617 -21.736  0.00  0.00    -0.048 C 
ATOM      7  C   UNL     1      36.493 -18.243 -22.832  0.00  0.00    +0.004 C 
ATOM      8  C   UNL     1      34.579 -19.375 -24.000  0.00  0.00    +0.004 C 
ATOM      9  C   UNL     1      32.696 -16.287 -20.568  0.00  0.00    +0.026 C 
ENDROOT
BRANCH   4  10
ATOM     10  C   UNL     1      33.978 -18.962 -21.100  0.00  0.00    -0.005 C 
ATOM     11  C   UNL     1      34.998 -19.730 -20.716  0.00  0.00    -0.005 C 
BRANCH  11  12
ATOM     12  C   UNL     1      34.917 -20.886 -19.820  0.00  0.00    -0.026 C 
ATOM     13  C   UNL     1      36.211 -21.466 -19.312  0.00  0.00    +0.031 C 
ATOM     14  C   UNL     1      33.698 -21.371 -19.502  0.00  0.00    -0.030 C 
ATOM     15  C   UNL     1      33.352 -22.522 -18.612  0.00  0.00    +0.030 C 
ENDBRANCH  11  12
ENDBRANCH   4  10
TORSDOF 2
ENDMDL
MODEL 8
REMARK VINA RESULT:      -7.3      1.781      5.737
REMARK  Name = 15143646
REMARK  2 active torsions:
REMARK  status: ('A' for Active; 'I' for Inactive)
REMARK    1  A    between atoms: C_4  and  C_10
REMARK    2  A    between atoms: C_11  and  C_12
REMARK                            x       y       z     vdW  Elec       q    Type
REMARK                         _______ _______ _______ _____ _____    ______ ____
ROOT
ATOM      1  C   UNL     1      34.105 -17.163 -21.500  0.00  0.00    +0.018 C 
ATOM      2  C   UNL     1      33.860 -18.695 -21.558  0.00  0.00    +0.004 C 
ATOM      3  C   UNL     1      34.844 -19.400 -22.475  0.00  0.00    +0.005 C 
ATOM      4  C   UNL     1      34.352 -16.572 -22.907  0.00  0.00    -0.031 C 
ATOM      5  C   UNL     1      34.712 -18.863 -23.892  0.00  0.00    +0.022 C 
ATOM      6  C   UNL     1      34.600 -17.354 -23.987  0.00  0.00    -0.048 C 
ATOM      7  C   UNL     1      35.331 -16.883 -20.599  0.00  0.00    +0.004 C 
ATOM      8  C   UNL     1      32.850 -16.556 -20.825  0.00  0.00    +0.004 C 
ATOM      9  C   UNL     1      34.799 -16.867 -25.404  0.00  0.00    +0.026 C 
ENDROOT
BRANCH   4  10
ATOM     10  C   UNL     1      34.328 -15.121 -22.994  0.00  0.00    -0.005 C 
ATOM     11  C   UNL     1      33.239 -14.442 -23.357  0.00  0.00    -0.005 C 
BRANCH  11  12
ATOM     12  C   UNL     1      33.130 -12.985 -23.471  0.00  0.00    -0.026 C 
ATOM     13  C   UNL     1      32.186 -12.282 -22.529  0.00  0.00    +0.031 C 
ATOM     14  C   UNL     1      33.870 -12.354 -24.406  0.00  0.00    -0.030 C 
ATOM     15  C   UNL     1      33.942 -10.892 -24.713  0.00  0.00    +0.030 C 
ENDBRANCH  11  12
ENDBRANCH   4  10
TORSDOF 2
ENDMDL
MODEL 9
REMARK VINA RESULT:      -7.2      5.069      9.645
REMARK  Name = 15143646
REMARK  2 active torsions:
REMARK  status: ('A' for Active; 'I' for Inactive)
REMARK    1  A    between atoms: C_4  and  C_10
REMARK    2  A    between atoms: C_11  and  C_12
REMARK                            x       y       z     vdW  Elec       q    Type
REMARK                         _______ _______ _______ _____ _____    ______ ____
ROOT
ATOM      1  C   UNL     1      30.165 -23.665 -15.622  0.00  0.00    +0.018 C 
ATOM      2  C   UNL     1      29.879 -24.805 -14.607  0.00  0.00    +0.004 C 
ATOM      3  C   UNL     1      30.770 -24.720 -13.380  0.00  0.00    +0.005 C 
ATOM      4  C   UNL     1      31.684 -23.454 -15.828  0.00  0.00    -0.031 C 
ATOM      5  C   UNL     1      32.231 -24.829 -13.789  0.00  0.00    +0.022 C 
ATOM      6  C   UNL     1      32.610 -24.008 -15.006  0.00  0.00    -0.048 C 
ATOM      7  C   UNL     1      29.528 -22.356 -15.102  0.00  0.00    +0.004 C 
ATOM      8  C   UNL     1      29.451 -24.073 -16.934  0.00  0.00    +0.004 C 
ATOM      9  C   UNL     1      34.109 -23.899 -15.163  0.00  0.00    +0.026 C 
ENDROOT
BRANCH   4  10
ATOM     10  C   UNL     1      32.054 -22.602 -16.946  0.00  0.00    -0.005 C 
ATOM     11  C   UNL     1      33.080 -22.879 -17.751  0.00  0.00    -0.005 C 
BRANCH  11  12
ATOM     12  C   UNL     1      33.520 -22.076 -18.894  0.00  0.00    -0.026 C 
ATOM     13  C   UNL     1      34.893 -22.351 -19.452  0.00  0.00    +0.031 C 
ATOM     14  C   UNL     1      32.683 -21.136 -19.383  0.00  0.00    -0.030 C 
ATOM     15  C   UNL     1      32.892 -20.203 -20.533  0.00  0.00    +0.030 C 
ENDBRANCH  11  12
ENDBRANCH   4  10
TORSDOF 2
ENDMDL
