MODEL 1
REMARK VINA RESULT:      -8.9      0.000      0.000
REMARK  Name = 90489020
REMARK  9 active torsions:
REMARK  status: ('A' for Active; 'I' for Inactive)
REMARK    1  A    between atoms: C_1  and  C_2
REMARK    2  A    between atoms: C_1  and  C_14
REMARK    3  A    between atoms: C_3  and  O_8
REMARK    4  A    between atoms: C_5  and  O_10
REMARK    5  A    between atoms: C_7  and  C_13
REMARK    6  A    between atoms: C_14  and  N_15
REMARK    7  A    between atoms: N_15  and  C_18
REMARK    8  A    between atoms: C_18  and  C_19
REMARK    9  A    between atoms: C_20  and  O_25
REMARK                            x       y       z     vdW  Elec       q    Type
REMARK                         _______ _______ _______ _____ _____    ______ ____
ROOT
ATOM      1  C   UNL     1      34.404 -23.097 -17.321  0.00  0.00    +0.006 C 
ENDROOT
BRANCH   1   2
ATOM      2  C   UNL     1      34.620 -23.483 -15.895  0.00  0.00    +0.013 C 
ATOM      3  C   UNL     1      35.908 -23.572 -15.368  0.00  0.00    +0.135 C 
ATOM      4  C   UNL     1      33.515 -23.756 -15.087  0.00  0.00    +0.036 C 
ATOM      5  C   UNL     1      33.699 -24.117 -13.753  0.00  0.00    +0.148 C 
ATOM      6  C   UNL     1      36.092 -23.934 -14.034  0.00  0.00    +0.050 C 
ATOM      7  C   UNL     1      34.988 -24.207 -13.226  0.00  0.00    +0.105 C 
BRANCH   3   8
ATOM      8  O   UNL     1      36.997 -23.310 -16.144  0.00  0.00    -0.472 OA
ATOM      9  C   UNL     1      37.507 -21.978 -16.113  0.00  0.00    +0.252 C 
ENDBRANCH   3   8
BRANCH   5  10
ATOM     10  O   UNL     1      32.603 -24.379 -12.985  0.00  0.00    -0.471 OA
ATOM     11  C   UNL     1      31.541 -25.104 -13.602  0.00  0.00    +0.252 C 
ENDBRANCH   5  10
BRANCH   7  13
ATOM     12  N   UNL     1      35.368 -24.876 -10.752  0.00  0.00    -0.191 NA
ATOM     13  C   UNL     1      35.198 -24.576 -11.859  0.00  0.00    +0.104 C 
ENDBRANCH   7  13
ENDBRANCH   1   2
BRANCH   1  14
ATOM     14  C   UNL     1      32.932 -22.781 -17.616  0.00  0.00    -0.076 C 
BRANCH  14  15
ATOM     15  N   UNL     1      32.786 -22.002 -18.841  0.00  0.00    +0.387 N 
ATOM     16  H   UNL     1      32.732 -21.011 -18.601  0.00  0.00    -0.084 HD
ATOM     17  H   UNL     1      31.935 -22.299 -19.318  0.00  0.00    -0.084 HD
BRANCH  15  18
ATOM     18  C   UNL     1      33.918 -22.215 -19.729  0.00  0.00    -0.051 C 
BRANCH  18  19
ATOM     19  C   UNL     1      34.494 -20.917 -20.226  0.00  0.00    -0.010 C 
ATOM     20  C   UNL     1      33.671 -19.935 -20.776  0.00  0.00    +0.128 C 
ATOM     21  C   UNL     1      35.870 -20.702 -20.133  0.00  0.00    -0.003 C 
ATOM     22  C   UNL     1      34.221 -18.737 -21.232  0.00  0.00    +0.036 C 
ATOM     23  C   UNL     1      36.420 -19.504 -20.589  0.00  0.00    -0.000 C 
ATOM     24  C   UNL     1      35.597 -18.522 -21.139  0.00  0.00    +0.003 C 
BRANCH  20  25
ATOM     25  O   UNL     1      32.326 -20.130 -20.876  0.00  0.00    -0.506 OA
ATOM     26  H   UNL     1      31.902 -20.763 -20.331  0.00  0.00    +0.292 HD
ENDBRANCH  20  25
ENDBRANCH  18  19
ENDBRANCH  15  18
ENDBRANCH  14  15
ENDBRANCH   1  14
TORSDOF 9
ENDMDL
MODEL 2
REMARK VINA RESULT:      -8.9      1.768      3.111
REMARK  Name = 90489020
REMARK  9 active torsions:
REMARK  status: ('A' for Active; 'I' for Inactive)
REMARK    1  A    between atoms: C_1  and  C_2
REMARK    2  A    between atoms: C_1  and  C_14
REMARK    3  A    between atoms: C_3  and  O_8
REMARK    4  A    between atoms: C_5  and  O_10
REMARK    5  A    between atoms: C_7  and  C_13
REMARK    6  A    between atoms: C_14  and  N_15
REMARK    7  A    between atoms: N_15  and  C_18
REMARK    8  A    between atoms: C_18  and  C_19
REMARK    9  A    between atoms: C_20  and  O_25
REMARK                            x       y       z     vdW  Elec       q    Type
REMARK                         _______ _______ _______ _____ _____    ______ ____
ROOT
ATOM      1  C   UNL     1      35.534 -22.727 -16.613  0.00  0.00    +0.006 C 
ENDROOT
BRANCH   1   2
ATOM      2  C   UNL     1      35.512 -23.175 -15.188  0.00  0.00    +0.013 C 
ATOM      3  C   UNL     1      34.312 -23.519 -14.568  0.00  0.00    +0.135 C 
ATOM      4  C   UNL     1      36.711 -23.247 -14.478  0.00  0.00    +0.036 C 
ATOM      5  C   UNL     1      36.709 -23.664 -13.147  0.00  0.00    +0.148 C 
ATOM      6  C   UNL     1      34.309 -23.936 -13.237  0.00  0.00    +0.050 C 
ATOM      7  C   UNL     1      35.507 -24.008 -12.526  0.00  0.00    +0.105 C 
BRANCH   3   8
ATOM      8  O   UNL     1      33.133 -23.453 -15.247  0.00  0.00    -0.472 OA
ATOM      9  C   UNL     1      31.963 -23.160 -14.486  0.00  0.00    +0.252 C 
ENDBRANCH   3   8
BRANCH   5  10
ATOM     10  O   UNL     1      37.894 -23.725 -12.475  0.00  0.00    -0.471 OA
ATOM     11  C   UNL     1      38.757 -24.816 -12.787  0.00  0.00    +0.252 C 
ENDBRANCH   5  10
BRANCH   7  13
ATOM     12  N   UNL     1      35.468 -24.787 -10.055  0.00  0.00    -0.191 NA
ATOM     13  C   UNL     1      35.484 -24.438 -11.161  0.00  0.00    +0.104 C 
ENDBRANCH   7  13
ENDBRANCH   1   2
BRANCH   1  14
ATOM     14  C   UNL     1      36.804 -21.934 -16.948  0.00  0.00    -0.076 C 
BRANCH  14  15
ATOM     15  N   UNL     1      36.697 -21.276 -18.246  0.00  0.00    +0.387 N 
ATOM     16  H   UNL     1      37.600 -21.322 -18.718  0.00  0.00    -0.084 HD
ATOM     17  H   UNL     1      36.422 -20.304 -18.097  0.00  0.00    -0.084 HD
BRANCH  15  18
ATOM     18  C   UNL     1      35.692 -21.923 -19.075  0.00  0.00    -0.051 C 
BRANCH  18  19
ATOM     19  C   UNL     1      34.895 -20.926 -19.871  0.00  0.00    -0.010 C 
ATOM     20  C   UNL     1      33.500 -20.965 -19.874  0.00  0.00    +0.128 C 
ATOM     21  C   UNL     1      35.566 -19.954 -20.614  0.00  0.00    -0.003 C 
ATOM     22  C   UNL     1      32.777 -20.033 -20.618  0.00  0.00    +0.036 C 
ATOM     23  C   UNL     1      34.842 -19.022 -21.358  0.00  0.00    -0.000 C 
ATOM     24  C   UNL     1      33.448 -19.061 -21.361  0.00  0.00    +0.003 C 
BRANCH  20  25
ATOM     25  O   UNL     1      32.829 -21.909 -19.156  0.00  0.00    -0.506 OA
ATOM     26  H   UNL     1      33.042 -22.051 -18.255  0.00  0.00    +0.292 HD
ENDBRANCH  20  25
ENDBRANCH  18  19
ENDBRANCH  15  18
ENDBRANCH  14  15
ENDBRANCH   1  14
TORSDOF 9
ENDMDL
MODEL 3
REMARK VINA RESULT:      -8.8      6.105     11.419
REMARK  Name = 90489020
REMARK  9 active torsions:
REMARK  status: ('A' for Active; 'I' for Inactive)
REMARK    1  A    between atoms: C_1  and  C_2
REMARK    2  A    between atoms: C_1  and  C_14
REMARK    3  A    between atoms: C_3  and  O_8
REMARK    4  A    between atoms: C_5  and  O_10
REMARK    5  A    between atoms: C_7  and  C_13
REMARK    6  A    between atoms: C_14  and  N_15
REMARK    7  A    between atoms: N_15  and  C_18
REMARK    8  A    between atoms: C_18  and  C_19
REMARK    9  A    between atoms: C_20  and  O_25
REMARK                            x       y       z     vdW  Elec       q    Type
REMARK                         _______ _______ _______ _____ _____    ______ ____
ROOT
ATOM      1  C   UNL     1      32.750 -15.397 -21.428  0.00  0.00    +0.006 C 
ENDROOT
BRANCH   1   2
ATOM      2  C   UNL     1      32.706 -13.991 -21.930  0.00  0.00    +0.013 C 
ATOM      3  C   UNL     1      33.375 -13.631 -23.100  0.00  0.00    +0.135 C 
ATOM      4  C   UNL     1      31.985 -13.034 -21.216  0.00  0.00    +0.036 C 
ATOM      5  C   UNL     1      31.933 -11.716 -21.671  0.00  0.00    +0.148 C 
ATOM      6  C   UNL     1      33.323 -12.313 -23.555  0.00  0.00    +0.050 C 
ATOM      7  C   UNL     1      32.603 -11.356 -22.841  0.00  0.00    +0.105 C 
BRANCH   3   8
ATOM      8  O   UNL     1      34.083 -14.554 -23.809  0.00  0.00    -0.472 OA
ATOM      9  C   UNL     1      33.472 -15.072 -24.988  0.00  0.00    +0.252 C 
ENDBRANCH   3   8
BRANCH   5  10
ATOM     10  O   UNL     1      31.222 -10.800 -20.953  0.00  0.00    -0.471 OA
ATOM     11  C   UNL     1      31.303 -10.889 -19.533  0.00  0.00    +0.252 C 
ENDBRANCH   5  10
BRANCH   7  13
ATOM     12  N   UNL     1      32.528  -8.918 -23.715  0.00  0.00    -0.191 NA
ATOM     13  C   UNL     1      32.561 -10.010 -23.324  0.00  0.00    +0.104 C 
ENDBRANCH   7  13
ENDBRANCH   1   2
BRANCH   1  14
ATOM     14  C   UNL     1      34.002 -15.667 -20.584  0.00  0.00    -0.076 C 
BRANCH  14  15
ATOM     15  N   UNL     1      34.989 -16.447 -21.325  0.00  0.00    +0.387 N 
ATOM     16  H   UNL     1      35.677 -16.821 -20.671  0.00  0.00    -0.084 HD
ATOM     17  H   UNL     1      35.441 -15.838 -22.007  0.00  0.00    -0.084 HD
BRANCH  15  18
ATOM     18  C   UNL     1      34.354 -17.550 -22.031  0.00  0.00    -0.051 C 
BRANCH  18  19
ATOM     19  C   UNL     1      34.408 -18.828 -21.239  0.00  0.00    -0.010 C 
ATOM     20  C   UNL     1      35.630 -19.418 -20.917  0.00  0.00    +0.128 C 
ATOM     21  C   UNL     1      33.216 -19.425 -20.827  0.00  0.00    -0.003 C 
ATOM     22  C   UNL     1      35.662 -20.603 -20.183  0.00  0.00    +0.036 C 
ATOM     23  C   UNL     1      33.248 -20.610 -20.092  0.00  0.00    -0.000 C 
ATOM     24  C   UNL     1      34.470 -21.200 -19.770  0.00  0.00    +0.003 C 
BRANCH  20  25
ATOM     25  O   UNL     1      36.803 -18.849 -21.314  0.00  0.00    -0.506 OA
ATOM     26  H   UNL     1      37.261 -19.189 -22.057  0.00  0.00    +0.292 HD
ENDBRANCH  20  25
ENDBRANCH  18  19
ENDBRANCH  15  18
ENDBRANCH  14  15
ENDBRANCH   1  14
TORSDOF 9
ENDMDL
MODEL 4
REMARK VINA RESULT:      -8.8      4.994     11.036
REMARK  Name = 90489020
REMARK  9 active torsions:
REMARK  status: ('A' for Active; 'I' for Inactive)
REMARK    1  A    between atoms: C_1  and  C_2
REMARK    2  A    between atoms: C_1  and  C_14
REMARK    3  A    between atoms: C_3  and  O_8
REMARK    4  A    between atoms: C_5  and  O_10
REMARK    5  A    between atoms: C_7  and  C_13
REMARK    6  A    between atoms: C_14  and  N_15
REMARK    7  A    between atoms: N_15  and  C_18
REMARK    8  A    between atoms: C_18  and  C_19
REMARK    9  A    between atoms: C_20  and  O_25
REMARK                            x       y       z     vdW  Elec       q    Type
REMARK                         _______ _______ _______ _____ _____    ______ ____
ROOT
ATOM      1  C   UNL     1      33.717 -15.449 -21.028  0.00  0.00    +0.006 C 
ENDROOT
BRANCH   1   2
ATOM      2  C   UNL     1      33.538 -15.002 -22.442  0.00  0.00    +0.013 C 
ATOM      3  C   UNL     1      32.939 -13.776 -22.731  0.00  0.00    +0.135 C 
ATOM      4  C   UNL     1      33.979 -15.825 -23.478  0.00  0.00    +0.036 C 
ATOM      5  C   UNL     1      33.819 -15.423 -24.804  0.00  0.00    +0.148 C 
ATOM      6  C   UNL     1      32.779 -13.374 -24.057  0.00  0.00    +0.050 C 
ATOM      7  C   UNL     1      33.219 -14.197 -25.093  0.00  0.00    +0.105 C 
BRANCH   3   8
ATOM      8  O   UNL     1      32.503 -12.961 -21.730  0.00  0.00    -0.472 OA
ATOM      9  C   UNL     1      31.740 -11.819 -22.113  0.00  0.00    +0.252 C 
ENDBRANCH   3   8
BRANCH   5  10
ATOM     10  O   UNL     1      34.258 -16.247 -25.798  0.00  0.00    -0.471 OA
ATOM     11  C   UNL     1      34.581 -17.586 -25.432  0.00  0.00    +0.252 C 
ENDBRANCH   5  10
BRANCH   7  13
ATOM     12  N   UNL     1      32.906 -13.417 -27.545  0.00  0.00    -0.191 NA
ATOM     13  C   UNL     1      33.047 -13.767 -26.448  0.00  0.00    +0.104 C 
ENDBRANCH   7  13
ENDBRANCH   1   2
BRANCH   1  14
ATOM     14  C   UNL     1      34.648 -16.664 -20.922  0.00  0.00    -0.076 C 
BRANCH  14  15
ATOM     15  N   UNL     1      33.904 -17.917 -21.006  0.00  0.00    +0.387 N 
ATOM     16  H   UNL     1      33.124 -17.798 -21.654  0.00  0.00    -0.084 HD
ATOM     17  H   UNL     1      33.560 -18.156 -20.076  0.00  0.00    -0.084 HD
BRANCH  15  18
ATOM     18  C   UNL     1      34.757 -18.996 -21.480  0.00  0.00    -0.051 C 
BRANCH  18  19
ATOM     19  C   UNL     1      34.779 -20.156 -20.521  0.00  0.00    -0.010 C 
ATOM     20  C   UNL     1      33.596 -20.785 -20.135  0.00  0.00    +0.128 C 
ATOM     21  C   UNL     1      36.002 -20.598 -20.015  0.00  0.00    -0.003 C 
ATOM     22  C   UNL     1      33.634 -21.858 -19.245  0.00  0.00    +0.036 C 
ATOM     23  C   UNL     1      36.040 -21.672 -19.125  0.00  0.00    -0.000 C 
ATOM     24  C   UNL     1      34.857 -22.301 -18.739  0.00  0.00    +0.003 C 
BRANCH  20  25
ATOM     25  O   UNL     1      32.393 -20.363 -20.617  0.00  0.00    -0.506 OA
ATOM     26  H   UNL     1      31.611 -20.515 -20.124  0.00  0.00    +0.292 HD
ENDBRANCH  20  25
ENDBRANCH  18  19
ENDBRANCH  15  18
ENDBRANCH  14  15
ENDBRANCH   1  14
TORSDOF 9
ENDMDL
MODEL 5
REMARK VINA RESULT:      -8.8      2.171      3.036
REMARK  Name = 90489020
REMARK  9 active torsions:
REMARK  status: ('A' for Active; 'I' for Inactive)
REMARK    1  A    between atoms: C_1  and  C_2
REMARK    2  A    between atoms: C_1  and  C_14
REMARK    3  A    between atoms: C_3  and  O_8
REMARK    4  A    between atoms: C_5  and  O_10
REMARK    5  A    between atoms: C_7  and  C_13
REMARK    6  A    between atoms: C_14  and  N_15
REMARK    7  A    between atoms: N_15  and  C_18
REMARK    8  A    between atoms: C_18  and  C_19
REMARK    9  A    between atoms: C_20  and  O_25
REMARK                            x       y       z     vdW  Elec       q    Type
REMARK                         _______ _______ _______ _____ _____    ______ ____
ROOT
ATOM      1  C   UNL     1      34.447 -21.970 -19.451  0.00  0.00    +0.006 C 
ENDROOT
BRANCH   1   2
ATOM      2  C   UNL     1      34.207 -22.492 -18.073  0.00  0.00    +0.013 C 
ATOM      3  C   UNL     1      35.259 -22.616 -17.165  0.00  0.00    +0.135 C 
ATOM      4  C   UNL     1      32.915 -22.859 -17.697  0.00  0.00    +0.036 C 
ATOM      5  C   UNL     1      32.674 -23.348 -16.414  0.00  0.00    +0.148 C 
ATOM      6  C   UNL     1      35.018 -23.106 -15.882  0.00  0.00    +0.050 C 
ATOM      7  C   UNL     1      33.727 -23.472 -15.506  0.00  0.00    +0.105 C 
BRANCH   3   8
ATOM      8  O   UNL     1      36.527 -22.263 -17.517  0.00  0.00    -0.472 OA
ATOM      9  C   UNL     1      37.315 -21.608 -16.525  0.00  0.00    +0.252 C 
ENDBRANCH   3   8
BRANCH   5  10
ATOM     10  O   UNL     1      31.402 -23.700 -16.072  0.00  0.00    -0.471 OA
ATOM     11  C   UNL     1      30.360 -22.802 -16.449  0.00  0.00    +0.252 C 
ENDBRANCH   5  10
BRANCH   7  13
ATOM     12  N   UNL     1      33.317 -24.378 -13.113  0.00  0.00    -0.191 NA
ATOM     13  C   UNL     1      33.499 -23.972 -14.184  0.00  0.00    +0.104 C 
ENDBRANCH   7  13
ENDBRANCH   1   2
BRANCH   1  14
ATOM     14  C   UNL     1      33.242 -21.185 -19.987  0.00  0.00    -0.076 C 
BRANCH  14  15
ATOM     15  N   UNL     1      33.627 -19.848 -20.427  0.00  0.00    +0.387 N 
ATOM     16  H   UNL     1      33.784 -19.259 -19.608  0.00  0.00    -0.084 HD
ATOM     17  H   UNL     1      32.876 -19.465 -21.002  0.00  0.00    -0.084 HD
BRANCH  15  18
ATOM     18  C   UNL     1      34.845 -19.894 -21.222  0.00  0.00    -0.051 C 
BRANCH  18  19
ATOM     19  C   UNL     1      34.872 -18.816 -22.271  0.00  0.00    -0.010 C 
ATOM     20  C   UNL     1      35.052 -17.479 -21.917  0.00  0.00    +0.128 C 
ATOM     21  C   UNL     1      34.711 -19.166 -23.612  0.00  0.00    -0.003 C 
ATOM     22  C   UNL     1      35.073 -16.492 -22.902  0.00  0.00    +0.036 C 
ATOM     23  C   UNL     1      34.733 -18.179 -24.598  0.00  0.00    -0.000 C 
ATOM     24  C   UNL     1      34.913 -16.842 -24.243  0.00  0.00    +0.003 C 
BRANCH  20  25
ATOM     25  O   UNL     1      35.207 -17.120 -20.611  0.00  0.00    -0.506 OA
ATOM     26  H   UNL     1      34.585 -16.549 -20.205  0.00  0.00    +0.292 HD
ENDBRANCH  20  25
ENDBRANCH  18  19
ENDBRANCH  15  18
ENDBRANCH  14  15
ENDBRANCH   1  14
TORSDOF 9
ENDMDL
MODEL 6
REMARK VINA RESULT:      -8.7      1.831      2.495
REMARK  Name = 90489020
REMARK  9 active torsions:
REMARK  status: ('A' for Active; 'I' for Inactive)
REMARK    1  A    between atoms: C_1  and  C_2
REMARK    2  A    between atoms: C_1  and  C_14
REMARK    3  A    between atoms: C_3  and  O_8
REMARK    4  A    between atoms: C_5  and  O_10
REMARK    5  A    between atoms: C_7  and  C_13
REMARK    6  A    between atoms: C_14  and  N_15
REMARK    7  A    between atoms: N_15  and  C_18
REMARK    8  A    between atoms: C_18  and  C_19
REMARK    9  A    between atoms: C_20  and  O_25
REMARK                            x       y       z     vdW  Elec       q    Type
REMARK                         _______ _______ _______ _____ _____    ______ ____
ROOT
ATOM      1  C   UNL     1      36.501 -22.930 -16.509  0.00  0.00    +0.006 C 
ENDROOT
BRANCH   1   2
ATOM      2  C   UNL     1      36.252 -23.366 -15.102  0.00  0.00    +0.013 C 
ATOM      3  C   UNL     1      37.306 -23.776 -14.286  0.00  0.00    +0.135 C 
ATOM      4  C   UNL     1      34.947 -23.360 -14.608  0.00  0.00    +0.036 C 
ATOM      5  C   UNL     1      34.697 -23.765 -13.297  0.00  0.00    +0.148 C 
ATOM      6  C   UNL     1      37.055 -24.180 -12.974  0.00  0.00    +0.050 C 
ATOM      7  C   UNL     1      35.751 -24.175 -12.480  0.00  0.00    +0.105 C 
BRANCH   3   8
ATOM      8  O   UNL     1      38.585 -23.787 -14.754  0.00  0.00    -0.472 OA
ATOM      9  C   UNL     1      39.286 -25.028 -14.689  0.00  0.00    +0.252 C 
ENDBRANCH   3   8
BRANCH   5  10
ATOM     10  O   UNL     1      33.413 -23.751 -12.838  0.00  0.00    -0.471 OA
ATOM     11  C   UNL     1      32.439 -24.433 -13.625  0.00  0.00    +0.252 C 
ENDBRANCH   5  10
BRANCH   7  13
ATOM     12  N   UNL     1      35.321 -24.931 -10.039  0.00  0.00    -0.191 NA
ATOM     13  C   UNL     1      35.514 -24.593 -11.132  0.00  0.00    +0.104 C 
ENDBRANCH   7  13
ENDBRANCH   1   2
BRANCH   1  14
ATOM     14  C   UNL     1      37.310 -21.627 -16.572  0.00  0.00    -0.076 C 
BRANCH  14  15
ATOM     15  N   UNL     1      36.956 -20.835 -17.746  0.00  0.00    +0.387 N 
ATOM     16  H   UNL     1      37.781 -20.326 -18.065  0.00  0.00    -0.084 HD
ATOM     17  H   UNL     1      36.214 -20.184 -17.489  0.00  0.00    -0.084 HD
BRANCH  15  18
ATOM     18  C   UNL     1      36.476 -21.688 -18.823  0.00  0.00    -0.051 C 
BRANCH  18  19
ATOM     19  C   UNL     1      35.313 -21.070 -19.551  0.00  0.00    -0.010 C 
ATOM     20  C   UNL     1      35.491 -19.945 -20.356  0.00  0.00    +0.128 C 
ATOM     21  C   UNL     1      34.045 -21.635 -19.413  0.00  0.00    -0.003 C 
ATOM     22  C   UNL     1      34.402 -19.385 -21.024  0.00  0.00    +0.036 C 
ATOM     23  C   UNL     1      32.956 -21.075 -20.081  0.00  0.00    -0.000 C 
ATOM     24  C   UNL     1      33.134 -19.950 -20.886  0.00  0.00    +0.003 C 
BRANCH  20  25
ATOM     25  O   UNL     1      36.723 -19.380 -20.499  0.00  0.00    -0.506 OA
ATOM     26  H   UNL     1      36.824 -18.601 -21.010  0.00  0.00    +0.292 HD
ENDBRANCH  20  25
ENDBRANCH  18  19
ENDBRANCH  15  18
ENDBRANCH  14  15
ENDBRANCH   1  14
TORSDOF 9
ENDMDL
MODEL 7
REMARK VINA RESULT:      -8.7      5.113     10.567
REMARK  Name = 90489020
REMARK  9 active torsions:
REMARK  status: ('A' for Active; 'I' for Inactive)
REMARK    1  A    between atoms: C_1  and  C_2
REMARK    2  A    between atoms: C_1  and  C_14
REMARK    3  A    between atoms: C_3  and  O_8
REMARK    4  A    between atoms: C_5  and  O_10
REMARK    5  A    between atoms: C_7  and  C_13
REMARK    6  A    between atoms: C_14  and  N_15
REMARK    7  A    between atoms: N_15  and  C_18
REMARK    8  A    between atoms: C_18  and  C_19
REMARK    9  A    between atoms: C_20  and  O_25
REMARK                            x       y       z     vdW  Elec       q    Type
REMARK                         _______ _______ _______ _____ _____    ______ ____
ROOT
ATOM      1  C   UNL     1      33.536 -16.667 -21.437  0.00  0.00    +0.006 C 
ENDROOT
BRANCH   1   2
ATOM      2  C   UNL     1      33.437 -15.294 -22.016  0.00  0.00    +0.013 C 
ATOM      3  C   UNL     1      34.248 -14.910 -23.084  0.00  0.00    +0.135 C 
ATOM      4  C   UNL     1      32.522 -14.390 -21.475  0.00  0.00    +0.036 C 
ATOM      5  C   UNL     1      32.416 -13.104 -22.003  0.00  0.00    +0.148 C 
ATOM      6  C   UNL     1      34.142 -13.624 -23.612  0.00  0.00    +0.050 C 
ATOM      7  C   UNL     1      33.228 -12.721 -23.072  0.00  0.00    +0.105 C 
BRANCH   3   8
ATOM      8  O   UNL     1      35.147 -15.780 -23.623  0.00  0.00    -0.472 OA
ATOM      9  C   UNL     1      34.730 -16.512 -24.773  0.00  0.00    +0.252 C 
ENDBRANCH   3   8
BRANCH   5  10
ATOM     10  O   UNL     1      31.514 -12.241 -21.456  0.00  0.00    -0.471 OA
ATOM     11  C   UNL     1      31.723 -11.863 -20.097  0.00  0.00    +0.252 C 
ENDBRANCH   5  10
BRANCH   7  13
ATOM     12  N   UNL     1      33.057 -10.339 -24.078  0.00  0.00    -0.191 NA
ATOM     13  C   UNL     1      33.134 -11.405 -23.628  0.00  0.00    +0.104 C 
ENDBRANCH   7  13
ENDBRANCH   1   2
BRANCH   1  14
ATOM     14  C   UNL     1      34.889 -16.909 -20.756  0.00  0.00    -0.076 C 
BRANCH  14  15
ATOM     15  N   UNL     1      35.660 -17.937 -21.447  0.00  0.00    +0.387 N 
ATOM     16  H   UNL     1      36.395 -18.277 -20.825  0.00  0.00    -0.084 HD
ATOM     17  H   UNL     1      36.068 -17.530 -22.289  0.00  0.00    -0.084 HD
BRANCH  15  18
ATOM     18  C   UNL     1      34.809 -19.052 -21.833  0.00  0.00    -0.051 C 
BRANCH  18  19
ATOM     19  C   UNL     1      34.765 -20.118 -20.771  0.00  0.00    -0.010 C 
ATOM     20  C   UNL     1      33.547 -20.623 -20.318  0.00  0.00    +0.128 C 
ATOM     21  C   UNL     1      35.961 -20.598 -20.238  0.00  0.00    -0.003 C 
ATOM     22  C   UNL     1      33.524 -21.610 -19.332  0.00  0.00    +0.036 C 
ATOM     23  C   UNL     1      35.938 -21.586 -19.253  0.00  0.00    -0.000 C 
ATOM     24  C   UNL     1      34.720 -22.092 -18.799  0.00  0.00    +0.003 C 
BRANCH  20  25
ATOM     25  O   UNL     1      32.370 -20.163 -20.826  0.00  0.00    -0.506 OA
ATOM     26  H   UNL     1      31.838 -19.579 -20.322  0.00  0.00    +0.292 HD
ENDBRANCH  20  25
ENDBRANCH  18  19
ENDBRANCH  15  18
ENDBRANCH  14  15
ENDBRANCH   1  14
TORSDOF 9
ENDMDL
MODEL 8
REMARK VINA RESULT:      -8.5      5.985     11.667
REMARK  Name = 90489020
REMARK  9 active torsions:
REMARK  status: ('A' for Active; 'I' for Inactive)
REMARK    1  A    between atoms: C_1  and  C_2
REMARK    2  A    between atoms: C_1  and  C_14
REMARK    3  A    between atoms: C_3  and  O_8
REMARK    4  A    between atoms: C_5  and  O_10
REMARK    5  A    between atoms: C_7  and  C_13
REMARK    6  A    between atoms: C_14  and  N_15
REMARK    7  A    between atoms: N_15  and  C_18
REMARK    8  A    between atoms: C_18  and  C_19
REMARK    9  A    between atoms: C_20  and  O_25
REMARK                            x       y       z     vdW  Elec       q    Type
REMARK                         _______ _______ _______ _____ _____    ______ ____
ROOT
ATOM      1  C   UNL     1      33.782 -15.533 -24.005  0.00  0.00    +0.006 C 
ENDROOT
BRANCH   1   2
ATOM      2  C   UNL     1      33.325 -14.181 -23.562  0.00  0.00    +0.013 C 
ATOM      3  C   UNL     1      32.556 -14.031 -22.408  0.00  0.00    +0.135 C 
ATOM      4  C   UNL     1      33.676 -13.062 -24.317  0.00  0.00    +0.036 C 
ATOM      5  C   UNL     1      33.258 -11.793 -23.919  0.00  0.00    +0.148 C 
ATOM      6  C   UNL     1      32.138 -12.762 -22.010  0.00  0.00    +0.050 C 
ATOM      7  C   UNL     1      32.488 -11.643 -22.764  0.00  0.00    +0.105 C 
BRANCH   3   8
ATOM      8  O   UNL     1      32.205 -15.115 -21.661  0.00  0.00    -0.472 OA
ATOM      9  C   UNL     1      32.563 -15.091 -20.280  0.00  0.00    +0.252 C 
ENDBRANCH   3   8
BRANCH   5  10
ATOM     10  O   UNL     1      33.614 -10.715 -24.675  0.00  0.00    -0.471 OA
ATOM     11  C   UNL     1      34.992 -10.349 -24.668  0.00  0.00    +0.252 C 
ENDBRANCH   5  10
BRANCH   7  13
ATOM     12  N   UNL     1      31.693  -9.300 -21.994  0.00  0.00    -0.191 NA
ATOM     13  C   UNL     1      32.050 -10.348 -22.338  0.00  0.00    +0.104 C 
ENDBRANCH   7  13
ENDBRANCH   1   2
BRANCH   1  14
ATOM     14  C   UNL     1      35.075 -15.963 -23.299  0.00  0.00    -0.076 C 
BRANCH  14  15
ATOM     15  N   UNL     1      34.797 -16.799 -22.136  0.00  0.00    +0.387 N 
ATOM     16  H   UNL     1      33.801 -17.022 -22.116  0.00  0.00    -0.084 HD
ATOM     17  H   UNL     1      35.064 -16.287 -21.295  0.00  0.00    -0.084 HD
BRANCH  15  18
ATOM     18  C   UNL     1      35.561 -18.036 -22.191  0.00  0.00    -0.051 C 
BRANCH  18  19
ATOM     19  C   UNL     1      34.950 -19.111 -21.334  0.00  0.00    -0.010 C 
ATOM     20  C   UNL     1      35.753 -19.967 -20.581  0.00  0.00    +0.128 C 
ATOM     21  C   UNL     1      33.562 -19.249 -21.300  0.00  0.00    -0.003 C 
ATOM     22  C   UNL     1      35.170 -20.959 -19.793  0.00  0.00    +0.036 C 
ATOM     23  C   UNL     1      32.979 -20.240 -20.510  0.00  0.00    -0.000 C 
ATOM     24  C   UNL     1      33.782 -21.096 -19.757  0.00  0.00    +0.003 C 
BRANCH  20  25
ATOM     25  O   UNL     1      37.111 -19.848 -20.606  0.00  0.00    -0.506 OA
ATOM     26  H   UNL     1      37.511 -19.016 -20.449  0.00  0.00    +0.292 HD
ENDBRANCH  20  25
ENDBRANCH  18  19
ENDBRANCH  15  18
ENDBRANCH  14  15
ENDBRANCH   1  14
TORSDOF 9
ENDMDL
MODEL 9
REMARK VINA RESULT:      -8.4      2.214      3.764
REMARK  Name = 90489020
REMARK  9 active torsions:
REMARK  status: ('A' for Active; 'I' for Inactive)
REMARK    1  A    between atoms: C_1  and  C_2
REMARK    2  A    between atoms: C_1  and  C_14
REMARK    3  A    between atoms: C_3  and  O_8
REMARK    4  A    between atoms: C_5  and  O_10
REMARK    5  A    between atoms: C_7  and  C_13
REMARK    6  A    between atoms: C_14  and  N_15
REMARK    7  A    between atoms: N_15  and  C_18
REMARK    8  A    between atoms: C_18  and  C_19
REMARK    9  A    between atoms: C_20  and  O_25
REMARK                            x       y       z     vdW  Elec       q    Type
REMARK                         _______ _______ _______ _____ _____    ______ ____
ROOT
ATOM      1  C   UNL     1      35.087 -21.864 -19.009  0.00  0.00    +0.006 C 
ENDROOT
BRANCH   1   2
ATOM      2  C   UNL     1      35.148 -22.403 -17.617  0.00  0.00    +0.013 C 
ATOM      3  C   UNL     1      34.006 -22.911 -16.999  0.00  0.00    +0.135 C 
ATOM      4  C   UNL     1      36.365 -22.393 -16.935  0.00  0.00    +0.036 C 
ATOM      5  C   UNL     1      36.440 -22.892 -15.635  0.00  0.00    +0.148 C 
ATOM      6  C   UNL     1      34.081 -23.409 -15.698  0.00  0.00    +0.050 C 
ATOM      7  C   UNL     1      35.297 -23.400 -15.016  0.00  0.00    +0.105 C 
BRANCH   3   8
ATOM      8  O   UNL     1      32.810 -22.926 -17.651  0.00  0.00    -0.472 OA
ATOM      9  C   UNL     1      31.635 -23.011 -16.846  0.00  0.00    +0.252 C 
ENDBRANCH   3   8
BRANCH   5  10
ATOM     10  O   UNL     1      37.641 -22.871 -14.991  0.00  0.00    -0.471 OA
ATOM     11  C   UNL     1      38.504 -23.987 -15.196  0.00  0.00    +0.252 C 
ENDBRANCH   5  10
BRANCH   7  13
ATOM     12  N   UNL     1      35.398 -24.336 -12.602  0.00  0.00    -0.191 NA
ATOM     13  C   UNL     1      35.354 -23.916 -13.683  0.00  0.00    +0.104 C 
ENDBRANCH   7  13
ENDBRANCH   1   2
BRANCH   1  14
ATOM     14  C   UNL     1      36.421 -21.247 -19.447  0.00  0.00    -0.076 C 
BRANCH  14  15
ATOM     15  N   UNL     1      36.229 -19.935 -20.058  0.00  0.00    +0.387 N 
ATOM     16  H   UNL     1      36.963 -19.779 -20.749  0.00  0.00    -0.084 HD
ATOM     17  H   UNL     1      36.270 -19.225 -19.327  0.00  0.00    -0.084 HD
BRANCH  15  18
ATOM     18  C   UNL     1      34.933 -19.854 -20.714  0.00  0.00    -0.051 C 
BRANCH  18  19
ATOM     19  C   UNL     1      34.954 -18.904 -21.882  0.00  0.00    -0.010 C 
ATOM     20  C   UNL     1      35.166 -17.539 -21.688  0.00  0.00    +0.128 C 
ATOM     21  C   UNL     1      34.757 -19.403 -23.170  0.00  0.00    -0.003 C 
ATOM     22  C   UNL     1      35.182 -16.673 -22.781  0.00  0.00    +0.036 C 
ATOM     23  C   UNL     1      34.774 -18.537 -24.263  0.00  0.00    -0.000 C 
ATOM     24  C   UNL     1      34.986 -17.172 -24.069  0.00  0.00    +0.003 C 
BRANCH  20  25
ATOM     25  O   UNL     1      35.358 -17.036 -20.436  0.00  0.00    -0.506 OA
ATOM     26  H   UNL     1      35.065 -17.517 -19.687  0.00  0.00    +0.292 HD
ENDBRANCH  20  25
ENDBRANCH  18  19
ENDBRANCH  15  18
ENDBRANCH  14  15
ENDBRANCH   1  14
TORSDOF 9
ENDMDL
