MODEL 1
REMARK VINA RESULT:      -8.6      0.000      0.000
REMARK  Name = 72141
REMARK  5 active torsions:
REMARK  status: ('A' for Active; 'I' for Inactive)
REMARK    1  A    between atoms: C_1  and  C_2
REMARK    2  A    between atoms: C_1  and  C_9
REMARK    3  A    between atoms: C_1  and  C_15
REMARK    4  A    between atoms: C_15  and  C_16
REMARK    5  A    between atoms: C_16  and  N_17
REMARK                            x       y       z     vdW  Elec       q    Type
REMARK                         _______ _______ _______ _____ _____    ______ ____
ROOT
ATOM      1  C   UNL     1      35.088 -18.424 -21.627  0.00  0.00    +0.042 C 
ENDROOT
BRANCH   1   2
ATOM      2  C   UNL     1      34.720 -19.634 -20.778  0.00  0.00    -0.019 C 
ATOM      3  C   UNL     1      35.731 -20.393 -20.227  0.00  0.00    -0.004 C 
ATOM      4  C   UNL     1      33.387 -19.931 -20.586  0.00  0.00    -0.004 C 
ATOM      5  C   UNL     1      35.394 -21.501 -19.450  0.00  0.00    -0.005 C 
ATOM      6  C   UNL     1      33.050 -21.039 -19.809  0.00  0.00    -0.005 C 
ATOM      7  C   UNL     1      34.054 -21.825 -19.241  0.00  0.00    -0.022 C 
ATOM      8  C   UNL     1      33.694 -23.008 -18.409  0.00  0.00    +0.031 C 
ENDBRANCH   1   2
BRANCH   1   9
ATOM      9  C   UNL     1      34.308 -17.186 -21.192  0.00  0.00    -0.019 C 
ATOM     10  C   UNL     1      35.009 -16.073 -20.778  0.00  0.00    -0.004 C 
ATOM     11  C   UNL     1      32.932 -17.222 -21.228  0.00  0.00    -0.004 C 
ATOM     12  C   UNL     1      34.297 -14.942 -20.381  0.00  0.00    -0.000 C 
ATOM     13  C   UNL     1      32.219 -16.090 -20.831  0.00  0.00    -0.000 C 
ATOM     14  C   UNL     1      32.902 -14.950 -20.406  0.00  0.00    -0.000 C 
ENDBRANCH   1   9
BRANCH   1  15
ATOM     15  C   UNL     1      35.010 -18.687 -23.154  0.00  0.00    -0.014 C 
BRANCH  15  16
ATOM     16  C   UNL     1      35.390 -17.455 -23.982  0.00  0.00    -0.077 C 
BRANCH  16  17
ATOM     17  N   UNL     1      34.666 -17.457 -25.249  0.00  0.00    +0.384 N 
ATOM     18  C   UNL     1      33.865 -16.239 -25.386  0.00  0.00    -0.101 C 
ATOM     19  C   UNL     1      33.812 -18.641 -25.352  0.00  0.00    -0.101 C 
ATOM     20  H   UNL     1      35.348 -17.483 -26.007  0.00  0.00    -0.080 HD
ENDBRANCH  16  17
ENDBRANCH  15  16
ENDBRANCH   1  15
TORSDOF 5
ENDMDL
MODEL 2
REMARK VINA RESULT:      -8.6      5.392      9.165
REMARK  Name = 72141
REMARK  5 active torsions:
REMARK  status: ('A' for Active; 'I' for Inactive)
REMARK    1  A    between atoms: C_1  and  C_2
REMARK    2  A    between atoms: C_1  and  C_9
REMARK    3  A    between atoms: C_1  and  C_15
REMARK    4  A    between atoms: C_15  and  C_16
REMARK    5  A    between atoms: C_16  and  N_17
REMARK                            x       y       z     vdW  Elec       q    Type
REMARK                         _______ _______ _______ _____ _____    ______ ____
ROOT
ATOM      1  C   UNL     1      34.425 -23.785 -15.887  0.00  0.00    +0.042 C 
ENDROOT
BRANCH   1   2
ATOM      2  C   UNL     1      34.966 -22.923 -17.021  0.00  0.00    -0.019 C 
ATOM      3  C   UNL     1      36.202 -22.330 -16.873  0.00  0.00    -0.004 C 
ATOM      4  C   UNL     1      34.203 -22.765 -18.158  0.00  0.00    -0.004 C 
ATOM      5  C   UNL     1      36.697 -21.540 -17.912  0.00  0.00    -0.005 C 
ATOM      6  C   UNL     1      34.698 -21.976 -19.197  0.00  0.00    -0.005 C 
ATOM      7  C   UNL     1      35.945 -21.363 -19.073  0.00  0.00    -0.022 C 
ATOM      8  C   UNL     1      36.476 -20.521 -20.183  0.00  0.00    +0.031 C 
ENDBRANCH   1   2
BRANCH   1   9
ATOM      9  C   UNL     1      32.972 -23.437 -15.574  0.00  0.00    -0.019 C 
ATOM     10  C   UNL     1      32.596 -23.286 -14.256  0.00  0.00    -0.004 C 
ATOM     11  C   UNL     1      32.086 -23.285 -16.618  0.00  0.00    -0.004 C 
ATOM     12  C   UNL     1      31.269 -22.968 -13.970  0.00  0.00    -0.000 C 
ATOM     13  C   UNL     1      30.758 -22.967 -16.332  0.00  0.00    -0.000 C 
ATOM     14  C   UNL     1      30.350 -22.809 -15.007  0.00  0.00    -0.000 C 
ENDBRANCH   1   9
BRANCH   1  15
ATOM     15  C   UNL     1      35.332 -23.800 -14.628  0.00  0.00    -0.014 C 
BRANCH  15  16
ATOM     16  C   UNL     1      36.092 -25.121 -14.468  0.00  0.00    -0.077 C 
BRANCH  16  17
ATOM     17  N   UNL     1      36.066 -25.551 -13.074  0.00  0.00    +0.384 N 
ATOM     18  C   UNL     1      35.557 -24.481 -12.215  0.00  0.00    -0.101 C 
ATOM     19  C   UNL     1      37.401 -25.962 -12.637  0.00  0.00    -0.101 C 
ATOM     20  H   UNL     1      35.439 -26.352 -12.999  0.00  0.00    -0.080 HD
ENDBRANCH  16  17
ENDBRANCH  15  16
ENDBRANCH   1  15
TORSDOF 5
ENDMDL
MODEL 3
REMARK VINA RESULT:      -8.6      5.390      9.248
REMARK  Name = 72141
REMARK  5 active torsions:
REMARK  status: ('A' for Active; 'I' for Inactive)
REMARK    1  A    between atoms: C_1  and  C_2
REMARK    2  A    between atoms: C_1  and  C_9
REMARK    3  A    between atoms: C_1  and  C_15
REMARK    4  A    between atoms: C_15  and  C_16
REMARK    5  A    between atoms: C_16  and  N_17
REMARK                            x       y       z     vdW  Elec       q    Type
REMARK                         _______ _______ _______ _____ _____    ______ ____
ROOT
ATOM      1  C   UNL     1      34.420 -23.786 -15.885  0.00  0.00    +0.042 C 
ENDROOT
BRANCH   1   2
ATOM      2  C   UNL     1      34.961 -22.924 -17.018  0.00  0.00    -0.019 C 
ATOM      3  C   UNL     1      34.193 -22.757 -18.151  0.00  0.00    -0.004 C 
ATOM      4  C   UNL     1      36.201 -22.338 -16.875  0.00  0.00    -0.004 C 
ATOM      5  C   UNL     1      34.688 -21.967 -19.189  0.00  0.00    -0.005 C 
ATOM      6  C   UNL     1      36.696 -21.548 -17.913  0.00  0.00    -0.005 C 
ATOM      7  C   UNL     1      35.939 -21.363 -19.070  0.00  0.00    -0.022 C 
ATOM      8  C   UNL     1      36.468 -20.519 -20.179  0.00  0.00    +0.031 C 
ENDBRANCH   1   2
BRANCH   1   9
ATOM      9  C   UNL     1      32.967 -23.439 -15.572  0.00  0.00    -0.019 C 
ATOM     10  C   UNL     1      32.082 -23.287 -16.618  0.00  0.00    -0.004 C 
ATOM     11  C   UNL     1      32.590 -23.290 -14.255  0.00  0.00    -0.004 C 
ATOM     12  C   UNL     1      30.755 -22.971 -16.331  0.00  0.00    -0.000 C 
ATOM     13  C   UNL     1      31.262 -22.973 -13.969  0.00  0.00    -0.000 C 
ATOM     14  C   UNL     1      30.344 -22.812 -15.008  0.00  0.00    -0.000 C 
ENDBRANCH   1   9
BRANCH   1  15
ATOM     15  C   UNL     1      35.327 -23.802 -14.626  0.00  0.00    -0.014 C 
BRANCH  15  16
ATOM     16  C   UNL     1      36.090 -25.122 -14.469  0.00  0.00    -0.077 C 
BRANCH  16  17
ATOM     17  N   UNL     1      36.069 -25.553 -13.075  0.00  0.00    +0.384 N 
ATOM     18  C   UNL     1      35.561 -24.484 -12.213  0.00  0.00    -0.101 C 
ATOM     19  C   UNL     1      37.407 -25.960 -12.642  0.00  0.00    -0.101 C 
ATOM     20  H   UNL     1      35.445 -26.356 -12.998  0.00  0.00    -0.080 HD
ENDBRANCH  16  17
ENDBRANCH  15  16
ENDBRANCH   1  15
TORSDOF 5
ENDMDL
MODEL 4
REMARK VINA RESULT:      -8.6      5.464      9.848
REMARK  Name = 72141
REMARK  5 active torsions:
REMARK  status: ('A' for Active; 'I' for Inactive)
REMARK    1  A    between atoms: C_1  and  C_2
REMARK    2  A    between atoms: C_1  and  C_9
REMARK    3  A    between atoms: C_1  and  C_15
REMARK    4  A    between atoms: C_15  and  C_16
REMARK    5  A    between atoms: C_16  and  N_17
REMARK                            x       y       z     vdW  Elec       q    Type
REMARK                         _______ _______ _______ _____ _____    ______ ____
ROOT
ATOM      1  C   UNL     1      34.997 -23.419 -14.951  0.00  0.00    +0.042 C 
ENDROOT
BRANCH   1   2
ATOM      2  C   UNL     1      35.292 -22.828 -16.324  0.00  0.00    -0.019 C 
ATOM      3  C   UNL     1      34.324 -22.906 -17.303  0.00  0.00    -0.004 C 
ATOM      4  C   UNL     1      36.516 -22.234 -16.543  0.00  0.00    -0.004 C 
ATOM      5  C   UNL     1      34.593 -22.365 -18.561  0.00  0.00    -0.005 C 
ATOM      6  C   UNL     1      36.786 -21.693 -17.801  0.00  0.00    -0.005 C 
ATOM      7  C   UNL     1      35.824 -21.759 -18.809  0.00  0.00    -0.022 C 
ATOM      8  C   UNL     1      36.112 -21.180 -20.153  0.00  0.00    +0.031 C 
ENDBRANCH   1   2
BRANCH   1   9
ATOM      9  C   UNL     1      36.147 -24.301 -14.471  0.00  0.00    -0.019 C 
ATOM     10  C   UNL     1      36.968 -23.832 -13.468  0.00  0.00    -0.004 C 
ATOM     11  C   UNL     1      36.326 -25.535 -15.057  0.00  0.00    -0.004 C 
ATOM     12  C   UNL     1      38.018 -24.637 -13.029  0.00  0.00    -0.000 C 
ATOM     13  C   UNL     1      37.377 -26.341 -14.618  0.00  0.00    -0.000 C 
ATOM     14  C   UNL     1      38.224 -25.891 -13.604  0.00  0.00    -0.000 C 
ENDBRANCH   1   9
BRANCH   1  15
ATOM     15  C   UNL     1      33.614 -24.118 -14.857  0.00  0.00    -0.014 C 
BRANCH  15  16
ATOM     16  C   UNL     1      32.956 -23.932 -13.486  0.00  0.00    -0.077 C 
BRANCH  16  17
ATOM     17  N   UNL     1      31.518 -23.736 -13.640  0.00  0.00    +0.384 N 
ATOM     18  C   UNL     1      30.855 -25.005 -13.943  0.00  0.00    -0.101 C 
ATOM     19  C   UNL     1      31.242 -22.755 -14.690  0.00  0.00    -0.101 C 
ATOM     20  H   UNL     1      31.148 -23.380 -12.759  0.00  0.00    -0.080 HD
ENDBRANCH  16  17
ENDBRANCH  15  16
ENDBRANCH   1  15
TORSDOF 5
ENDMDL
MODEL 5
REMARK VINA RESULT:      -8.6      0.127      1.573
REMARK  Name = 72141
REMARK  5 active torsions:
REMARK  status: ('A' for Active; 'I' for Inactive)
REMARK    1  A    between atoms: C_1  and  C_2
REMARK    2  A    between atoms: C_1  and  C_9
REMARK    3  A    between atoms: C_1  and  C_15
REMARK    4  A    between atoms: C_15  and  C_16
REMARK    5  A    between atoms: C_16  and  N_17
REMARK                            x       y       z     vdW  Elec       q    Type
REMARK                         _______ _______ _______ _____ _____    ______ ____
ROOT
ATOM      1  C   UNL     1      35.128 -18.296 -21.615  0.00  0.00    +0.042 C 
ENDROOT
BRANCH   1   2
ATOM      2  C   UNL     1      34.748 -19.525 -20.799  0.00  0.00    -0.019 C 
ATOM      3  C   UNL     1      33.413 -19.825 -20.630  0.00  0.00    -0.004 C 
ATOM      4  C   UNL     1      35.752 -20.299 -20.256  0.00  0.00    -0.004 C 
ATOM      5  C   UNL     1      33.065 -20.950 -19.883  0.00  0.00    -0.005 C 
ATOM      6  C   UNL     1      35.404 -21.424 -19.509  0.00  0.00    -0.005 C 
ATOM      7  C   UNL     1      34.060 -21.749 -19.322  0.00  0.00    -0.022 C 
ATOM      8  C   UNL     1      33.689 -22.953 -18.524  0.00  0.00    +0.031 C 
ENDBRANCH   1   2
BRANCH   1   9
ATOM      9  C   UNL     1      34.321 -17.075 -21.181  0.00  0.00    -0.019 C 
ATOM     10  C   UNL     1      32.945 -17.138 -21.229  0.00  0.00    -0.004 C 
ATOM     11  C   UNL     1      34.996 -15.951 -20.757  0.00  0.00    -0.004 C 
ATOM     12  C   UNL     1      32.208 -16.023 -20.832  0.00  0.00    -0.000 C 
ATOM     13  C   UNL     1      34.259 -14.835 -20.360  0.00  0.00    -0.000 C 
ATOM     14  C   UNL     1      32.864 -14.871 -20.399  0.00  0.00    -0.000 C 
ENDBRANCH   1   9
BRANCH   1  15
ATOM     15  C   UNL     1      35.098 -18.532 -23.149  0.00  0.00    -0.014 C 
BRANCH  15  16
ATOM     16  C   UNL     1      35.377 -17.252 -23.944  0.00  0.00    -0.077 C 
BRANCH  16  17
ATOM     17  N   UNL     1      34.692 -17.300 -25.232  0.00  0.00    +0.384 N 
ATOM     18  C   UNL     1      33.859 -16.110 -25.415  0.00  0.00    -0.101 C 
ATOM     19  C   UNL     1      33.877 -18.511 -25.337  0.00  0.00    -0.101 C 
ATOM     20  H   UNL     1      35.397 -17.318 -25.968  0.00  0.00    -0.080 HD
ENDBRANCH  16  17
ENDBRANCH  15  16
ENDBRANCH   1  15
TORSDOF 5
ENDMDL
MODEL 6
REMARK VINA RESULT:      -8.5      6.762     10.662
REMARK  Name = 72141
REMARK  5 active torsions:
REMARK  status: ('A' for Active; 'I' for Inactive)
REMARK    1  A    between atoms: C_1  and  C_2
REMARK    2  A    between atoms: C_1  and  C_9
REMARK    3  A    between atoms: C_1  and  C_15
REMARK    4  A    between atoms: C_15  and  C_16
REMARK    5  A    between atoms: C_16  and  N_17
REMARK                            x       y       z     vdW  Elec       q    Type
REMARK                         _______ _______ _______ _____ _____    ______ ____
ROOT
ATOM      1  C   UNL     1      32.520  -9.952 -23.326  0.00  0.00    +0.042 C 
ENDROOT
BRANCH   1   2
ATOM      2  C   UNL     1      32.420  -8.497 -23.763  0.00  0.00    -0.019 C 
ATOM      3  C   UNL     1      31.171  -7.931 -23.909  0.00  0.00    -0.004 C 
ATOM      4  C   UNL     1      33.582  -7.792 -23.999  0.00  0.00    -0.004 C 
ATOM      5  C   UNL     1      31.080  -6.597 -24.310  0.00  0.00    -0.005 C 
ATOM      6  C   UNL     1      33.490  -6.459 -24.400  0.00  0.00    -0.005 C 
ATOM      7  C   UNL     1      32.238  -5.862 -24.556  0.00  0.00    -0.022 C 
ATOM      8  C   UNL     1      32.140  -4.437 -24.983  0.00  0.00    +0.031 C 
ENDBRANCH   1   2
BRANCH   1   9
ATOM      9  C   UNL     1      32.088 -10.123 -21.871  0.00  0.00    -0.019 C 
ATOM     10  C   UNL     1      31.497 -11.309 -21.490  0.00  0.00    -0.004 C 
ATOM     11  C   UNL     1      32.303  -9.087 -20.990  0.00  0.00    -0.004 C 
ATOM     12  C   UNL     1      31.103 -11.465 -20.162  0.00  0.00    -0.000 C 
ATOM     13  C   UNL     1      31.909  -9.243 -19.660  0.00  0.00    -0.000 C 
ATOM     14  C   UNL     1      31.308 -10.432 -19.247  0.00  0.00    -0.000 C 
ENDBRANCH   1   9
BRANCH   1  15
ATOM     15  C   UNL     1      33.895 -10.603 -23.633  0.00  0.00    -0.014 C 
BRANCH  15  16
ATOM     16  C   UNL     1      33.821 -11.619 -24.777  0.00  0.00    -0.077 C 
BRANCH  16  17
ATOM     17  N   UNL     1      33.218 -12.863 -24.308  0.00  0.00    +0.384 N 
ATOM     18  C   UNL     1      34.017 -13.447 -23.229  0.00  0.00    -0.101 C 
ATOM     19  C   UNL     1      33.079 -13.815 -25.410  0.00  0.00    -0.101 C 
ATOM     20  H   UNL     1      32.289 -12.650 -23.945  0.00  0.00    -0.080 HD
ENDBRANCH  16  17
ENDBRANCH  15  16
ENDBRANCH   1  15
TORSDOF 5
ENDMDL
MODEL 7
REMARK VINA RESULT:      -8.5      7.937     11.090
REMARK  Name = 72141
REMARK  5 active torsions:
REMARK  status: ('A' for Active; 'I' for Inactive)
REMARK    1  A    between atoms: C_1  and  C_2
REMARK    2  A    between atoms: C_1  and  C_9
REMARK    3  A    between atoms: C_1  and  C_15
REMARK    4  A    between atoms: C_15  and  C_16
REMARK    5  A    between atoms: C_16  and  N_17
REMARK                            x       y       z     vdW  Elec       q    Type
REMARK                         _______ _______ _______ _____ _____    ______ ____
ROOT
ATOM      1  C   UNL     1      32.368  -9.493 -23.374  0.00  0.00    +0.042 C 
ENDROOT
BRANCH   1   2
ATOM      2  C   UNL     1      32.129  -8.039 -23.761  0.00  0.00    -0.019 C 
ATOM      3  C   UNL     1      33.209  -7.262 -24.125  0.00  0.00    -0.004 C 
ATOM      4  C   UNL     1      30.842  -7.547 -23.734  0.00  0.00    -0.004 C 
ATOM      5  C   UNL     1      32.990  -5.931 -24.479  0.00  0.00    -0.005 C 
ATOM      6  C   UNL     1      30.623  -6.215 -24.088  0.00  0.00    -0.005 C 
ATOM      7  C   UNL     1      31.698  -5.407 -24.460  0.00  0.00    -0.022 C 
ATOM      8  C   UNL     1      31.465  -3.984 -24.840  0.00  0.00    +0.031 C 
ENDBRANCH   1   2
BRANCH   1   9
ATOM      9  C   UNL     1      31.967  -9.752 -21.924  0.00  0.00    -0.019 C 
ATOM     10  C   UNL     1      31.215 -10.870 -21.634  0.00  0.00    -0.004 C 
ATOM     11  C   UNL     1      32.369  -8.859 -20.955  0.00  0.00    -0.004 C 
ATOM     12  C   UNL     1      30.848 -11.107 -20.310  0.00  0.00    -0.000 C 
ATOM     13  C   UNL     1      32.002  -9.096 -19.630  0.00  0.00    -0.000 C 
ATOM     14  C   UNL     1      31.241 -10.220 -19.308  0.00  0.00    -0.000 C 
ENDBRANCH   1   9
BRANCH   1  15
ATOM     15  C   UNL     1      33.795 -10.002 -23.710  0.00  0.00    -0.014 C 
BRANCH  15  16
ATOM     16  C   UNL     1      33.814 -11.485 -24.093  0.00  0.00    -0.077 C 
BRANCH  16  17
ATOM     17  N   UNL     1      34.593 -11.681 -25.312  0.00  0.00    +0.384 N 
ATOM     18  C   UNL     1      35.256 -10.436 -25.704  0.00  0.00    -0.101 C 
ATOM     19  C   UNL     1      33.738 -12.164 -26.397  0.00  0.00    -0.101 C 
ATOM     20  H   UNL     1      35.308 -12.384 -25.125  0.00  0.00    -0.080 HD
ENDBRANCH  16  17
ENDBRANCH  15  16
ENDBRANCH   1  15
TORSDOF 5
ENDMDL
MODEL 8
REMARK VINA RESULT:      -8.3      5.563      9.782
REMARK  Name = 72141
REMARK  5 active torsions:
REMARK  status: ('A' for Active; 'I' for Inactive)
REMARK    1  A    between atoms: C_1  and  C_2
REMARK    2  A    between atoms: C_1  and  C_9
REMARK    3  A    between atoms: C_1  and  C_15
REMARK    4  A    between atoms: C_15  and  C_16
REMARK    5  A    between atoms: C_16  and  N_17
REMARK                            x       y       z     vdW  Elec       q    Type
REMARK                         _______ _______ _______ _____ _____    ______ ____
ROOT
ATOM      1  C   UNL     1      34.584 -23.593 -14.899  0.00  0.00    +0.042 C 
ENDROOT
BRANCH   1   2
ATOM      2  C   UNL     1      35.093 -22.951 -16.183  0.00  0.00    -0.019 C 
ATOM      3  C   UNL     1      36.355 -22.395 -16.193  0.00  0.00    -0.004 C 
ATOM      4  C   UNL     1      34.276 -22.946 -17.294  0.00  0.00    -0.004 C 
ATOM      5  C   UNL     1      36.822 -21.807 -17.369  0.00  0.00    -0.005 C 
ATOM      6  C   UNL     1      34.743 -22.357 -18.470  0.00  0.00    -0.005 C 
ATOM      7  C   UNL     1      36.016 -21.787 -18.506  0.00  0.00    -0.022 C 
ATOM      8  C   UNL     1      36.515 -21.159 -19.763  0.00  0.00    +0.031 C 
ENDBRANCH   1   2
BRANCH   1   9
ATOM      9  C   UNL     1      35.650 -24.485 -14.267  0.00  0.00    -0.019 C 
ATOM     10  C   UNL     1      36.200 -25.498 -15.023  0.00  0.00    -0.004 C 
ATOM     11  C   UNL     1      36.026 -24.246 -12.963  0.00  0.00    -0.004 C 
ATOM     12  C   UNL     1      37.174 -26.312 -14.445  0.00  0.00    -0.000 C 
ATOM     13  C   UNL     1      37.000 -25.060 -12.385  0.00  0.00    -0.000 C 
ATOM     14  C   UNL     1      37.574 -26.094 -13.126  0.00  0.00    -0.000 C 
ENDBRANCH   1   9
BRANCH   1  15
ATOM     15  C   UNL     1      33.213 -24.303 -15.058  0.00  0.00    -0.014 C 
BRANCH  15  16
ATOM     16  C   UNL     1      32.072 -23.532 -14.387  0.00  0.00    -0.077 C 
BRANCH  16  17
ATOM     17  N   UNL     1      30.801 -23.857 -15.027  0.00  0.00    +0.384 N 
ATOM     18  C   UNL     1      29.870 -22.731 -14.922  0.00  0.00    -0.101 C 
ATOM     19  C   UNL     1      30.215 -25.057 -14.428  0.00  0.00    -0.101 C 
ATOM     20  H   UNL     1      30.977 -24.041 -16.014  0.00  0.00    -0.080 HD
ENDBRANCH  16  17
ENDBRANCH  15  16
ENDBRANCH   1  15
TORSDOF 5
ENDMDL
MODEL 9
REMARK VINA RESULT:      -8.2      5.518      8.697
REMARK  Name = 72141
REMARK  5 active torsions:
REMARK  status: ('A' for Active; 'I' for Inactive)
REMARK    1  A    between atoms: C_1  and  C_2
REMARK    2  A    between atoms: C_1  and  C_9
REMARK    3  A    between atoms: C_1  and  C_15
REMARK    4  A    between atoms: C_15  and  C_16
REMARK    5  A    between atoms: C_16  and  N_17
REMARK                            x       y       z     vdW  Elec       q    Type
REMARK                         _______ _______ _______ _____ _____    ______ ____
ROOT
ATOM      1  C   UNL     1      33.976 -23.762 -15.888  0.00  0.00    +0.042 C 
ENDROOT
BRANCH   1   2
ATOM      2  C   UNL     1      35.190 -24.140 -15.050  0.00  0.00    -0.019 C 
ATOM      3  C   UNL     1      35.764 -25.381 -15.233  0.00  0.00    -0.004 C 
ATOM      4  C   UNL     1      35.676 -23.231 -14.134  0.00  0.00    -0.004 C 
ATOM      5  C   UNL     1      36.875 -25.728 -14.465  0.00  0.00    -0.005 C 
ATOM      6  C   UNL     1      36.787 -23.578 -13.366  0.00  0.00    -0.005 C 
ATOM      7  C   UNL     1      37.387 -24.827 -13.531  0.00  0.00    -0.022 C 
ATOM      8  C   UNL     1      38.575 -25.198 -12.712  0.00  0.00    +0.031 C 
ENDBRANCH   1   2
BRANCH   1   9
ATOM      9  C   UNL     1      34.386 -22.974 -17.130  0.00  0.00    -0.019 C 
ATOM     10  C   UNL     1      35.672 -22.483 -17.208  0.00  0.00    -0.004 C 
ATOM     11  C   UNL     1      33.457 -22.780 -18.129  0.00  0.00    -0.004 C 
ATOM     12  C   UNL     1      36.047 -21.764 -18.342  0.00  0.00    -0.000 C 
ATOM     13  C   UNL     1      33.832 -22.060 -19.264  0.00  0.00    -0.000 C 
ATOM     14  C   UNL     1      35.127 -21.552 -19.370  0.00  0.00    -0.000 C 
ENDBRANCH   1   9
BRANCH   1  15
ATOM     15  C   UNL     1      32.847 -23.073 -15.076  0.00  0.00    -0.014 C 
BRANCH  15  16
ATOM     16  C   UNL     1      31.817 -24.073 -14.539  0.00  0.00    -0.077 C 
BRANCH  16  17
ATOM     17  N   UNL     1      30.783 -24.316 -15.539  0.00  0.00    +0.384 N 
ATOM     18  C   UNL     1      30.283 -23.051 -16.080  0.00  0.00    -0.101 C 
ATOM     19  C   UNL     1      29.683 -25.092 -14.963  0.00  0.00    -0.101 C 
ATOM     20  H   UNL     1      31.194 -24.854 -16.301  0.00  0.00    -0.080 HD
ENDBRANCH  16  17
ENDBRANCH  15  16
ENDBRANCH   1  15
TORSDOF 5
ENDMDL
