MODEL 1
REMARK VINA RESULT:      -8.1      0.000      0.000
REMARK  Name = 6861563
REMARK  4 active torsions:
REMARK  status: ('A' for Active; 'I' for Inactive)
REMARK    1  A    between atoms: N_3  and  C_6
REMARK    2  A    between atoms: N_3  and  N_13
REMARK    3  A    between atoms: N_13  and  C_16
REMARK    4  A    between atoms: C_16  and  N_17
REMARK                            x       y       z     vdW  Elec       q    Type
REMARK                         _______ _______ _______ _____ _____    ______ ____
ROOT
ATOM      1  O   UNL     1      34.805 -17.034 -25.812  0.00  0.00    -0.273 OA
ATOM      2  N   UNL     1      33.572 -15.269 -24.806  0.00  0.00    -0.256 N 
ATOM      3  C   UNL     1      33.348 -14.894 -23.467  0.00  0.00    +0.052 C 
ATOM      4  C   UNL     1      34.004 -15.766 -22.600  0.00  0.00    +0.018 C 
ATOM      5  C   UNL     1      34.676 -16.741 -23.437  0.00  0.00    +0.193 C 
ATOM      6  C   UNL     1      34.378 -16.393 -24.876  0.00  0.00    +0.251 C 
ATOM      7  C   UNL     1      32.607 -13.837 -22.971  0.00  0.00    +0.015 C 
ATOM      8  C   UNL     1      33.959 -15.638 -21.227  0.00  0.00    -0.001 C 
ATOM      9  C   UNL     1      33.021 -14.557 -25.934  0.00  0.00    +0.120 C 
ATOM     10  C   UNL     1      32.543 -13.683 -21.581  0.00  0.00    +0.001 C 
ATOM     11  C   UNL     1      33.212 -14.573 -20.719  0.00  0.00    -0.000 C 
ENDROOT
BRANCH   5  12
ATOM     12  N   UNL     1      35.407 -17.744 -23.102  0.00  0.00    -0.120 NA
BRANCH  12  13
ATOM     13  N   UNL     1      34.699 -18.827 -22.696  0.00  0.00    -0.244 N 
ATOM     14  H   UNL     1      34.160 -19.326 -23.352  0.00  0.00    +0.170 HD
BRANCH  13  16
ATOM     15  S   UNL     1      33.431 -20.058 -20.706  0.00  0.00    -0.018 S 
ATOM     16  C   UNL     1      34.722 -19.241 -21.388  0.00  0.00    +0.143 C 
BRANCH  16  17
ATOM     17  N   UNL     1      35.849 -18.955 -20.666  0.00  0.00    -0.340 N 
ATOM     18  H   UNL     1      36.715 -18.858 -21.123  0.00  0.00    +0.144 HD
ATOM     19  H   UNL     1      35.793 -18.845 -19.690  0.00  0.00    +0.144 HD
ENDBRANCH  16  17
ENDBRANCH  13  16
ENDBRANCH  12  13
ENDBRANCH   5  12
TORSDOF 4
ENDMDL
MODEL 2
REMARK VINA RESULT:      -7.8      2.035      2.581
REMARK  Name = 6861563
REMARK  4 active torsions:
REMARK  status: ('A' for Active; 'I' for Inactive)
REMARK    1  A    between atoms: N_3  and  C_6
REMARK    2  A    between atoms: N_3  and  N_13
REMARK    3  A    between atoms: N_13  and  C_16
REMARK    4  A    between atoms: C_16  and  N_17
REMARK                            x       y       z     vdW  Elec       q    Type
REMARK                         _______ _______ _______ _____ _____    ______ ____
ROOT
ATOM      1  O   UNL     1      35.027 -19.777 -23.520  0.00  0.00    -0.273 OA
ATOM      2  N   UNL     1      34.704 -17.446 -23.860  0.00  0.00    -0.256 N 
ATOM      3  C   UNL     1      34.575 -16.355 -22.979  0.00  0.00    +0.052 C 
ATOM      4  C   UNL     1      34.661 -16.783 -21.655  0.00  0.00    +0.018 C 
ATOM      5  C   UNL     1      34.855 -18.220 -21.705  0.00  0.00    +0.193 C 
ATOM      6  C   UNL     1      34.880 -18.628 -23.159  0.00  0.00    +0.251 C 
ATOM      7  C   UNL     1      34.388 -15.017 -23.273  0.00  0.00    +0.015 C 
ATOM      8  C   UNL     1      34.568 -15.925 -20.580  0.00  0.00    -0.001 C 
ATOM      9  C   UNL     1      34.655 -17.319 -25.296  0.00  0.00    +0.120 C 
ATOM     10  C   UNL     1      34.290 -14.123 -22.200  0.00  0.00    +0.001 C 
ATOM     11  C   UNL     1      34.379 -14.573 -20.868  0.00  0.00    -0.000 C 
ENDROOT
BRANCH   5  12
ATOM     12  N   UNL     1      34.989 -19.063 -20.745  0.00  0.00    -0.120 NA
BRANCH  12  13
ATOM     13  N   UNL     1      33.955 -19.934 -20.631  0.00  0.00    -0.244 N 
ATOM     14  H   UNL     1      33.111 -19.746 -21.103  0.00  0.00    +0.170 HD
BRANCH  13  16
ATOM     15  S   UNL     1      35.550 -21.632 -19.347  0.00  0.00    -0.018 S 
ATOM     16  C   UNL     1      34.065 -21.072 -19.872  0.00  0.00    +0.143 C 
BRANCH  16  17
ATOM     17  N   UNL     1      32.903 -21.727 -19.565  0.00  0.00    -0.340 N 
ATOM     18  H   UNL     1      32.097 -21.582 -20.111  0.00  0.00    +0.144 HD
ATOM     19  H   UNL     1      32.874 -22.345 -18.800  0.00  0.00    +0.144 HD
ENDBRANCH  16  17
ENDBRANCH  13  16
ENDBRANCH  12  13
ENDBRANCH   5  12
TORSDOF 4
ENDMDL
MODEL 3
REMARK VINA RESULT:      -7.7      2.450      3.847
REMARK  Name = 6861563
REMARK  4 active torsions:
REMARK  status: ('A' for Active; 'I' for Inactive)
REMARK    1  A    between atoms: N_3  and  C_6
REMARK    2  A    between atoms: N_3  and  N_13
REMARK    3  A    between atoms: N_13  and  C_16
REMARK    4  A    between atoms: C_16  and  N_17
REMARK                            x       y       z     vdW  Elec       q    Type
REMARK                         _______ _______ _______ _____ _____    ______ ____
ROOT
ATOM      1  O   UNL     1      34.956 -16.131 -19.899  0.00  0.00    -0.273 OA
ATOM      2  N   UNL     1      34.627 -15.792 -22.229  0.00  0.00    -0.256 N 
ATOM      3  C   UNL     1      34.572 -16.667 -23.330  0.00  0.00    +0.052 C 
ATOM      4  C   UNL     1      34.753 -17.986 -22.914  0.00  0.00    +0.018 C 
ATOM      5  C   UNL     1      34.931 -17.937 -21.476  0.00  0.00    +0.193 C 
ATOM      6  C   UNL     1      34.843 -16.490 -21.052  0.00  0.00    +0.251 C 
ATOM      7  C   UNL     1      34.374 -16.375 -24.667  0.00  0.00    +0.015 C 
ATOM      8  C   UNL     1      34.746 -19.056 -23.784  0.00  0.00    -0.001 C 
ATOM      9  C   UNL     1      34.475 -14.361 -22.343  0.00  0.00    +0.120 C 
ATOM     10  C   UNL     1      34.362 -17.442 -25.572  0.00  0.00    +0.001 C 
ATOM     11  C   UNL     1      34.547 -18.768 -25.135  0.00  0.00    -0.000 C 
ENDROOT
BRANCH   5  12
ATOM     12  N   UNL     1      35.129 -18.893 -20.641  0.00  0.00    -0.120 NA
BRANCH  12  13
ATOM     13  N   UNL     1      34.083 -19.751 -20.530  0.00  0.00    -0.244 N 
ATOM     14  H   UNL     1      33.207 -19.494 -20.900  0.00  0.00    +0.170 HD
BRANCH  13  16
ATOM     15  S   UNL     1      35.719 -21.525 -19.411  0.00  0.00    -0.018 S 
ATOM     16  C   UNL     1      34.225 -20.969 -19.915  0.00  0.00    +0.143 C 
BRANCH  16  17
ATOM     17  N   UNL     1      33.088 -21.708 -19.732  0.00  0.00    -0.340 N 
ATOM     18  H   UNL     1      33.060 -22.405 -19.037  0.00  0.00    +0.144 HD
ATOM     19  H   UNL     1      32.298 -21.542 -20.294  0.00  0.00    +0.144 HD
ENDBRANCH  16  17
ENDBRANCH  13  16
ENDBRANCH  12  13
ENDBRANCH   5  12
TORSDOF 4
ENDMDL
MODEL 4
REMARK VINA RESULT:      -7.6      3.335      5.126
REMARK  Name = 6861563
REMARK  4 active torsions:
REMARK  status: ('A' for Active; 'I' for Inactive)
REMARK    1  A    between atoms: N_3  and  C_6
REMARK    2  A    between atoms: N_3  and  N_13
REMARK    3  A    between atoms: N_13  and  C_16
REMARK    4  A    between atoms: C_16  and  N_17
REMARK                            x       y       z     vdW  Elec       q    Type
REMARK                         _______ _______ _______ _____ _____    ______ ____
ROOT
ATOM      1  O   UNL     1      33.484 -15.169 -26.414  0.00  0.00    -0.273 OA
ATOM      2  N   UNL     1      34.239 -16.478 -24.579  0.00  0.00    -0.256 N 
ATOM      3  C   UNL     1      34.381 -16.214 -23.204  0.00  0.00    +0.052 C 
ATOM      4  C   UNL     1      33.986 -14.908 -22.914  0.00  0.00    +0.018 C 
ATOM      5  C   UNL     1      33.573 -14.321 -24.174  0.00  0.00    +0.193 C 
ATOM      6  C   UNL     1      33.748 -15.369 -25.248  0.00  0.00    +0.251 C 
ATOM      7  C   UNL     1      34.835 -17.048 -22.199  0.00  0.00    +0.015 C 
ATOM      8  C   UNL     1      34.020 -14.377 -21.642  0.00  0.00    -0.001 C 
ATOM      9  C   UNL     1      34.570 -17.746 -25.184  0.00  0.00    +0.120 C 
ATOM     10  C   UNL     1      34.880 -16.535 -20.897  0.00  0.00    +0.001 C 
ATOM     11  C   UNL     1      34.477 -15.214 -20.623  0.00  0.00    -0.000 C 
ENDROOT
BRANCH   5  12
ATOM     12  N   UNL     1      33.130 -13.141 -24.422  0.00  0.00    -0.120 NA
BRANCH  12  13
ATOM     13  N   UNL     1      33.995 -12.365 -25.122  0.00  0.00    -0.244 N 
ATOM     14  H   UNL     1      34.447 -12.739 -25.913  0.00  0.00    +0.170 HD
BRANCH  13  16
ATOM     15  S   UNL     1      33.222 -10.236 -23.727  0.00  0.00    -0.018 S 
ATOM     16  C   UNL     1      34.251 -11.070 -24.748  0.00  0.00    +0.143 C 
BRANCH  16  17
ATOM     17  N   UNL     1      35.385 -10.491 -25.250  0.00  0.00    -0.340 N 
ATOM     18  H   UNL     1      35.528 -10.451 -26.224  0.00  0.00    +0.144 HD
ATOM     19  H   UNL     1      36.057 -10.115 -24.639  0.00  0.00    +0.144 HD
ENDBRANCH  16  17
ENDBRANCH  13  16
ENDBRANCH  12  13
ENDBRANCH   5  12
TORSDOF 4
ENDMDL
MODEL 5
REMARK VINA RESULT:      -7.6      1.736      2.994
REMARK  Name = 6861563
REMARK  4 active torsions:
REMARK  status: ('A' for Active; 'I' for Inactive)
REMARK    1  A    between atoms: N_3  and  C_6
REMARK    2  A    between atoms: N_3  and  N_13
REMARK    3  A    between atoms: N_13  and  C_16
REMARK    4  A    between atoms: C_16  and  N_17
REMARK                            x       y       z     vdW  Elec       q    Type
REMARK                         _______ _______ _______ _____ _____    ______ ____
ROOT
ATOM      1  O   UNL     1      35.101 -16.458 -20.248  0.00  0.00    -0.273 OA
ATOM      2  N   UNL     1      33.931 -15.063 -21.777  0.00  0.00    -0.256 N 
ATOM      3  C   UNL     1      33.735 -15.116 -23.170  0.00  0.00    +0.052 C 
ATOM      4  C   UNL     1      34.377 -16.229 -23.711  0.00  0.00    +0.018 C 
ATOM      5  C   UNL     1      35.010 -16.912 -22.600  0.00  0.00    +0.193 C 
ATOM      6  C   UNL     1      34.703 -16.130 -21.345  0.00  0.00    +0.251 C 
ATOM      7  C   UNL     1      33.030 -14.248 -23.984  0.00  0.00    +0.015 C 
ATOM      8  C   UNL     1      34.353 -16.531 -25.057  0.00  0.00    -0.001 C 
ATOM      9  C   UNL     1      33.388 -14.024 -20.936  0.00  0.00    +0.120 C 
ATOM     10  C   UNL     1      32.989 -14.530 -25.354  0.00  0.00    +0.001 C 
ATOM     11  C   UNL     1      33.643 -15.659 -25.884  0.00  0.00    -0.000 C 
ENDROOT
BRANCH   5  12
ATOM     12  N   UNL     1      35.717 -17.985 -22.593  0.00  0.00    -0.120 NA
BRANCH  12  13
ATOM     13  N   UNL     1      35.003 -19.110 -22.336  0.00  0.00    -0.244 N 
ATOM     14  H   UNL     1      34.514 -19.550 -23.069  0.00  0.00    +0.170 HD
BRANCH  13  16
ATOM     15  S   UNL     1      33.556 -20.350 -20.479  0.00  0.00    -0.018 S 
ATOM     16  C   UNL     1      34.952 -19.647 -21.074  0.00  0.00    +0.143 C 
BRANCH  16  17
ATOM     17  N   UNL     1      36.094 -19.578 -20.323  0.00  0.00    -0.340 N 
ATOM     18  H   UNL     1      36.418 -18.707 -19.998  0.00  0.00    +0.144 HD
ATOM     19  H   UNL     1      36.592 -20.399 -20.109  0.00  0.00    +0.144 HD
ENDBRANCH  16  17
ENDBRANCH  13  16
ENDBRANCH  12  13
ENDBRANCH   5  12
TORSDOF 4
ENDMDL
MODEL 6
REMARK VINA RESULT:      -7.5      7.004      9.879
REMARK  Name = 6861563
REMARK  4 active torsions:
REMARK  status: ('A' for Active; 'I' for Inactive)
REMARK    1  A    between atoms: N_3  and  C_6
REMARK    2  A    between atoms: N_3  and  N_13
REMARK    3  A    between atoms: N_13  and  C_16
REMARK    4  A    between atoms: C_16  and  N_17
REMARK                            x       y       z     vdW  Elec       q    Type
REMARK                         _______ _______ _______ _____ _____    ______ ____
ROOT
ATOM      1  O   UNL     1      35.374 -23.064 -17.253  0.00  0.00    -0.273 OA
ATOM      2  N   UNL     1      34.051 -23.357 -15.300  0.00  0.00    -0.256 N 
ATOM      3  C   UNL     1      32.661 -23.372 -15.073  0.00  0.00    +0.052 C 
ATOM      4  C   UNL     1      31.970 -23.170 -16.267  0.00  0.00    +0.018 C 
ATOM      5  C   UNL     1      32.978 -23.020 -17.299  0.00  0.00    +0.193 C 
ATOM      6  C   UNL     1      34.331 -23.147 -16.640  0.00  0.00    +0.251 C 
ATOM      7  C   UNL     1      31.974 -23.552 -13.887  0.00  0.00    +0.015 C 
ATOM      8  C   UNL     1      30.593 -23.137 -16.343  0.00  0.00    -0.001 C 
ATOM      9  C   UNL     1      35.029 -23.539 -14.254  0.00  0.00    +0.120 C 
ATOM     10  C   UNL     1      30.576 -23.523 -13.934  0.00  0.00    +0.001 C 
ATOM     11  C   UNL     1      29.893 -23.318 -15.149  0.00  0.00    -0.000 C 
ENDROOT
BRANCH   5  12
ATOM     12  N   UNL     1      32.836 -22.815 -18.560  0.00  0.00    -0.120 NA
BRANCH  12  13
ATOM     13  N   UNL     1      32.831 -21.503 -18.905  0.00  0.00    -0.244 N 
ATOM     14  H   UNL     1      32.165 -20.900 -18.501  0.00  0.00    +0.170 HD
BRANCH  13  16
ATOM     15  S   UNL     1      33.303 -19.840 -20.927  0.00  0.00    -0.018 S 
ATOM     16  C   UNL     1      33.737 -21.001 -19.805  0.00  0.00    +0.143 C 
BRANCH  16  17
ATOM     17  N   UNL     1      35.012 -21.495 -19.743  0.00  0.00    -0.340 N 
ATOM     18  H   UNL     1      35.763 -20.966 -20.096  0.00  0.00    +0.144 HD
ATOM     19  H   UNL     1      35.178 -22.379 -19.344  0.00  0.00    +0.144 HD
ENDBRANCH  16  17
ENDBRANCH  13  16
ENDBRANCH  12  13
ENDBRANCH   5  12
TORSDOF 4
ENDMDL
MODEL 7
REMARK VINA RESULT:      -7.5      9.004     10.972
REMARK  Name = 6861563
REMARK  4 active torsions:
REMARK  status: ('A' for Active; 'I' for Inactive)
REMARK    1  A    between atoms: N_3  and  C_6
REMARK    2  A    between atoms: N_3  and  N_13
REMARK    3  A    between atoms: N_13  and  C_16
REMARK    4  A    between atoms: C_16  and  N_17
REMARK                            x       y       z     vdW  Elec       q    Type
REMARK                         _______ _______ _______ _____ _____    ______ ____
ROOT
ATOM      1  O   UNL     1      35.850 -23.397 -16.511  0.00  0.00    -0.273 OA
ATOM      2  N   UNL     1      33.530 -23.066 -16.911  0.00  0.00    -0.256 N 
ATOM      3  C   UNL     1      32.387 -23.190 -16.099  0.00  0.00    +0.052 C 
ATOM      4  C   UNL     1      32.744 -23.590 -14.812  0.00  0.00    +0.018 C 
ATOM      5  C   UNL     1      34.188 -23.724 -14.815  0.00  0.00    +0.193 C 
ATOM      6  C   UNL     1      34.678 -23.375 -16.200  0.00  0.00    +0.251 C 
ATOM      7  C   UNL     1      31.060 -22.973 -16.423  0.00  0.00    +0.015 C 
ATOM      8  C   UNL     1      31.824 -23.790 -13.804  0.00  0.00    -0.001 C 
ATOM      9  C   UNL     1      33.481 -22.668 -18.298  0.00  0.00    +0.120 C 
ATOM     10  C   UNL     1      30.105 -23.169 -15.420  0.00  0.00    +0.001 C 
ATOM     11  C   UNL     1      30.483 -23.573 -14.125  0.00  0.00    -0.000 C 
ENDROOT
BRANCH   5  12
ATOM     12  N   UNL     1      34.981 -24.069 -13.864  0.00  0.00    -0.120 NA
BRANCH  12  13
ATOM     13  N   UNL     1      35.503 -25.313 -14.010  0.00  0.00    -0.244 N 
ATOM     14  H   UNL     1      34.898 -26.080 -14.131  0.00  0.00    +0.170 HD
BRANCH  13  16
ATOM     15  S   UNL     1      37.694 -25.733 -12.559  0.00  0.00    -0.018 S 
ATOM     16  C   UNL     1      36.860 -25.520 -13.993  0.00  0.00    +0.143 C 
BRANCH  16  17
ATOM     17  N   UNL     1      37.499 -25.544 -15.203  0.00  0.00    -0.340 N 
ATOM     18  H   UNL     1      37.860 -26.391 -15.552  0.00  0.00    +0.144 HD
ATOM     19  H   UNL     1      37.597 -24.715 -15.724  0.00  0.00    +0.144 HD
ENDBRANCH  16  17
ENDBRANCH  13  16
ENDBRANCH  12  13
ENDBRANCH   5  12
TORSDOF 4
ENDMDL
MODEL 8
REMARK VINA RESULT:      -7.4      6.921      9.065
REMARK  Name = 6861563
REMARK  4 active torsions:
REMARK  status: ('A' for Active; 'I' for Inactive)
REMARK    1  A    between atoms: N_3  and  C_6
REMARK    2  A    between atoms: N_3  and  N_13
REMARK    3  A    between atoms: N_13  and  C_16
REMARK    4  A    between atoms: C_16  and  N_17
REMARK                            x       y       z     vdW  Elec       q    Type
REMARK                         _______ _______ _______ _____ _____    ______ ____
ROOT
ATOM      1  O   UNL     1      32.881 -22.286 -19.723  0.00  0.00    -0.273 OA
ATOM      2  N   UNL     1      35.085 -21.861 -18.942  0.00  0.00    -0.256 N 
ATOM      3  C   UNL     1      35.746 -22.139 -17.730  0.00  0.00    +0.052 C 
ATOM      4  C   UNL     1      34.891 -22.797 -16.847  0.00  0.00    +0.018 C 
ATOM      5  C   UNL     1      33.625 -22.940 -17.540  0.00  0.00    +0.193 C 
ATOM      6  C   UNL     1      33.779 -22.320 -18.909  0.00  0.00    +0.251 C 
ATOM      7  C   UNL     1      37.048 -21.850 -17.362  0.00  0.00    +0.015 C 
ATOM      8  C   UNL     1      35.275 -23.193 -15.583  0.00  0.00    -0.001 C 
ATOM      9  C   UNL     1      35.711 -21.184 -20.052  0.00  0.00    +0.120 C 
ATOM     10  C   UNL     1      37.464 -22.240 -16.084  0.00  0.00    +0.001 C 
ATOM     11  C   UNL     1      36.587 -22.904 -15.204  0.00  0.00    -0.000 C 
ENDROOT
BRANCH   5  12
ATOM     12  N   UNL     1      32.529 -23.479 -17.141  0.00  0.00    -0.120 NA
BRANCH  12  13
ATOM     13  N   UNL     1      31.459 -22.646 -17.189  0.00  0.00    -0.244 N 
ATOM     14  H   UNL     1      31.464 -21.889 -17.820  0.00  0.00    +0.170 HD
BRANCH  13  16
ATOM     15  S   UNL     1      30.546 -23.188 -14.750  0.00  0.00    -0.018 S 
ATOM     16  C   UNL     1      30.371 -22.839 -16.376  0.00  0.00    +0.143 C 
BRANCH  16  17
ATOM     17  N   UNL     1      29.136 -22.734 -16.956  0.00  0.00    -0.340 N 
ATOM     18  H   UNL     1      28.324 -22.805 -16.404  0.00  0.00    +0.144 HD
ATOM     19  H   UNL     1      29.059 -22.586 -17.926  0.00  0.00    +0.144 HD
ENDBRANCH  16  17
ENDBRANCH  13  16
ENDBRANCH  12  13
ENDBRANCH   5  12
TORSDOF 4
ENDMDL
MODEL 9
REMARK VINA RESULT:      -7.3      3.199      5.451
REMARK  Name = 6861563
REMARK  4 active torsions:
REMARK  status: ('A' for Active; 'I' for Inactive)
REMARK    1  A    between atoms: N_3  and  C_6
REMARK    2  A    between atoms: N_3  and  N_13
REMARK    3  A    between atoms: N_13  and  C_16
REMARK    4  A    between atoms: C_16  and  N_17
REMARK                            x       y       z     vdW  Elec       q    Type
REMARK                         _______ _______ _______ _____ _____    ______ ____
ROOT
ATOM      1  O   UNL     1      35.043 -16.092 -19.931  0.00  0.00    -0.273 OA
ATOM      2  N   UNL     1      34.978 -17.848 -21.531  0.00  0.00    -0.256 N 
ATOM      3  C   UNL     1      34.762 -17.874 -22.922  0.00  0.00    +0.052 C 
ATOM      4  C   UNL     1      34.549 -16.584 -23.407  0.00  0.00    +0.018 C 
ATOM      5  C   UNL     1      34.635 -15.700 -22.260  0.00  0.00    +0.193 C 
ATOM      6  C   UNL     1      34.918 -16.552 -21.045  0.00  0.00    +0.251 C 
ATOM      7  C   UNL     1      34.742 -18.958 -23.781  0.00  0.00    +0.015 C 
ATOM      8  C   UNL     1      34.311 -16.310 -24.737  0.00  0.00    -0.001 C 
ATOM      9  C   UNL     1      35.226 -19.032 -20.744  0.00  0.00    +0.120 C 
ATOM     10  C   UNL     1      34.502 -18.709 -25.138  0.00  0.00    +0.001 C 
ATOM     11  C   UNL     1      34.289 -17.399 -25.610  0.00  0.00    -0.000 C 
ENDROOT
BRANCH   5  12
ATOM     12  N   UNL     1      34.510 -14.423 -22.198  0.00  0.00    -0.120 NA
BRANCH  12  13
ATOM     13  N   UNL     1      33.232 -14.007 -22.008  0.00  0.00    -0.244 N 
ATOM     14  H   UNL     1      32.659 -14.485 -21.366  0.00  0.00    +0.170 HD
BRANCH  13  16
ATOM     15  S   UNL     1      33.529 -12.274 -24.005  0.00  0.00    -0.018 S 
ATOM     16  C   UNL     1      32.726 -12.931 -22.693  0.00  0.00    +0.143 C 
BRANCH  16  17
ATOM     17  N   UNL     1      31.536 -12.418 -22.252  0.00  0.00    -0.340 N 
ATOM     18  H   UNL     1      30.798 -12.272 -22.887  0.00  0.00    +0.144 HD
ATOM     19  H   UNL     1      31.418 -12.197 -21.301  0.00  0.00    +0.144 HD
ENDBRANCH  16  17
ENDBRANCH  13  16
ENDBRANCH  12  13
ENDBRANCH   5  12
TORSDOF 4
ENDMDL
