MODEL 1
REMARK VINA RESULT:     -10.8      0.000      0.000
REMARK  Name = 11618268
REMARK  3 active torsions:
REMARK  status: ('A' for Active; 'I' for Inactive)
REMARK    1  A    between atoms: N_3  and  C_13
REMARK    2  A    between atoms: C_5  and  C_19
REMARK    3  A    between atoms: C_19  and  N_21
REMARK                            x       y       z     vdW  Elec       q    Type
REMARK                         _______ _______ _______ _____ _____    ______ ____
ROOT
ATOM      1  F   UNL     1      38.271 -24.747 -11.498  0.00  0.00    -0.204 F 
ATOM      2  O   UNL     1      33.442 -24.264 -12.757  0.00  0.00    -0.269 OA
ATOM      3  N   UNL     1      33.457 -23.767 -15.060  0.00  0.00    -0.211 N 
ATOM      4  N   UNL     1      35.545 -23.643 -16.194  0.00  0.00    -0.393 NA
ATOM      5  C   UNL     1      34.250 -23.550 -16.189  0.00  0.00    +0.187 C 
ATOM      6  C   UNL     1      34.043 -24.039 -13.806  0.00  0.00    +0.260 C 
ATOM      7  C   UNL     1      35.519 -24.117 -13.797  0.00  0.00    +0.082 C 
ATOM      8  C   UNL     1      36.205 -23.940 -14.998  0.00  0.00    +0.119 C 
ATOM      9  C   UNL     1      36.212 -24.391 -12.612  0.00  0.00    +0.036 C 
ATOM     10  C   UNL     1      37.602 -24.039 -15.002  0.00  0.00    +0.087 C 
ATOM     11  C   UNL     1      37.603 -24.486 -12.630  0.00  0.00    +0.137 C 
ATOM     12  C   UNL     1      38.298 -24.311 -13.824  0.00  0.00    +0.011 C 
ENDROOT
BRANCH   3  13
ATOM     13  C   UNL     1      32.021 -23.770 -15.125  0.00  0.00    +0.060 C 
ATOM     14  C   UNL     1      31.326 -22.571 -15.022  0.00  0.00    +0.015 C 
ATOM     15  C   UNL     1      31.345 -24.972 -15.289  0.00  0.00    +0.015 C 
ATOM     16  C   UNL     1      29.933 -22.575 -15.086  0.00  0.00    +0.001 C 
ATOM     17  C   UNL     1      29.951 -24.976 -15.353  0.00  0.00    +0.001 C 
ATOM     18  C   UNL     1      29.245 -23.777 -15.251  0.00  0.00    +0.000 C 
ENDBRANCH   3  13
BRANCH   5  19
ATOM     19  C   UNL     1      33.614 -23.122 -17.496  0.00  0.00    +0.138 C 
ATOM     20  C   UNL     1      33.263 -24.337 -18.324  0.00  0.00    +0.030 C 
BRANCH  19  21
ATOM     21  N   UNL     1      34.574 -22.302 -18.185  0.00  0.00    -0.315 N 
ATOM     22  N   UNL     1      36.563 -20.513 -19.707  0.00  0.00    -0.270 NA
ATOM     23  N   UNL     1      32.961 -21.253 -19.617  0.00  0.00    -0.232 NA
ATOM     24  N   UNL     1      35.976 -19.099 -21.328  0.00  0.00    -0.307 N 
ATOM     25  N   UNL     1      33.594 -19.582 -21.277  0.00  0.00    -0.232 NA
ATOM     26  C   UNL     1      34.246 -21.411 -19.199  0.00  0.00    +0.124 C 
ATOM     27  C   UNL     1      35.209 -20.638 -19.837  0.00  0.00    +0.164 C 
ATOM     28  C   UNL     1      34.868 -19.751 -20.849  0.00  0.00    +0.125 C 
ATOM     29  C   UNL     1      36.976 -19.580 -20.621  0.00  0.00    +0.163 C 
ATOM     30  C   UNL     1      32.720 -20.366 -20.611  0.00  0.00    +0.252 C 
ATOM     31  H   UNL     1      35.519 -22.376 -17.923  0.00  0.00    +0.148 HD
ATOM     32  H   UNL     1      37.134 -21.003 -19.073  0.00  0.00    +0.126 HD
ATOM     33  H   UNL     1      36.014 -18.423 -22.043  0.00  0.00    +0.149 HD
ENDBRANCH  19  21
ENDBRANCH   5  19
TORSDOF 3
ENDMDL
MODEL 2
REMARK VINA RESULT:     -10.7      3.238      6.758
REMARK  Name = 11618268
REMARK  3 active torsions:
REMARK  status: ('A' for Active; 'I' for Inactive)
REMARK    1  A    between atoms: N_3  and  C_13
REMARK    2  A    between atoms: C_5  and  C_19
REMARK    3  A    between atoms: C_19  and  N_21
REMARK                            x       y       z     vdW  Elec       q    Type
REMARK                         _______ _______ _______ _____ _____    ______ ____
ROOT
ATOM      1  F   UNL     1      34.603 -19.923 -21.645  0.00  0.00    -0.204 F 
ATOM      2  O   UNL     1      31.634 -22.104 -18.244  0.00  0.00    -0.269 OA
ATOM      3  N   UNL     1      33.104 -23.099 -16.696  0.00  0.00    -0.211 N 
ATOM      4  N   UNL     1      35.449 -22.860 -17.022  0.00  0.00    -0.393 NA
ATOM      5  C   UNL     1      34.439 -23.330 -16.356  0.00  0.00    +0.187 C 
ATOM      6  C   UNL     1      32.769 -22.379 -17.862  0.00  0.00    +0.260 C 
ATOM      7  C   UNL     1      33.914 -21.865 -18.643  0.00  0.00    +0.082 C 
ATOM      8  C   UNL     1      35.205 -22.107 -18.175  0.00  0.00    +0.119 C 
ATOM      9  C   UNL     1      33.705 -21.128 -19.814  0.00  0.00    +0.036 C 
ATOM     10  C   UNL     1      36.294 -21.601 -18.896  0.00  0.00    +0.087 C 
ATOM     11  C   UNL     1      34.798 -20.630 -20.523  0.00  0.00    +0.137 C 
ATOM     12  C   UNL     1      36.092 -20.865 -20.064  0.00  0.00    +0.011 C 
ENDROOT
BRANCH   3  13
ATOM     13  C   UNL     1      32.017 -23.539 -15.865  0.00  0.00    +0.060 C 
ATOM     14  C   UNL     1      31.472 -24.802 -16.059  0.00  0.00    +0.015 C 
ATOM     15  C   UNL     1      31.524 -22.695 -14.878  0.00  0.00    +0.015 C 
ATOM     16  C   UNL     1      30.418 -25.228 -15.251  0.00  0.00    +0.001 C 
ATOM     17  C   UNL     1      30.470 -23.121 -14.070  0.00  0.00    +0.001 C 
ATOM     18  C   UNL     1      29.916 -24.388 -14.257  0.00  0.00    +0.000 C 
ENDBRANCH   3  13
BRANCH   5  19
ATOM     19  C   UNL     1      34.782 -24.222 -15.180  0.00  0.00    +0.138 C 
ATOM     20  C   UNL     1      34.533 -23.488 -13.882  0.00  0.00    +0.030 C 
BRANCH  19  21
ATOM     21  N   UNL     1      36.172 -24.570 -15.305  0.00  0.00    -0.315 N 
ATOM     22  N   UNL     1      39.147 -25.339 -15.487  0.00  0.00    -0.270 NA
ATOM     23  N   UNL     1      36.412 -25.283 -13.027  0.00  0.00    -0.232 NA
ATOM     24  N   UNL     1      40.329 -26.151 -13.780  0.00  0.00    -0.307 N 
ATOM     25  N   UNL     1      38.528 -26.117 -12.147  0.00  0.00    -0.232 NA
ATOM     26  C   UNL     1      36.940 -25.077 -14.265  0.00  0.00    +0.124 C 
ATOM     27  C   UNL     1      38.281 -25.400 -14.432  0.00  0.00    +0.164 C 
ATOM     28  C   UNL     1      39.038 -25.906 -13.384  0.00  0.00    +0.125 C 
ATOM     29  C   UNL     1      40.360 -25.799 -15.047  0.00  0.00    +0.163 C 
ATOM     30  C   UNL     1      37.223 -25.781 -12.064  0.00  0.00    +0.252 C 
ATOM     31  H   UNL     1      36.605 -24.440 -16.179  0.00  0.00    +0.148 HD
ATOM     32  H   UNL     1      38.936 -25.023 -16.395  0.00  0.00    +0.126 HD
ATOM     33  H   UNL     1      41.067 -26.508 -13.237  0.00  0.00    +0.149 HD
ENDBRANCH  19  21
ENDBRANCH   5  19
TORSDOF 3
ENDMDL
MODEL 3
REMARK VINA RESULT:      -9.4      3.090      6.874
REMARK  Name = 11618268
REMARK  3 active torsions:
REMARK  status: ('A' for Active; 'I' for Inactive)
REMARK    1  A    between atoms: N_3  and  C_13
REMARK    2  A    between atoms: C_5  and  C_19
REMARK    3  A    between atoms: C_19  and  N_21
REMARK                            x       y       z     vdW  Elec       q    Type
REMARK                         _______ _______ _______ _____ _____    ______ ____
ROOT
ATOM      1  F   UNL     1      37.544 -19.953 -20.869  0.00  0.00    -0.204 F 
ATOM      2  O   UNL     1      38.076 -22.241 -16.440  0.00  0.00    -0.269 OA
ATOM      3  N   UNL     1      35.922 -23.022 -15.892  0.00  0.00    -0.211 N 
ATOM      4  N   UNL     1      34.136 -22.628 -17.414  0.00  0.00    -0.393 NA
ATOM      5  C   UNL     1      34.585 -23.096 -16.290  0.00  0.00    +0.187 C 
ATOM      6  C   UNL     1      36.876 -22.349 -16.684  0.00  0.00    +0.260 C 
ATOM      7  C   UNL     1      36.367 -21.787 -17.953  0.00  0.00    +0.082 C 
ATOM      8  C   UNL     1      35.022 -21.973 -18.275  0.00  0.00    +0.119 C 
ATOM      9  C   UNL     1      37.223 -21.106 -18.826  0.00  0.00    +0.036 C 
ATOM     10  C   UNL     1      34.539 -21.466 -19.487  0.00  0.00    +0.087 C 
ATOM     11  C   UNL     1      36.729 -20.606 -20.030  0.00  0.00    +0.137 C 
ATOM     12  C   UNL     1      35.388 -20.786 -20.361  0.00  0.00    +0.011 C 
ENDROOT
BRANCH   3  13
ATOM     13  C   UNL     1      36.398 -23.657 -14.694  0.00  0.00    +0.060 C 
ATOM     14  C   UNL     1      37.013 -24.901 -14.773  0.00  0.00    +0.015 C 
ATOM     15  C   UNL     1      36.238 -23.020 -13.470  0.00  0.00    +0.015 C 
ATOM     16  C   UNL     1      37.476 -25.516 -13.610  0.00  0.00    +0.001 C 
ATOM     17  C   UNL     1      36.701 -23.635 -12.307  0.00  0.00    +0.001 C 
ATOM     18  C   UNL     1      37.320 -24.883 -12.377  0.00  0.00    +0.000 C 
ENDBRANCH   3  13
BRANCH   5  19
ATOM     19  C   UNL     1      33.547 -23.698 -15.365  0.00  0.00    +0.138 C 
ATOM     20  C   UNL     1      33.652 -25.206 -15.379  0.00  0.00    +0.030 C 
BRANCH  19  21
ATOM     21  N   UNL     1      32.258 -23.278 -15.844  0.00  0.00    -0.315 N 
ATOM     22  N   UNL     1      29.462 -22.438 -16.819  0.00  0.00    -0.270 NA
ATOM     23  N   UNL     1      31.025 -24.881 -14.556  0.00  0.00    -0.232 NA
ATOM     24  N   UNL     1      27.568 -23.402 -16.146  0.00  0.00    -0.307 N 
ATOM     25  N   UNL     1      28.591 -25.021 -14.648  0.00  0.00    -0.232 NA
ATOM     26  C   UNL     1      31.058 -23.854 -15.448  0.00  0.00    +0.124 C 
ATOM     27  C   UNL     1      29.835 -23.413 -15.938  0.00  0.00    +0.164 C 
ATOM     28  C   UNL     1      28.642 -23.998 -15.534  0.00  0.00    +0.125 C 
ATOM     29  C   UNL     1      28.096 -22.471 -16.911  0.00  0.00    +0.163 C 
ATOM     30  C   UNL     1      29.816 -25.391 -14.219  0.00  0.00    +0.252 C 
ATOM     31  H   UNL     1      32.224 -22.538 -16.492  0.00  0.00    +0.148 HD
ATOM     32  H   UNL     1      30.065 -21.826 -17.299  0.00  0.00    +0.126 HD
ATOM     33  H   UNL     1      26.615 -23.623 -16.037  0.00  0.00    +0.149 HD
ENDBRANCH  19  21
ENDBRANCH   5  19
TORSDOF 3
ENDMDL
MODEL 4
REMARK VINA RESULT:      -9.1     12.764     16.627
REMARK  Name = 11618268
REMARK  3 active torsions:
REMARK  status: ('A' for Active; 'I' for Inactive)
REMARK    1  A    between atoms: N_3  and  C_13
REMARK    2  A    between atoms: C_5  and  C_19
REMARK    3  A    between atoms: C_19  and  N_21
REMARK                            x       y       z     vdW  Elec       q    Type
REMARK                         _______ _______ _______ _____ _____    ______ ____
ROOT
ATOM      1  F   UNL     1      30.794  -3.033 -25.808  0.00  0.00    -0.204 F 
ATOM      2  O   UNL     1      30.364  -6.913 -22.662  0.00  0.00    -0.269 OA
ATOM      3  N   UNL     1      32.244  -8.265 -23.097  0.00  0.00    -0.211 N 
ATOM      4  N   UNL     1      33.807  -7.561 -24.747  0.00  0.00    -0.393 NA
ATOM      5  C   UNL     1      33.399  -8.423 -23.866  0.00  0.00    +0.187 C 
ATOM      6  C   UNL     1      31.390  -7.159 -23.292  0.00  0.00    +0.260 C 
ATOM      7  C   UNL     1      31.832  -6.188 -24.316  0.00  0.00    +0.082 C 
ATOM      8  C   UNL     1      33.036  -6.419 -24.982  0.00  0.00    +0.119 C 
ATOM      9  C   UNL     1      31.072  -5.045 -24.591  0.00  0.00    +0.036 C 
ATOM     10  C   UNL     1      33.473  -5.490 -25.933  0.00  0.00    +0.087 C 
ATOM     11  C   UNL     1      31.519  -4.129 -25.541  0.00  0.00    +0.137 C 
ATOM     12  C   UNL     1      32.719  -4.349 -26.212  0.00  0.00    +0.011 C 
ENDROOT
BRANCH   3  13
ATOM     13  C   UNL     1      31.892  -9.184 -22.050  0.00  0.00    +0.060 C 
ATOM     14  C   UNL     1      31.194 -10.345 -22.360  0.00  0.00    +0.015 C 
ATOM     15  C   UNL     1      32.254  -8.901 -20.739  0.00  0.00    +0.015 C 
ATOM     16  C   UNL     1      30.854 -11.237 -21.343  0.00  0.00    +0.001 C 
ATOM     17  C   UNL     1      31.914  -9.793 -19.722  0.00  0.00    +0.001 C 
ATOM     18  C   UNL     1      31.214 -10.961 -20.024  0.00  0.00    +0.000 C 
ENDBRANCH   3  13
BRANCH   5  19
ATOM     19  C   UNL     1      34.230  -9.684 -23.743  0.00  0.00    +0.138 C 
ATOM     20  C   UNL     1      35.692  -9.365 -23.959  0.00  0.00    +0.030 C 
BRANCH  19  21
ATOM     21  N   UNL     1      33.760 -10.601 -24.746  0.00  0.00    -0.315 N 
ATOM     22  N   UNL     1      32.764 -12.628 -26.836  0.00  0.00    -0.270 NA
ATOM     23  N   UNL     1      33.989 -12.550 -23.368  0.00  0.00    -0.232 NA
ATOM     24  N   UNL     1      32.608 -14.821 -26.466  0.00  0.00    -0.307 N 
ATOM     25  N   UNL     1      33.417 -14.781 -24.174  0.00  0.00    -0.232 NA
ATOM     26  C   UNL     1      33.649 -11.971 -24.552  0.00  0.00    +0.124 C 
ATOM     27  C   UNL     1      33.189 -12.820 -25.552  0.00  0.00    +0.164 C 
ATOM     28  C   UNL     1      33.084 -14.188 -25.346  0.00  0.00    +0.125 C 
ATOM     29  C   UNL     1      32.427 -13.856 -27.342  0.00  0.00    +0.163 C 
ATOM     30  C   UNL     1      33.853 -13.893 -23.256  0.00  0.00    +0.252 C 
ATOM     31  H   UNL     1      33.501 -10.235 -25.622  0.00  0.00    +0.148 HD
ATOM     32  H   UNL     1      32.711 -11.767 -27.309  0.00  0.00    +0.126 HD
ATOM     33  H   UNL     1      32.441 -15.783 -26.588  0.00  0.00    +0.149 HD
ENDBRANCH  19  21
ENDBRANCH   5  19
TORSDOF 3
ENDMDL
MODEL 5
REMARK VINA RESULT:      -8.6      3.156      7.130
REMARK  Name = 11618268
REMARK  3 active torsions:
REMARK  status: ('A' for Active; 'I' for Inactive)
REMARK    1  A    between atoms: N_3  and  C_13
REMARK    2  A    between atoms: C_5  and  C_19
REMARK    3  A    between atoms: C_19  and  N_21
REMARK                            x       y       z     vdW  Elec       q    Type
REMARK                         _______ _______ _______ _____ _____    ______ ____
ROOT
ATOM      1  F   UNL     1      37.187 -19.531 -20.721  0.00  0.00    -0.204 F 
ATOM      2  O   UNL     1      38.376 -21.576 -16.301  0.00  0.00    -0.269 OA
ATOM      3  N   UNL     1      36.522 -22.911 -15.725  0.00  0.00    -0.211 N 
ATOM      4  N   UNL     1      34.676 -23.019 -17.223  0.00  0.00    -0.393 NA
ATOM      5  C   UNL     1      35.250 -23.345 -16.105  0.00  0.00    +0.187 C 
ATOM      6  C   UNL     1      37.248 -22.007 -16.529  0.00  0.00    +0.260 C 
ATOM      7  C   UNL     1      36.588 -21.608 -17.791  0.00  0.00    +0.082 C 
ATOM      8  C   UNL     1      35.341 -22.152 -18.095  0.00  0.00    +0.119 C 
ATOM      9  C   UNL     1      37.216 -20.723 -18.675  0.00  0.00    +0.036 C 
ATOM     10  C   UNL     1      34.723 -21.798 -19.301  0.00  0.00    +0.087 C 
ATOM     11  C   UNL     1      36.590 -20.378 -19.872  0.00  0.00    +0.137 C 
ATOM     12  C   UNL     1      35.344 -20.916 -20.186  0.00  0.00    +0.011 C 
ENDROOT
BRANCH   3  13
ATOM     13  C   UNL     1      37.168 -23.389 -14.534  0.00  0.00    +0.060 C 
ATOM     14  C   UNL     1      38.081 -24.433 -14.620  0.00  0.00    +0.015 C 
ATOM     15  C   UNL     1      36.872 -22.802 -13.311  0.00  0.00    +0.015 C 
ATOM     16  C   UNL     1      38.709 -24.896 -13.463  0.00  0.00    +0.001 C 
ATOM     17  C   UNL     1      37.499 -23.265 -12.154  0.00  0.00    +0.001 C 
ATOM     18  C   UNL     1      38.417 -24.313 -12.230  0.00  0.00    +0.000 C 
ENDBRANCH   3  13
BRANCH   5  19
ATOM     19  C   UNL     1      34.426 -24.203 -15.167  0.00  0.00    +0.138 C 
ATOM     20  C   UNL     1      34.979 -25.610 -15.130  0.00  0.00    +0.030 C 
BRANCH  19  21
ATOM     21  N   UNL     1      33.078 -24.205 -15.668  0.00  0.00    -0.315 N 
ATOM     22  N   UNL     1      30.164 -24.203 -16.659  0.00  0.00    -0.270 NA
ATOM     23  N   UNL     1      32.052 -24.081 -13.504  0.00  0.00    -0.232 NA
ATOM     24  N   UNL     1      28.392 -24.105 -15.310  0.00  0.00    -0.307 N 
ATOM     25  N   UNL     1      29.630 -24.025 -13.220  0.00  0.00    -0.232 NA
ATOM     26  C   UNL     1      31.951 -24.145 -14.860  0.00  0.00    +0.124 C 
ATOM     27  C   UNL     1      30.666 -24.149 -15.390  0.00  0.00    +0.164 C 
ATOM     28  C   UNL     1      29.547 -24.090 -14.570  0.00  0.00    +0.125 C 
ATOM     29  C   UNL     1      28.798 -24.174 -16.560  0.00  0.00    +0.163 C 
ATOM     30  C   UNL     1      30.907 -24.026 -12.783  0.00  0.00    +0.252 C 
ATOM     31  H   UNL     1      32.947 -24.250 -16.642  0.00  0.00    +0.148 HD
ATOM     32  H   UNL     1      30.689 -24.252 -17.490  0.00  0.00    +0.126 HD
ATOM     33  H   UNL     1      27.465 -24.073 -14.980  0.00  0.00    +0.149 HD
ENDBRANCH  19  21
ENDBRANCH   5  19
TORSDOF 3
ENDMDL
MODEL 6
REMARK VINA RESULT:      -8.1      9.011     13.604
REMARK  Name = 11618268
REMARK  3 active torsions:
REMARK  status: ('A' for Active; 'I' for Inactive)
REMARK    1  A    between atoms: N_3  and  C_13
REMARK    2  A    between atoms: C_5  and  C_19
REMARK    3  A    between atoms: C_19  and  N_21
REMARK                            x       y       z     vdW  Elec       q    Type
REMARK                         _______ _______ _______ _____ _____    ______ ____
ROOT
ATOM      1  F   UNL     1      31.123  -8.494 -19.135  0.00  0.00    -0.204 F 
ATOM      2  O   UNL     1      33.719  -9.053 -23.387  0.00  0.00    -0.269 OA
ATOM      3  N   UNL     1      33.620 -11.357 -23.867  0.00  0.00    -0.211 N 
ATOM      4  N   UNL     1      32.409 -12.784 -22.398  0.00  0.00    -0.393 NA
ATOM      5  C   UNL     1      33.149 -12.604 -23.448  0.00  0.00    +0.187 C 
ATOM      6  C   UNL     1      33.369 -10.197 -23.104  0.00  0.00    +0.260 C 
ATOM      7  C   UNL     1      32.551 -10.398 -21.890  0.00  0.00    +0.082 C 
ATOM      8  C   UNL     1      32.085 -11.681 -21.602  0.00  0.00    +0.119 C 
ATOM      9  C   UNL     1      32.228  -9.319 -21.060  0.00  0.00    +0.036 C 
ATOM     10  C   UNL     1      31.288 -11.874 -20.467  0.00  0.00    +0.087 C 
ATOM     11  C   UNL     1      31.435  -9.525 -19.932  0.00  0.00    +0.137 C 
ATOM     12  C   UNL     1      30.963 -10.802 -19.636  0.00  0.00    +0.011 C 
ENDROOT
BRANCH   3  13
ATOM     13  C   UNL     1      34.338 -11.186 -25.100  0.00  0.00    +0.060 C 
ATOM     14  C   UNL     1      35.368 -10.257 -25.172  0.00  0.00    +0.015 C 
ATOM     15  C   UNL     1      33.992 -11.952 -26.206  0.00  0.00    +0.015 C 
ATOM     16  C   UNL     1      36.065 -10.092 -26.369  0.00  0.00    +0.001 C 
ATOM     17  C   UNL     1      34.689 -11.788 -27.403  0.00  0.00    +0.001 C 
ATOM     18  C   UNL     1      35.725 -10.857 -27.485  0.00  0.00    +0.000 C 
ENDBRANCH   3  13
BRANCH   5  19
ATOM     19  C   UNL     1      33.544 -13.859 -24.200  0.00  0.00    +0.138 C 
ATOM     20  C   UNL     1      32.349 -14.421 -24.936  0.00  0.00    +0.030 C 
BRANCH  19  21
ATOM     21  N   UNL     1      34.026 -14.802 -23.227  0.00  0.00    -0.315 N 
ATOM     22  N   UNL     1      35.064 -16.879 -21.207  0.00  0.00    -0.270 NA
ATOM     23  N   UNL     1      34.304 -16.595 -24.794  0.00  0.00    -0.232 NA
ATOM     24  N   UNL     1      35.628 -18.967 -21.748  0.00  0.00    -0.307 N 
ATOM     25  N   UNL     1      35.127 -18.790 -24.120  0.00  0.00    -0.232 NA
ATOM     26  C   UNL     1      34.386 -16.109 -23.526  0.00  0.00    +0.124 C 
ATOM     27  C   UNL     1      34.847 -16.986 -22.551  0.00  0.00    +0.164 C 
ATOM     28  C   UNL     1      35.203 -18.290 -22.863  0.00  0.00    +0.125 C 
ATOM     29  C   UNL     1      35.531 -18.090 -20.771  0.00  0.00    +0.163 C 
ATOM     30  C   UNL     1      34.673 -17.880 -25.008  0.00  0.00    +0.252 C 
ATOM     31  H   UNL     1      34.105 -14.503 -22.293  0.00  0.00    +0.148 HD
ATOM     32  H   UNL     1      34.913 -16.078 -20.655  0.00  0.00    +0.126 HD
ATOM     33  H   UNL     1      35.935 -19.900 -21.691  0.00  0.00    +0.149 HD
ENDBRANCH  19  21
ENDBRANCH   5  19
TORSDOF 3
ENDMDL
MODEL 7
REMARK VINA RESULT:      -8.0      3.480      7.675
REMARK  Name = 11618268
REMARK  3 active torsions:
REMARK  status: ('A' for Active; 'I' for Inactive)
REMARK    1  A    between atoms: N_3  and  C_13
REMARK    2  A    between atoms: C_5  and  C_19
REMARK    3  A    between atoms: C_19  and  N_21
REMARK                            x       y       z     vdW  Elec       q    Type
REMARK                         _______ _______ _______ _____ _____    ______ ____
ROOT
ATOM      1  F   UNL     1      27.331 -23.164 -16.000  0.00  0.00    -0.204 F 
ATOM      2  O   UNL     1      31.750 -21.850 -17.971  0.00  0.00    -0.269 OA
ATOM      3  N   UNL     1      33.346 -23.129 -16.802  0.00  0.00    -0.211 N 
ATOM      4  N   UNL     1      32.600 -24.641 -15.124  0.00  0.00    -0.393 NA
ATOM      5  C   UNL     1      33.555 -24.076 -15.798  0.00  0.00    +0.187 C 
ATOM      6  C   UNL     1      32.048 -22.664 -17.100  0.00  0.00    +0.260 C 
ATOM      7  C   UNL     1      30.956 -23.281 -16.316  0.00  0.00    +0.082 C 
ATOM      8  C   UNL     1      31.278 -24.262 -15.378  0.00  0.00    +0.119 C 
ATOM      9  C   UNL     1      29.625 -22.907 -16.530  0.00  0.00    +0.036 C 
ATOM     10  C   UNL     1      30.247 -24.869 -14.651  0.00  0.00    +0.087 C 
ATOM     11  C   UNL     1      28.608 -23.519 -15.798  0.00  0.00    +0.137 C 
ATOM     12  C   UNL     1      28.918 -24.500 -14.860  0.00  0.00    +0.011 C 
ENDROOT
BRANCH   3  13
ATOM     13  C   UNL     1      34.423 -22.616 -17.604  0.00  0.00    +0.060 C 
ATOM     14  C   UNL     1      34.275 -22.539 -18.983  0.00  0.00    +0.015 C 
ATOM     15  C   UNL     1      35.599 -22.204 -16.990  0.00  0.00    +0.015 C 
ATOM     16  C   UNL     1      35.321 -22.040 -19.761  0.00  0.00    +0.001 C 
ATOM     17  C   UNL     1      36.644 -21.705 -17.767  0.00  0.00    +0.001 C 
ATOM     18  C   UNL     1      36.505 -21.624 -19.153  0.00  0.00    +0.000 C 
ENDBRANCH   3  13
BRANCH   5  19
ATOM     19  C   UNL     1      34.963 -24.461 -15.394  0.00  0.00    +0.138 C 
ATOM     20  C   UNL     1      35.342 -25.782 -16.026  0.00  0.00    +0.030 C 
BRANCH  19  21
ATOM     21  N   UNL     1      34.979 -24.566 -13.960  0.00  0.00    -0.315 N 
ATOM     22  N   UNL     1      35.084 -24.737 -10.889  0.00  0.00    -0.270 NA
ATOM     23  N   UNL     1      36.933 -23.204 -13.674  0.00  0.00    -0.232 NA
ATOM     24  N   UNL     1      36.636 -23.737  -9.639  0.00  0.00    -0.307 N 
ATOM     25  N   UNL     1      37.865 -22.720 -11.473  0.00  0.00    -0.232 NA
ATOM     26  C   UNL     1      35.929 -23.957 -13.149  0.00  0.00    +0.124 C 
ATOM     27  C   UNL     1      35.904 -24.086 -11.765  0.00  0.00    +0.164 C 
ATOM     28  C   UNL     1      36.860 -23.473 -10.966  0.00  0.00    +0.125 C 
ATOM     29  C   UNL     1      35.563 -24.499  -9.627  0.00  0.00    +0.163 C 
ATOM     30  C   UNL     1      37.821 -22.643 -12.820  0.00  0.00    +0.252 C 
ATOM     31  H   UNL     1      34.275 -25.099 -13.527  0.00  0.00    +0.148 HD
ATOM     32  H   UNL     1      34.295 -25.278 -11.121  0.00  0.00    +0.126 HD
ATOM     33  H   UNL     1      37.161 -23.427  -8.867  0.00  0.00    +0.149 HD
ENDBRANCH  19  21
ENDBRANCH   5  19
TORSDOF 3
ENDMDL
