MODEL 1
REMARK VINA RESULT:      -9.9      0.000      0.000
REMARK  Name = 107641
REMARK  5 active torsions:
REMARK  status: ('A' for Active; 'I' for Inactive)
REMARK    1  A    between atoms: C_1  and  N_8
REMARK    2  A    between atoms: C_2  and  C_17
REMARK    3  A    between atoms: C_17  and  C_19
REMARK    4  A    between atoms: C_17  and  C_22
REMARK    5  A    between atoms: C_19  and  O_20
REMARK                            x       y       z     vdW  Elec       q    Type
REMARK                         _______ _______ _______ _____ _____    ______ ____
ROOT
ATOM      1  C   UNL     1      34.328 -17.418 -22.307  0.00  0.00    +0.054 C 
ATOM      2  C   UNL     1      34.053 -15.142 -23.908  0.00  0.00    -0.012 C 
ATOM      3  C   UNL     1      34.030 -16.182 -21.727  0.00  0.00    +0.015 C 
ATOM      4  C   UNL     1      34.487 -17.509 -23.693  0.00  0.00    +0.015 C 
ATOM      5  C   UNL     1      33.893 -15.047 -22.526  0.00  0.00    -0.002 C 
ATOM      6  C   UNL     1      34.350 -16.374 -24.492  0.00  0.00    -0.002 C 
ENDROOT
BRANCH   1   8
ATOM      7  O   UNL     1      36.826 -18.690 -21.337  0.00  0.00    -0.270 OA
ATOM      8  N   UNL     1      34.464 -18.549 -21.512  0.00  0.00    -0.251 N 
ATOM      9  C   UNL     1      33.340 -19.336 -21.000  0.00  0.00    +0.125 C 
ATOM     10  C   UNL     1      34.014 -20.414 -20.223  0.00  0.00    +0.002 C 
ATOM     11  C   UNL     1      35.395 -20.262 -20.284  0.00  0.00    +0.052 C 
ATOM     12  C   UNL     1      35.697 -19.081 -21.100  0.00  0.00    +0.253 C 
ATOM     13  C   UNL     1      33.455 -21.459 -19.511  0.00  0.00    -0.002 C 
ATOM     14  C   UNL     1      36.267 -21.126 -19.649  0.00  0.00    +0.004 C 
ATOM     15  C   UNL     1      34.315 -22.348 -18.860  0.00  0.00    -0.000 C 
ATOM     16  C   UNL     1      35.710 -22.183 -18.929  0.00  0.00    +0.000 C 
ENDBRANCH   1   8
BRANCH   2  17
ATOM     17  C   UNL     1      33.907 -13.928 -24.762  0.00  0.00    +0.121 C 
BRANCH  17  19
ATOM     18  O   UNL     1      32.477 -12.564 -23.320  0.00  0.00    -0.250 OA
ATOM     19  C   UNL     1      33.521 -12.683 -23.950  0.00  0.00    +0.317 C 
BRANCH  19  20
ATOM     20  O   UNL     1      34.459 -11.701 -24.000  0.00  0.00    -0.480 OA
ATOM     21  H   UNL     1      35.101 -11.700 -24.683  0.00  0.00    +0.295 HD
ENDBRANCH  19  20
ENDBRANCH  17  19
BRANCH  17  22
ATOM     22  C   UNL     1      32.892 -14.058 -25.931  0.00  0.00    +0.016 C 
ATOM     23  C   UNL     1      33.322 -13.280 -27.168  0.00  0.00    +0.001 C 
ENDBRANCH  17  22
ENDBRANCH   2  17
TORSDOF 5
ENDMDL
MODEL 2
REMARK VINA RESULT:      -9.8      2.226      8.173
REMARK  Name = 107641
REMARK  5 active torsions:
REMARK  status: ('A' for Active; 'I' for Inactive)
REMARK    1  A    between atoms: C_1  and  N_8
REMARK    2  A    between atoms: C_2  and  C_17
REMARK    3  A    between atoms: C_17  and  C_19
REMARK    4  A    between atoms: C_17  and  C_22
REMARK    5  A    between atoms: C_19  and  O_20
REMARK                            x       y       z     vdW  Elec       q    Type
REMARK                         _______ _______ _______ _____ _____    ______ ____
ROOT
ATOM      1  C   UNL     1      34.670 -18.604 -21.382  0.00  0.00    +0.054 C 
ATOM      2  C   UNL     1      35.102 -20.926 -19.887  0.00  0.00    -0.012 C 
ATOM      3  C   UNL     1      33.587 -19.383 -20.965  0.00  0.00    +0.015 C 
ATOM      4  C   UNL     1      35.970 -18.992 -21.046  0.00  0.00    +0.015 C 
ATOM      5  C   UNL     1      33.803 -20.542 -20.220  0.00  0.00    -0.002 C 
ATOM      6  C   UNL     1      36.186 -20.151 -20.300  0.00  0.00    -0.002 C 
ENDROOT
BRANCH   1   8
ATOM      7  O   UNL     1      34.768 -15.784 -20.464  0.00  0.00    -0.270 OA
ATOM      8  N   UNL     1      34.455 -17.450 -22.125  0.00  0.00    -0.251 N 
ATOM      9  C   UNL     1      34.128 -17.438 -23.553  0.00  0.00    +0.125 C 
ATOM     10  C   UNL     1      34.003 -15.985 -23.855  0.00  0.00    +0.002 C 
ATOM     11  C   UNL     1      34.235 -15.232 -22.709  0.00  0.00    +0.052 C 
ATOM     12  C   UNL     1      34.523 -16.148 -21.601  0.00  0.00    +0.253 C 
ATOM     13  C   UNL     1      33.704 -15.363 -25.053  0.00  0.00    -0.002 C 
ATOM     14  C   UNL     1      34.184 -13.851 -22.704  0.00  0.00    +0.004 C 
ATOM     15  C   UNL     1      33.645 -13.967 -25.075  0.00  0.00    -0.000 C 
ATOM     16  C   UNL     1      33.883 -13.216 -23.910  0.00  0.00    +0.000 C 
ENDBRANCH   1   8
BRANCH   2  17
ATOM     17  C   UNL     1      35.333 -22.165 -19.090  0.00  0.00    +0.121 C 
BRANCH  17  19
ATOM     18  O   UNL     1      34.115 -24.069 -20.027  0.00  0.00    -0.250 OA
ATOM     19  C   UNL     1      34.170 -23.162 -19.205  0.00  0.00    +0.317 C 
BRANCH  19  20
ATOM     20  O   UNL     1      33.183 -22.940 -18.297  0.00  0.00    -0.480 OA
ATOM     21  H   UNL     1      32.449 -23.519 -18.252  0.00  0.00    +0.295 HD
ENDBRANCH  19  20
ENDBRANCH  17  19
BRANCH  17  22
ATOM     22  C   UNL     1      35.607 -21.939 -17.577  0.00  0.00    +0.016 C 
ATOM     23  C   UNL     1      37.089 -22.017 -17.234  0.00  0.00    +0.001 C 
ENDBRANCH  17  22
ENDBRANCH   2  17
TORSDOF 5
ENDMDL
MODEL 3
REMARK VINA RESULT:      -9.7      0.959      1.587
REMARK  Name = 107641
REMARK  5 active torsions:
REMARK  status: ('A' for Active; 'I' for Inactive)
REMARK    1  A    between atoms: C_1  and  N_8
REMARK    2  A    between atoms: C_2  and  C_17
REMARK    3  A    between atoms: C_17  and  C_19
REMARK    4  A    between atoms: C_17  and  C_22
REMARK    5  A    between atoms: C_19  and  O_20
REMARK                            x       y       z     vdW  Elec       q    Type
REMARK                         _______ _______ _______ _____ _____    ______ ____
ROOT
ATOM      1  C   UNL     1      34.568 -17.348 -22.283  0.00  0.00    +0.054 C 
ATOM      2  C   UNL     1      34.148 -15.094 -23.882  0.00  0.00    -0.012 C 
ATOM      3  C   UNL     1      34.376 -16.096 -21.694  0.00  0.00    +0.015 C 
ATOM      4  C   UNL     1      34.549 -17.467 -23.675  0.00  0.00    +0.015 C 
ATOM      5  C   UNL     1      34.166 -14.971 -22.492  0.00  0.00    -0.002 C 
ATOM      6  C   UNL     1      34.340 -16.342 -24.473  0.00  0.00    -0.002 C 
ENDROOT
BRANCH   1   8
ATOM      7  O   UNL     1      32.544 -19.186 -21.131  0.00  0.00    -0.270 OA
ATOM      8  N   UNL     1      34.777 -18.468 -21.489  0.00  0.00    -0.251 N 
ATOM      9  C   UNL     1      36.097 -18.947 -21.069  0.00  0.00    +0.125 C 
ATOM     10  C   UNL     1      35.772 -20.150 -20.253  0.00  0.00    +0.002 C 
ATOM     11  C   UNL     1      34.396 -20.344 -20.206  0.00  0.00    +0.052 C 
ATOM     12  C   UNL     1      33.750 -19.284 -20.986  0.00  0.00    +0.253 C 
ATOM     13  C   UNL     1      36.625 -21.016 -19.594  0.00  0.00    -0.002 C 
ATOM     14  C   UNL     1      33.816 -21.392 -19.515  0.00  0.00    +0.004 C 
ATOM     15  C   UNL     1      36.064 -22.083 -18.887  0.00  0.00    -0.000 C 
ATOM     16  C   UNL     1      34.671 -22.270 -18.848  0.00  0.00    +0.000 C 
ENDBRANCH   1   8
BRANCH   2  17
ATOM     17  C   UNL     1      33.925 -13.891 -24.734  0.00  0.00    +0.121 C 
BRANCH  17  19
ATOM     18  O   UNL     1      32.458 -12.588 -23.273  0.00  0.00    -0.250 OA
ATOM     19  C   UNL     1      33.497 -12.663 -23.917  0.00  0.00    +0.317 C 
BRANCH  19  20
ATOM     20  O   UNL     1      34.393 -11.642 -23.978  0.00  0.00    -0.480 OA
ATOM     21  H   UNL     1      34.196 -10.876 -24.481  0.00  0.00    +0.295 HD
ENDBRANCH  19  20
ENDBRANCH  17  19
BRANCH  17  22
ATOM     22  C   UNL     1      32.891 -14.073 -25.880  0.00  0.00    +0.016 C 
ATOM     23  C   UNL     1      33.265 -13.295 -27.135  0.00  0.00    +0.001 C 
ENDBRANCH  17  22
ENDBRANCH   2  17
TORSDOF 5
ENDMDL
MODEL 4
REMARK VINA RESULT:      -9.7      3.889      6.382
REMARK  Name = 107641
REMARK  5 active torsions:
REMARK  status: ('A' for Active; 'I' for Inactive)
REMARK    1  A    between atoms: C_1  and  N_8
REMARK    2  A    between atoms: C_2  and  C_17
REMARK    3  A    between atoms: C_17  and  C_19
REMARK    4  A    between atoms: C_17  and  C_22
REMARK    5  A    between atoms: C_19  and  O_20
REMARK                            x       y       z     vdW  Elec       q    Type
REMARK                         _______ _______ _______ _____ _____    ______ ____
ROOT
ATOM      1  C   UNL     1      33.175 -12.340 -23.313  0.00  0.00    +0.054 C 
ATOM      2  C   UNL     1      32.354  -9.714 -22.820  0.00  0.00    -0.012 C 
ATOM      3  C   UNL     1      33.809 -11.274 -23.955  0.00  0.00    +0.015 C 
ATOM      4  C   UNL     1      32.128 -12.086 -22.422  0.00  0.00    +0.015 C 
ATOM      5  C   UNL     1      33.399  -9.963 -23.709  0.00  0.00    -0.002 C 
ATOM      6  C   UNL     1      31.719 -10.776 -22.176  0.00  0.00    -0.002 C 
ENDROOT
BRANCH   1   8
ATOM      7  O   UNL     1      32.663 -14.005 -25.715  0.00  0.00    -0.270 OA
ATOM      8  N   UNL     1      33.583 -13.645 -23.558  0.00  0.00    -0.251 N 
ATOM      9  C   UNL     1      34.371 -14.452 -22.622  0.00  0.00    +0.125 C 
ATOM     10  C   UNL     1      34.535 -15.741 -23.348  0.00  0.00    +0.002 C 
ATOM     11  C   UNL     1      33.902 -15.683 -24.585  0.00  0.00    +0.052 C 
ATOM     12  C   UNL     1      33.291 -14.357 -24.733  0.00  0.00    +0.253 C 
ATOM     13  C   UNL     1      35.196 -16.890 -22.953  0.00  0.00    -0.002 C 
ATOM     14  C   UNL     1      33.898 -16.745 -25.469  0.00  0.00    +0.004 C 
ATOM     15  C   UNL     1      35.206 -17.980 -23.829  0.00  0.00    -0.000 C 
ATOM     16  C   UNL     1      34.562 -17.908 -25.077  0.00  0.00    +0.000 C 
ENDBRANCH   1   8
BRANCH   2  17
ATOM     17  C   UNL     1      31.916  -8.313 -22.557  0.00  0.00    +0.121 C 
BRANCH  17  19
ATOM     18  O   UNL     1      30.652  -7.681 -24.554  0.00  0.00    -0.250 OA
ATOM     19  C   UNL     1      31.643  -7.531 -23.850  0.00  0.00    +0.317 C 
BRANCH  19  20
ATOM     20  O   UNL     1      32.626  -6.642 -24.154  0.00  0.00    -0.480 OA
ATOM     21  H   UNL     1      32.478  -5.723 -24.040  0.00  0.00    +0.295 HD
ENDBRANCH  19  20
ENDBRANCH  17  19
BRANCH  17  22
ATOM     22  C   UNL     1      32.890  -7.464 -21.693  0.00  0.00    +0.016 C 
ATOM     23  C   UNL     1      32.589  -7.565 -20.203  0.00  0.00    +0.001 C 
ENDBRANCH  17  22
ENDBRANCH   2  17
TORSDOF 5
ENDMDL
MODEL 5
REMARK VINA RESULT:      -9.7      2.338      8.201
REMARK  Name = 107641
REMARK  5 active torsions:
REMARK  status: ('A' for Active; 'I' for Inactive)
REMARK    1  A    between atoms: C_1  and  N_8
REMARK    2  A    between atoms: C_2  and  C_17
REMARK    3  A    between atoms: C_17  and  C_19
REMARK    4  A    between atoms: C_17  and  C_22
REMARK    5  A    between atoms: C_19  and  O_20
REMARK                            x       y       z     vdW  Elec       q    Type
REMARK                         _______ _______ _______ _____ _____    ______ ____
ROOT
ATOM      1  C   UNL     1      34.659 -18.716 -21.455  0.00  0.00    +0.054 C 
ATOM      2  C   UNL     1      35.121 -20.945 -19.831  0.00  0.00    -0.012 C 
ATOM      3  C   UNL     1      33.586 -19.474 -20.981  0.00  0.00    +0.015 C 
ATOM      4  C   UNL     1      35.965 -19.078 -21.112  0.00  0.00    +0.015 C 
ATOM      5  C   UNL     1      33.816 -20.587 -20.171  0.00  0.00    -0.002 C 
ATOM      6  C   UNL     1      36.195 -20.190 -20.302  0.00  0.00    -0.002 C 
ENDROOT
BRANCH   1   8
ATOM      7  O   UNL     1      34.393 -18.618 -24.408  0.00  0.00    -0.270 OA
ATOM      8  N   UNL     1      34.430 -17.609 -22.261  0.00  0.00    -0.251 N 
ATOM      9  C   UNL     1      34.277 -16.241 -21.758  0.00  0.00    +0.125 C 
ATOM     10  C   UNL     1      34.055 -15.451 -23.002  0.00  0.00    +0.002 C 
ATOM     11  C   UNL     1      34.081 -16.285 -24.114  0.00  0.00    +0.052 C 
ATOM     12  C   UNL     1      34.318 -17.659 -23.660  0.00  0.00    +0.253 C 
ATOM     13  C   UNL     1      33.847 -14.092 -23.149  0.00  0.00    -0.002 C 
ATOM     14  C   UNL     1      33.900 -15.813 -25.401  0.00  0.00    +0.004 C 
ATOM     15  C   UNL     1      33.663 -13.589 -24.440  0.00  0.00    -0.000 C 
ATOM     16  C   UNL     1      33.690 -14.443 -25.557  0.00  0.00    +0.000 C 
ENDBRANCH   1   8
BRANCH   2  17
ATOM     17  C   UNL     1      35.366 -22.134 -18.966  0.00  0.00    +0.121 C 
BRANCH  17  19
ATOM     18  O   UNL     1      33.993 -23.994 -19.766  0.00  0.00    -0.250 OA
ATOM     19  C   UNL     1      34.174 -23.102 -18.946  0.00  0.00    +0.317 C 
BRANCH  19  20
ATOM     20  O   UNL     1      33.316 -22.872 -17.917  0.00  0.00    -0.480 OA
ATOM     21  H   UNL     1      33.168 -23.535 -17.272  0.00  0.00    +0.295 HD
ENDBRANCH  19  20
ENDBRANCH  17  19
BRANCH  17  22
ATOM     22  C   UNL     1      35.736 -21.815 -17.491  0.00  0.00    +0.016 C 
ATOM     23  C   UNL     1      37.206 -22.074 -17.187  0.00  0.00    +0.001 C 
ENDBRANCH  17  22
ENDBRANCH   2  17
TORSDOF 5
ENDMDL
MODEL 6
REMARK VINA RESULT:      -9.6      3.671      6.178
REMARK  Name = 107641
REMARK  5 active torsions:
REMARK  status: ('A' for Active; 'I' for Inactive)
REMARK    1  A    between atoms: C_1  and  N_8
REMARK    2  A    between atoms: C_2  and  C_17
REMARK    3  A    between atoms: C_17  and  C_19
REMARK    4  A    between atoms: C_17  and  C_22
REMARK    5  A    between atoms: C_19  and  O_20
REMARK                            x       y       z     vdW  Elec       q    Type
REMARK                         _______ _______ _______ _____ _____    ______ ____
ROOT
ATOM      1  C   UNL     1      33.152 -12.398 -23.362  0.00  0.00    +0.054 C 
ATOM      2  C   UNL     1      32.370  -9.771 -22.811  0.00  0.00    -0.012 C 
ATOM      3  C   UNL     1      32.121 -12.148 -22.453  0.00  0.00    +0.015 C 
ATOM      4  C   UNL     1      33.791 -11.327 -23.994  0.00  0.00    +0.015 C 
ATOM      5  C   UNL     1      31.730 -10.837 -22.178  0.00  0.00    -0.002 C 
ATOM      6  C   UNL     1      33.400 -10.016 -23.719  0.00  0.00    -0.002 C 
ENDROOT
BRANCH   1   8
ATOM      7  O   UNL     1      34.640 -14.277 -21.614  0.00  0.00    -0.270 OA
ATOM      8  N   UNL     1      33.541 -13.703 -23.636  0.00  0.00    -0.251 N 
ATOM      9  C   UNL     1      33.266 -14.397 -24.897  0.00  0.00    +0.125 C 
ATOM     10  C   UNL     1      33.880 -15.737 -24.681  0.00  0.00    +0.002 C 
ATOM     11  C   UNL     1      34.454 -15.807 -23.417  0.00  0.00    +0.052 C 
ATOM     12  C   UNL     1      34.248 -14.522 -22.740  0.00  0.00    +0.253 C 
ATOM     13  C   UNL     1      33.933 -16.822 -25.536  0.00  0.00    -0.002 C 
ATOM     14  C   UNL     1      35.094 -16.941 -22.952  0.00  0.00    +0.004 C 
ATOM     15  C   UNL     1      34.575 -17.982 -25.091  0.00  0.00    -0.000 C 
ATOM     16  C   UNL     1      35.151 -18.040 -23.809  0.00  0.00    +0.000 C 
ENDBRANCH   1   8
BRANCH   2  17
ATOM     17  C   UNL     1      31.953  -8.370 -22.516  0.00  0.00    +0.121 C 
BRANCH  17  19
ATOM     18  O   UNL     1      32.796  -6.750 -24.143  0.00  0.00    -0.250 OA
ATOM     19  C   UNL     1      31.896  -7.496 -23.778  0.00  0.00    +0.317 C 
BRANCH  19  20
ATOM     20  O   UNL     1      30.730  -7.624 -24.464  0.00  0.00    -0.480 OA
ATOM     21  H   UNL     1      30.323  -8.464 -24.545  0.00  0.00    +0.295 HD
ENDBRANCH  19  20
ENDBRANCH  17  19
BRANCH  17  22
ATOM     22  C   UNL     1      32.827  -7.625 -21.469  0.00  0.00    +0.016 C 
ATOM     23  C   UNL     1      32.316  -7.806 -20.046  0.00  0.00    +0.001 C 
ENDBRANCH  17  22
ENDBRANCH   2  17
TORSDOF 5
ENDMDL
MODEL 7
REMARK VINA RESULT:      -9.6      1.652      2.432
REMARK  Name = 107641
REMARK  5 active torsions:
REMARK  status: ('A' for Active; 'I' for Inactive)
REMARK    1  A    between atoms: C_1  and  N_8
REMARK    2  A    between atoms: C_2  and  C_17
REMARK    3  A    between atoms: C_17  and  C_19
REMARK    4  A    between atoms: C_17  and  C_22
REMARK    5  A    between atoms: C_19  and  O_20
REMARK                            x       y       z     vdW  Elec       q    Type
REMARK                         _______ _______ _______ _____ _____    ______ ____
ROOT
ATOM      1  C   UNL     1      34.334 -17.141 -22.477  0.00  0.00    +0.054 C 
ATOM      2  C   UNL     1      33.563 -14.968 -24.058  0.00  0.00    -0.012 C 
ATOM      3  C   UNL     1      33.708 -16.036 -21.895  0.00  0.00    +0.015 C 
ATOM      4  C   UNL     1      34.571 -17.154 -23.854  0.00  0.00    +0.015 C 
ATOM      5  C   UNL     1      33.324 -14.952 -22.683  0.00  0.00    -0.002 C 
ATOM      6  C   UNL     1      34.187 -16.070 -24.643  0.00  0.00    -0.002 C 
ENDROOT
BRANCH   1   8
ATOM      7  O   UNL     1      32.607 -19.194 -21.210  0.00  0.00    -0.270 OA
ATOM      8  N   UNL     1      34.717 -18.221 -21.692  0.00  0.00    -0.251 N 
ATOM      9  C   UNL     1      36.105 -18.536 -21.344  0.00  0.00    +0.125 C 
ATOM     10  C   UNL     1      35.970 -19.760 -20.507  0.00  0.00    +0.002 C 
ATOM     11  C   UNL     1      34.631 -20.116 -20.384  0.00  0.00    +0.052 C 
ATOM     12  C   UNL     1      33.822 -19.148 -21.131  0.00  0.00    +0.253 C 
ATOM     13  C   UNL     1      36.954 -20.513 -19.893  0.00  0.00    -0.002 C 
ATOM     14  C   UNL     1      34.218 -21.218 -19.659  0.00  0.00    +0.004 C 
ATOM     15  C   UNL     1      36.563 -21.633 -19.152  0.00  0.00    -0.000 C 
ATOM     16  C   UNL     1      35.206 -21.982 -19.036  0.00  0.00    +0.000 C 
ENDBRANCH   1   8
BRANCH   2  17
ATOM     17  C   UNL     1      33.152 -13.809 -24.900  0.00  0.00    +0.121 C 
BRANCH  17  19
ATOM     18  O   UNL     1      33.779 -13.778 -27.265  0.00  0.00    -0.250 OA
ATOM     19  C   UNL     1      33.025 -14.178 -26.386  0.00  0.00    +0.317 C 
BRANCH  19  20
ATOM     20  O   UNL     1      31.975 -15.001 -26.644  0.00  0.00    -0.480 OA
ATOM     21  H   UNL     1      31.112 -14.761 -26.370  0.00  0.00    +0.295 HD
ENDBRANCH  19  20
ENDBRANCH  17  19
BRANCH  17  22
ATOM     22  C   UNL     1      34.073 -12.561 -24.805  0.00  0.00    +0.016 C 
ATOM     23  C   UNL     1      33.455 -11.439 -23.980  0.00  0.00    +0.001 C 
ENDBRANCH  17  22
ENDBRANCH   2  17
TORSDOF 5
ENDMDL
MODEL 8
REMARK VINA RESULT:      -9.6      3.288      5.530
REMARK  Name = 107641
REMARK  5 active torsions:
REMARK  status: ('A' for Active; 'I' for Inactive)
REMARK    1  A    between atoms: C_1  and  N_8
REMARK    2  A    between atoms: C_2  and  C_17
REMARK    3  A    between atoms: C_17  and  C_19
REMARK    4  A    between atoms: C_17  and  C_22
REMARK    5  A    between atoms: C_19  and  O_20
REMARK                            x       y       z     vdW  Elec       q    Type
REMARK                         _______ _______ _______ _____ _____    ______ ____
ROOT
ATOM      1  C   UNL     1      33.596 -12.873 -23.759  0.00  0.00    +0.054 C 
ATOM      2  C   UNL     1      33.006 -10.142 -23.652  0.00  0.00    -0.012 C 
ATOM      3  C   UNL     1      34.234 -11.982 -24.626  0.00  0.00    +0.015 C 
ATOM      4  C   UNL     1      32.661 -12.391 -22.838  0.00  0.00    +0.015 C 
ATOM      5  C   UNL     1      33.940 -10.620 -24.573  0.00  0.00    -0.002 C 
ATOM      6  C   UNL     1      32.367 -11.028 -22.785  0.00  0.00    -0.002 C 
ENDROOT
BRANCH   1   8
ATOM      7  O   UNL     1      34.753 -14.586 -21.632  0.00  0.00    -0.270 OA
ATOM      8  N   UNL     1      33.888 -14.230 -23.812  0.00  0.00    -0.251 N 
ATOM      9  C   UNL     1      33.662 -15.077 -24.986  0.00  0.00    +0.125 C 
ATOM     10  C   UNL     1      34.133 -16.414 -24.529  0.00  0.00    +0.002 C 
ATOM     11  C   UNL     1      34.587 -16.343 -23.217  0.00  0.00    +0.052 C 
ATOM     12  C   UNL     1      34.439 -14.962 -22.747  0.00  0.00    +0.253 C 
ATOM     13  C   UNL     1      34.161 -17.613 -25.217  0.00  0.00    -0.002 C 
ATOM     14  C   UNL     1      35.081 -17.443 -22.540  0.00  0.00    +0.004 C 
ATOM     15  C   UNL     1      34.657 -18.741 -24.556  0.00  0.00    -0.000 C 
ATOM     16  C   UNL     1      35.113 -18.657 -23.228  0.00  0.00    +0.000 C 
ENDBRANCH   1   8
BRANCH   2  17
ATOM     17  C   UNL     1      32.692  -8.686 -23.596  0.00  0.00    +0.121 C 
BRANCH  17  19
ATOM     18  O   UNL     1      33.175  -7.743 -21.392  0.00  0.00    -0.250 OA
ATOM     19  C   UNL     1      33.531  -7.944 -22.546  0.00  0.00    +0.317 C 
BRANCH  19  20
ATOM     20  O   UNL     1      34.729  -7.514 -23.025  0.00  0.00    -0.480 OA
ATOM     21  H   UNL     1      35.524  -7.784 -22.609  0.00  0.00    +0.295 HD
ENDBRANCH  19  20
ENDBRANCH  17  19
BRANCH  17  22
ATOM     22  C   UNL     1      31.200  -8.340 -23.333  0.00  0.00    +0.016 C 
ATOM     23  C   UNL     1      30.802  -6.988 -23.913  0.00  0.00    +0.001 C 
ENDBRANCH  17  22
ENDBRANCH   2  17
TORSDOF 5
ENDMDL
MODEL 9
REMARK VINA RESULT:      -9.5      3.525      5.638
REMARK  Name = 107641
REMARK  5 active torsions:
REMARK  status: ('A' for Active; 'I' for Inactive)
REMARK    1  A    between atoms: C_1  and  N_8
REMARK    2  A    between atoms: C_2  and  C_17
REMARK    3  A    between atoms: C_17  and  C_19
REMARK    4  A    between atoms: C_17  and  C_22
REMARK    5  A    between atoms: C_19  and  O_20
REMARK                            x       y       z     vdW  Elec       q    Type
REMARK                         _______ _______ _______ _____ _____    ______ ____
ROOT
ATOM      1  C   UNL     1      33.630 -12.921 -23.755  0.00  0.00    +0.054 C 
ATOM      2  C   UNL     1      33.016 -10.195 -23.672  0.00  0.00    -0.012 C 
ATOM      3  C   UNL     1      32.704 -12.437 -22.827  0.00  0.00    +0.015 C 
ATOM      4  C   UNL     1      34.247 -12.034 -24.641  0.00  0.00    +0.015 C 
ATOM      5  C   UNL     1      32.398 -11.077 -22.786  0.00  0.00    -0.002 C 
ATOM      6  C   UNL     1      33.941 -10.674 -24.600  0.00  0.00    -0.002 C 
ENDROOT
BRANCH   1   8
ATOM      7  O   UNL     1      33.203 -14.833 -25.983  0.00  0.00    -0.270 OA
ATOM      8  N   UNL     1      33.934 -14.276 -23.796  0.00  0.00    -0.251 N 
ATOM      9  C   UNL     1      34.546 -15.017 -22.690  0.00  0.00    +0.125 C 
ATOM     10  C   UNL     1      34.659 -16.398 -23.236  0.00  0.00    +0.002 C 
ATOM     11  C   UNL     1      34.159 -16.448 -24.533  0.00  0.00    +0.052 C 
ATOM     12  C   UNL     1      33.694 -15.107 -24.903  0.00  0.00    +0.253 C 
ATOM     13  C   UNL     1      35.165 -17.537 -22.636  0.00  0.00    -0.002 C 
ATOM     14  C   UNL     1      34.142 -17.611 -25.279  0.00  0.00    +0.004 C 
ATOM     15  C   UNL     1      35.158 -18.727 -23.370  0.00  0.00    -0.000 C 
ATOM     16  C   UNL     1      34.651 -18.764 -24.681  0.00  0.00    +0.000 C 
ENDBRANCH   1   8
BRANCH   2  17
ATOM     17  C   UNL     1      32.689  -8.741 -23.627  0.00  0.00    +0.121 C 
BRANCH  17  19
ATOM     18  O   UNL     1      34.695  -7.493 -22.994  0.00  0.00    -0.250 OA
ATOM     19  C   UNL     1      33.609  -7.961 -22.677  0.00  0.00    +0.317 C 
BRANCH  19  20
ATOM     20  O   UNL     1      33.102  -7.840 -21.421  0.00  0.00    -0.480 OA
ATOM     21  H   UNL     1      33.164  -8.555 -20.819  0.00  0.00    +0.295 HD
ENDBRANCH  19  20
ENDBRANCH  17  19
BRANCH  17  22
ATOM     22  C   UNL     1      31.222  -8.403 -23.240  0.00  0.00    +0.016 C 
ATOM     23  C   UNL     1      30.723  -7.124 -23.900  0.00  0.00    +0.001 C 
ENDBRANCH  17  22
ENDBRANCH   2  17
TORSDOF 5
ENDMDL
