MODEL 1
REMARK VINA RESULT:     -10.6      0.000      0.000
REMARK  Name = 5583
REMARK  6 active torsions:
REMARK  status: ('A' for Active; 'I' for Inactive)
REMARK    1  A    between atoms: C_5  and  C_18
REMARK    2  A    between atoms: C_18  and  N_19
REMARK    3  A    between atoms: N_19  and  C_21
REMARK    4  A    between atoms: C_24  and  O_27
REMARK    5  A    between atoms: C_25  and  O_29
REMARK    6  A    between atoms: C_26  and  O_31
REMARK                            x       y       z     vdW  Elec       q    Type
REMARK                         _______ _______ _______ _____ _____    ______ ____
ROOT
ATOM      1  N   UNL     1      33.878 -16.198 -25.909  0.00  0.00    -0.332 NA
ATOM      2  N   UNL     1      33.627 -14.196 -24.591  0.00  0.00    -0.317 NA
ATOM      3  N   UNL     1      34.021 -14.186 -22.302  0.00  0.00    -0.335 N 
ATOM      4  N   UNL     1      33.222 -14.174 -26.898  0.00  0.00    -0.283 N 
ATOM      5  C   UNL     1      34.981 -18.353 -22.516  0.00  0.00    -0.010 C 
ATOM      6  C   UNL     1      34.676 -17.000 -22.408  0.00  0.00    -0.032 C 
ATOM      7  C   UNL     1      34.304 -16.270 -23.550  0.00  0.00    +0.139 C 
ATOM      8  C   UNL     1      34.232 -16.887 -24.810  0.00  0.00    +0.134 C 
ATOM      9  C   UNL     1      34.915 -18.974 -23.758  0.00  0.00    -0.001 C 
ATOM     10  C   UNL     1      34.544 -18.241 -24.889  0.00  0.00    +0.029 C 
ATOM     11  C   UNL     1      34.772 -16.407 -21.034  0.00  0.00    +0.027 C 
ATOM     12  C   UNL     1      33.987 -14.916 -23.511  0.00  0.00    +0.178 C 
ATOM     13  C   UNL     1      33.594 -14.890 -25.740  0.00  0.00    +0.197 C 
ATOM     14  H   UNL     1      33.792 -13.228 -22.297  0.00  0.00    +0.144 HD
ATOM     15  H   UNL     1      34.273 -14.635 -21.463  0.00  0.00    +0.144 HD
ATOM     16  H   UNL     1      33.180 -14.632 -27.768  0.00  0.00    +0.156 HD
ATOM     17  H   UNL     1      33.003 -13.216 -26.836  0.00  0.00    +0.156 HD
ENDROOT
BRANCH   5  18
ATOM     18  C   UNL     1      35.382 -19.166 -21.329  0.00  0.00    +0.114 C 
BRANCH  18  19
ATOM     19  N   UNL     1      34.330 -20.085 -20.955  0.00  0.00    -0.329 N 
ATOM     20  H   UNL     1      33.500 -20.082 -21.484  0.00  0.00    +0.147 HD
BRANCH  19  21
ATOM     21  C   UNL     1      34.427 -20.971 -19.895  0.00  0.00    +0.051 C 
ATOM     22  C   UNL     1      33.295 -21.665 -19.426  0.00  0.00    +0.055 C 
ATOM     23  C   UNL     1      35.660 -21.204 -19.256  0.00  0.00    +0.055 C 
ATOM     24  C   UNL     1      35.756 -22.095 -18.188  0.00  0.00    +0.177 C 
ATOM     25  C   UNL     1      33.390 -22.557 -18.358  0.00  0.00    +0.177 C 
ATOM     26  C   UNL     1      34.622 -22.772 -17.740  0.00  0.00    +0.206 C 
BRANCH  24  27
ATOM     27  O   UNL     1      36.965 -22.297 -17.592  0.00  0.00    -0.468 OA
ATOM     28  C   UNL     1      37.419 -21.290 -16.691  0.00  0.00    +0.253 C 
ENDBRANCH  24  27
BRANCH  25  29
ATOM     29  O   UNL     1      32.275 -23.211 -17.930  0.00  0.00    -0.468 OA
ATOM     30  C   UNL     1      31.489 -22.567 -16.930  0.00  0.00    +0.253 C 
ENDBRANCH  25  29
BRANCH  26  31
ATOM     31  O   UNL     1      34.716 -23.645 -16.696  0.00  0.00    -0.465 OA
ATOM     32  C   UNL     1      34.614 -23.097 -15.384  0.00  0.00    +0.253 C 
ENDBRANCH  26  31
ENDBRANCH  19  21
ENDBRANCH  18  19
ENDBRANCH   5  18
TORSDOF 6
ENDMDL
MODEL 2
REMARK VINA RESULT:     -10.6      4.271      8.774
REMARK  Name = 5583
REMARK  6 active torsions:
REMARK  status: ('A' for Active; 'I' for Inactive)
REMARK    1  A    between atoms: C_5  and  C_18
REMARK    2  A    between atoms: C_18  and  N_19
REMARK    3  A    between atoms: N_19  and  C_21
REMARK    4  A    between atoms: C_24  and  O_27
REMARK    5  A    between atoms: C_25  and  O_29
REMARK    6  A    between atoms: C_26  and  O_31
REMARK                            x       y       z     vdW  Elec       q    Type
REMARK                         _______ _______ _______ _____ _____    ______ ____
ROOT
ATOM      1  N   UNL     1      32.797 -21.740 -19.258  0.00  0.00    -0.332 NA
ATOM      2  N   UNL     1      34.705 -22.575 -18.046  0.00  0.00    -0.317 NA
ATOM      3  N   UNL     1      36.857 -21.823 -18.491  0.00  0.00    -0.335 N 
ATOM      4  N   UNL     1      32.547 -23.355 -17.573  0.00  0.00    -0.283 N 
ATOM      5  C   UNL     1      35.260 -19.246 -21.513  0.00  0.00    -0.010 C 
ATOM      6  C   UNL     1      35.815 -20.069 -20.540  0.00  0.00    -0.032 C 
ATOM      7  C   UNL     1      34.987 -20.912 -19.777  0.00  0.00    +0.139 C 
ATOM      8  C   UNL     1      33.597 -20.938 -19.981  0.00  0.00    +0.134 C 
ATOM      9  C   UNL     1      33.886 -19.262 -21.724  0.00  0.00    -0.001 C 
ATOM     10  C   UNL     1      33.069 -20.103 -20.962  0.00  0.00    +0.029 C 
ATOM     11  C   UNL     1      37.303 -19.992 -20.375  0.00  0.00    +0.027 C 
ATOM     12  C   UNL     1      35.478 -21.760 -18.788  0.00  0.00    +0.178 C 
ATOM     13  C   UNL     1      33.394 -22.515 -18.329  0.00  0.00    +0.197 C 
ATOM     14  H   UNL     1      37.182 -22.431 -17.788  0.00  0.00    +0.144 HD
ATOM     15  H   UNL     1      37.494 -21.260 -18.987  0.00  0.00    +0.144 HD
ATOM     16  H   UNL     1      31.577 -23.352 -17.739  0.00  0.00    +0.156 HD
ATOM     17  H   UNL     1      32.926 -23.943 -16.881  0.00  0.00    +0.156 HD
ENDROOT
BRANCH   5  18
ATOM     18  C   UNL     1      36.101 -18.335 -22.346  0.00  0.00    +0.114 C 
BRANCH  18  19
ATOM     19  N   UNL     1      35.385 -17.909 -23.528  0.00  0.00    -0.329 N 
ATOM     20  H   UNL     1      35.374 -18.511 -24.307  0.00  0.00    +0.147 HD
BRANCH  19  21
ATOM     21  C   UNL     1      34.713 -16.703 -23.624  0.00  0.00    +0.051 C 
ATOM     22  C   UNL     1      34.100 -16.310 -24.829  0.00  0.00    +0.055 C 
ATOM     23  C   UNL     1      34.623 -15.834 -22.520  0.00  0.00    +0.055 C 
ATOM     24  C   UNL     1      33.946 -14.618 -22.617  0.00  0.00    +0.177 C 
ATOM     25  C   UNL     1      33.423 -15.094 -24.928  0.00  0.00    +0.177 C 
ATOM     26  C   UNL     1      33.346 -14.249 -23.821  0.00  0.00    +0.206 C 
BRANCH  24  27
ATOM     27  O   UNL     1      33.878 -13.801 -21.529  0.00  0.00    -0.468 OA
ATOM     28  C   UNL     1      32.762 -13.973 -20.658  0.00  0.00    +0.253 C 
ENDBRANCH  24  27
BRANCH  25  29
ATOM     29  O   UNL     1      32.842 -14.745 -26.109  0.00  0.00    -0.468 OA
ATOM     30  C   UNL     1      33.622 -13.960 -27.009  0.00  0.00    +0.253 C 
ENDBRANCH  25  29
BRANCH  26  31
ATOM     31  O   UNL     1      32.684 -13.060 -23.917  0.00  0.00    -0.465 OA
ATOM     32  C   UNL     1      33.480 -11.886 -24.061  0.00  0.00    +0.253 C 
ENDBRANCH  26  31
ENDBRANCH  19  21
ENDBRANCH  18  19
ENDBRANCH   5  18
TORSDOF 6
ENDMDL
MODEL 3
REMARK VINA RESULT:     -10.6      4.261      8.796
REMARK  Name = 5583
REMARK  6 active torsions:
REMARK  status: ('A' for Active; 'I' for Inactive)
REMARK    1  A    between atoms: C_5  and  C_18
REMARK    2  A    between atoms: C_18  and  N_19
REMARK    3  A    between atoms: N_19  and  C_21
REMARK    4  A    between atoms: C_24  and  O_27
REMARK    5  A    between atoms: C_25  and  O_29
REMARK    6  A    between atoms: C_26  and  O_31
REMARK                            x       y       z     vdW  Elec       q    Type
REMARK                         _______ _______ _______ _____ _____    ______ ____
ROOT
ATOM      1  N   UNL     1      32.789 -21.799 -19.237  0.00  0.00    -0.332 NA
ATOM      2  N   UNL     1      34.697 -22.606 -18.006  0.00  0.00    -0.317 NA
ATOM      3  N   UNL     1      36.844 -21.834 -18.441  0.00  0.00    -0.335 N 
ATOM      4  N   UNL     1      32.544 -23.405 -17.543  0.00  0.00    -0.283 N 
ATOM      5  C   UNL     1      35.240 -19.294 -21.492  0.00  0.00    -0.010 C 
ATOM      6  C   UNL     1      35.797 -20.105 -20.509  0.00  0.00    -0.032 C 
ATOM      7  C   UNL     1      34.974 -20.952 -19.746  0.00  0.00    +0.139 C 
ATOM      8  C   UNL     1      33.586 -20.994 -19.960  0.00  0.00    +0.134 C 
ATOM      9  C   UNL     1      33.868 -19.327 -21.713  0.00  0.00    -0.001 C 
ATOM     10  C   UNL     1      33.056 -20.171 -20.950  0.00  0.00    +0.029 C 
ATOM     11  C   UNL     1      37.283 -20.010 -20.335  0.00  0.00    +0.027 C 
ATOM     12  C   UNL     1      35.466 -21.787 -18.749  0.00  0.00    +0.178 C 
ATOM     13  C   UNL     1      33.388 -22.562 -18.299  0.00  0.00    +0.197 C 
ATOM     14  H   UNL     1      37.171 -22.433 -17.732  0.00  0.00    +0.144 HD
ATOM     15  H   UNL     1      37.478 -21.267 -18.937  0.00  0.00    +0.144 HD
ATOM     16  H   UNL     1      31.576 -23.414 -17.715  0.00  0.00    +0.156 HD
ATOM     17  H   UNL     1      32.925 -23.984 -16.844  0.00  0.00    +0.156 HD
ENDROOT
BRANCH   5  18
ATOM     18  C   UNL     1      36.078 -18.380 -22.325  0.00  0.00    +0.114 C 
BRANCH  18  19
ATOM     19  N   UNL     1      35.359 -17.955 -23.506  0.00  0.00    -0.329 N 
ATOM     20  H   UNL     1      35.340 -18.561 -24.282  0.00  0.00    +0.147 HD
BRANCH  19  21
ATOM     21  C   UNL     1      34.693 -16.746 -23.605  0.00  0.00    +0.051 C 
ATOM     22  C   UNL     1      34.602 -15.877 -22.500  0.00  0.00    +0.055 C 
ATOM     23  C   UNL     1      34.089 -16.348 -24.813  0.00  0.00    +0.055 C 
ATOM     24  C   UNL     1      33.418 -15.130 -24.912  0.00  0.00    +0.177 C 
ATOM     25  C   UNL     1      33.930 -14.658 -22.599  0.00  0.00    +0.177 C 
ATOM     26  C   UNL     1      33.339 -14.285 -23.805  0.00  0.00    +0.206 C 
BRANCH  24  27
ATOM     27  O   UNL     1      32.844 -14.777 -26.096  0.00  0.00    -0.468 OA
ATOM     28  C   UNL     1      33.628 -13.987 -26.987  0.00  0.00    +0.253 C 
ENDBRANCH  24  27
BRANCH  25  29
ATOM     29  O   UNL     1      33.861 -13.842 -21.510  0.00  0.00    -0.468 OA
ATOM     30  C   UNL     1      32.854 -14.135 -20.543  0.00  0.00    +0.253 C 
ENDBRANCH  25  29
BRANCH  26  31
ATOM     31  O   UNL     1      32.683 -13.093 -23.902  0.00  0.00    -0.465 OA
ATOM     32  C   UNL     1      33.485 -11.922 -24.039  0.00  0.00    +0.253 C 
ENDBRANCH  26  31
ENDBRANCH  19  21
ENDBRANCH  18  19
ENDBRANCH   5  18
TORSDOF 6
ENDMDL
MODEL 4
REMARK VINA RESULT:     -10.5      6.145     10.119
REMARK  Name = 5583
REMARK  6 active torsions:
REMARK  status: ('A' for Active; 'I' for Inactive)
REMARK    1  A    between atoms: C_5  and  C_18
REMARK    2  A    between atoms: C_18  and  N_19
REMARK    3  A    between atoms: N_19  and  C_21
REMARK    4  A    between atoms: C_24  and  O_27
REMARK    5  A    between atoms: C_25  and  O_29
REMARK    6  A    between atoms: C_26  and  O_31
REMARK                            x       y       z     vdW  Elec       q    Type
REMARK                         _______ _______ _______ _____ _____    ______ ____
ROOT
ATOM      1  N   UNL     1      35.321 -17.750 -20.694  0.00  0.00    -0.332 NA
ATOM      2  N   UNL     1      35.421 -19.407 -22.441  0.00  0.00    -0.317 NA
ATOM      3  N   UNL     1      34.809 -18.913 -24.626  0.00  0.00    -0.335 N 
ATOM      4  N   UNL     1      36.045 -19.937 -20.246  0.00  0.00    -0.283 N 
ATOM      5  C   UNL     1      33.923 -14.907 -23.403  0.00  0.00    -0.010 C 
ATOM      6  C   UNL     1      34.200 -16.199 -23.837  0.00  0.00    -0.032 C 
ATOM      7  C   UNL     1      34.672 -17.161 -22.926  0.00  0.00    +0.139 C 
ATOM      8  C   UNL     1      34.870 -16.838 -21.573  0.00  0.00    +0.134 C 
ATOM      9  C   UNL     1      34.116 -14.576 -22.066  0.00  0.00    -0.001 C 
ATOM     10  C   UNL     1      34.585 -15.538 -21.167  0.00  0.00    +0.029 C 
ATOM     11  C   UNL     1      33.965 -16.474 -25.292  0.00  0.00    +0.027 C 
ATOM     12  C   UNL     1      34.968 -18.469 -23.295  0.00  0.00    +0.178 C 
ATOM     13  C   UNL     1      35.572 -18.985 -21.175  0.00  0.00    +0.197 C 
ATOM     14  H   UNL     1      35.024 -19.844 -24.865  0.00  0.00    +0.144 HD
ATOM     15  H   UNL     1      34.481 -18.292 -25.316  0.00  0.00    +0.144 HD
ATOM     16  H   UNL     1      36.174 -19.682 -19.304  0.00  0.00    +0.156 HD
ATOM     17  H   UNL     1      36.245 -20.855 -20.539  0.00  0.00    +0.156 HD
ENDROOT
BRANCH   5  18
ATOM     18  C   UNL     1      33.421 -13.854 -24.336  0.00  0.00    +0.114 C 
BRANCH  18  19
ATOM     19  N   UNL     1      34.086 -12.593 -24.095  0.00  0.00    -0.329 N 
ATOM     20  H   UNL     1      35.044 -12.525 -24.307  0.00  0.00    +0.147 HD
BRANCH  19  21
ATOM     21  C   UNL     1      33.448 -11.475 -23.586  0.00  0.00    +0.051 C 
ATOM     22  C   UNL     1      32.412 -11.600 -22.640  0.00  0.00    +0.055 C 
ATOM     23  C   UNL     1      33.816 -10.180 -23.999  0.00  0.00    +0.055 C 
ATOM     24  C   UNL     1      33.173  -9.054 -23.487  0.00  0.00    +0.177 C 
ATOM     25  C   UNL     1      31.768 -10.474 -22.127  0.00  0.00    +0.177 C 
ATOM     26  C   UNL     1      32.149  -9.201 -22.551  0.00  0.00    +0.206 C 
BRANCH  24  27
ATOM     27  O   UNL     1      33.554  -7.816 -23.909  0.00  0.00    -0.468 OA
ATOM     28  C   UNL     1      34.884  -7.406 -23.600  0.00  0.00    +0.253 C 
ENDBRANCH  24  27
BRANCH  25  29
ATOM     29  O   UNL     1      30.770 -10.631 -21.213  0.00  0.00    -0.468 OA
ATOM     30  C   UNL     1      31.157 -10.968 -19.882  0.00  0.00    +0.253 C 
ENDBRANCH  25  29
BRANCH  26  31
ATOM     31  O   UNL     1      31.520  -8.099 -22.049  0.00  0.00    -0.465 OA
ATOM     32  C   UNL     1      32.119  -7.471 -20.918  0.00  0.00    +0.253 C 
ENDBRANCH  26  31
ENDBRANCH  19  21
ENDBRANCH  18  19
ENDBRANCH   5  18
TORSDOF 6
ENDMDL
MODEL 5
REMARK VINA RESULT:     -10.5      6.134     10.280
REMARK  Name = 5583
REMARK  6 active torsions:
REMARK  status: ('A' for Active; 'I' for Inactive)
REMARK    1  A    between atoms: C_5  and  C_18
REMARK    2  A    between atoms: C_18  and  N_19
REMARK    3  A    between atoms: N_19  and  C_21
REMARK    4  A    between atoms: C_24  and  O_27
REMARK    5  A    between atoms: C_25  and  O_29
REMARK    6  A    between atoms: C_26  and  O_31
REMARK                            x       y       z     vdW  Elec       q    Type
REMARK                         _______ _______ _______ _____ _____    ______ ____
ROOT
ATOM      1  N   UNL     1      35.319 -17.754 -20.686  0.00  0.00    -0.332 NA
ATOM      2  N   UNL     1      35.389 -19.421 -22.425  0.00  0.00    -0.317 NA
ATOM      3  N   UNL     1      34.765 -18.933 -24.608  0.00  0.00    -0.335 N 
ATOM      4  N   UNL     1      36.024 -19.945 -20.232  0.00  0.00    -0.283 N 
ATOM      5  C   UNL     1      33.929 -14.912 -23.400  0.00  0.00    -0.010 C 
ATOM      6  C   UNL     1      34.190 -16.209 -23.830  0.00  0.00    -0.032 C 
ATOM      7  C   UNL     1      34.659 -17.170 -22.917  0.00  0.00    +0.139 C 
ATOM      8  C   UNL     1      34.871 -16.843 -21.567  0.00  0.00    +0.134 C 
ATOM      9  C   UNL     1      34.135 -14.575 -22.067  0.00  0.00    -0.001 C 
ATOM     10  C   UNL     1      34.602 -15.537 -21.166  0.00  0.00    +0.029 C 
ATOM     11  C   UNL     1      33.942 -16.489 -25.281  0.00  0.00    +0.027 C 
ATOM     12  C   UNL     1      34.940 -18.484 -23.281  0.00  0.00    +0.178 C 
ATOM     13  C   UNL     1      35.554 -18.994 -21.163  0.00  0.00    +0.197 C 
ATOM     14  H   UNL     1      34.969 -19.867 -24.843  0.00  0.00    +0.144 HD
ATOM     15  H   UNL     1      34.439 -18.312 -25.299  0.00  0.00    +0.144 HD
ATOM     16  H   UNL     1      36.163 -19.687 -19.292  0.00  0.00    +0.156 HD
ATOM     17  H   UNL     1      36.213 -20.867 -20.522  0.00  0.00    +0.156 HD
ENDROOT
BRANCH   5  18
ATOM     18  C   UNL     1      33.431 -13.859 -24.335  0.00  0.00    +0.114 C 
BRANCH  18  19
ATOM     19  N   UNL     1      34.092 -12.597 -24.090  0.00  0.00    -0.329 N 
ATOM     20  H   UNL     1      35.051 -12.526 -24.299  0.00  0.00    +0.147 HD
BRANCH  19  21
ATOM     21  C   UNL     1      33.450 -11.481 -23.579  0.00  0.00    +0.051 C 
ATOM     22  C   UNL     1      33.809 -10.185 -23.997  0.00  0.00    +0.055 C 
ATOM     23  C   UNL     1      32.420 -11.611 -22.628  0.00  0.00    +0.055 C 
ATOM     24  C   UNL     1      31.774 -10.487 -22.114  0.00  0.00    +0.177 C 
ATOM     25  C   UNL     1      33.163  -9.061 -23.482  0.00  0.00    +0.177 C 
ATOM     26  C   UNL     1      32.146  -9.213 -22.541  0.00  0.00    +0.206 C 
BRANCH  24  27
ATOM     27  O   UNL     1      30.781 -10.649 -21.194  0.00  0.00    -0.468 OA
ATOM     28  C   UNL     1      31.159 -11.149 -19.914  0.00  0.00    +0.253 C 
ENDBRANCH  24  27
BRANCH  25  29
ATOM     29  O   UNL     1      33.536  -7.821 -23.908  0.00  0.00    -0.468 OA
ATOM     30  C   UNL     1      34.870  -7.410 -23.617  0.00  0.00    +0.253 C 
ENDBRANCH  25  29
BRANCH  26  31
ATOM     31  O   UNL     1      31.514  -8.113 -22.038  0.00  0.00    -0.465 OA
ATOM     32  C   UNL     1      32.101  -7.495 -20.896  0.00  0.00    +0.253 C 
ENDBRANCH  26  31
ENDBRANCH  19  21
ENDBRANCH  18  19
ENDBRANCH   5  18
TORSDOF 6
ENDMDL
MODEL 6
REMARK VINA RESULT:     -10.4      2.492      5.039
REMARK  Name = 5583
REMARK  6 active torsions:
REMARK  status: ('A' for Active; 'I' for Inactive)
REMARK    1  A    between atoms: C_5  and  C_18
REMARK    2  A    between atoms: C_18  and  N_19
REMARK    3  A    between atoms: N_19  and  C_21
REMARK    4  A    between atoms: C_24  and  O_27
REMARK    5  A    between atoms: C_25  and  O_29
REMARK    6  A    between atoms: C_26  and  O_31
REMARK                            x       y       z     vdW  Elec       q    Type
REMARK                         _______ _______ _______ _____ _____    ______ ____
ROOT
ATOM      1  N   UNL     1      33.821 -17.809 -21.982  0.00  0.00    -0.332 NA
ATOM      2  N   UNL     1      36.213 -17.641 -22.219  0.00  0.00    -0.317 NA
ATOM      3  N   UNL     1      37.648 -19.172 -21.224  0.00  0.00    -0.335 N 
ATOM      4  N   UNL     1      34.793 -16.079 -23.235  0.00  0.00    -0.283 N 
ATOM      5  C   UNL     1      34.245 -21.222 -19.628  0.00  0.00    -0.010 C 
ATOM      6  C   UNL     1      35.374 -20.583 -20.129  0.00  0.00    -0.032 C 
ATOM      7  C   UNL     1      35.235 -19.431 -20.924  0.00  0.00    +0.139 C 
ATOM      8  C   UNL     1      33.965 -18.909 -21.223  0.00  0.00    +0.134 C 
ATOM      9  C   UNL     1      32.983 -20.715 -19.918  0.00  0.00    -0.001 C 
ATOM     10  C   UNL     1      32.853 -19.570 -20.709  0.00  0.00    +0.029 C 
ATOM     11  C   UNL     1      36.695 -21.192 -19.770  0.00  0.00    +0.027 C 
ATOM     12  C   UNL     1      36.322 -18.745 -21.456  0.00  0.00    +0.178 C 
ATOM     13  C   UNL     1      34.952 -17.234 -22.439  0.00  0.00    +0.197 C 
ATOM     14  H   UNL     1      38.402 -18.671 -21.610  0.00  0.00    +0.144 HD
ATOM     15  H   UNL     1      37.818 -19.972 -20.675  0.00  0.00    +0.144 HD
ATOM     16  H   UNL     1      33.891 -15.736 -23.428  0.00  0.00    +0.156 HD
ATOM     17  H   UNL     1      35.583 -15.616 -23.596  0.00  0.00    +0.156 HD
ENDROOT
BRANCH   5  18
ATOM     18  C   UNL     1      34.346 -22.448 -18.780  0.00  0.00    +0.114 C 
BRANCH  18  19
ATOM     19  N   UNL     1      33.033 -22.944 -18.432  0.00  0.00    -0.329 N 
ATOM     20  H   UNL     1      32.425 -23.201 -19.162  0.00  0.00    +0.147 HD
BRANCH  19  21
ATOM     21  C   UNL     1      32.585 -23.078 -17.129  0.00  0.00    +0.051 C 
ATOM     22  C   UNL     1      33.455 -23.496 -16.104  0.00  0.00    +0.055 C 
ATOM     23  C   UNL     1      31.246 -22.800 -16.792  0.00  0.00    +0.055 C 
ATOM     24  C   UNL     1      30.795 -22.936 -15.479  0.00  0.00    +0.177 C 
ATOM     25  C   UNL     1      33.004 -23.632 -14.791  0.00  0.00    +0.177 C 
ATOM     26  C   UNL     1      31.674 -23.352 -14.479  0.00  0.00    +0.206 C 
BRANCH  24  27
ATOM     27  O   UNL     1      29.493 -22.660 -15.187  0.00  0.00    -0.468 OA
ATOM     28  C   UNL     1      28.505 -23.518 -15.755  0.00  0.00    +0.253 C 
ENDBRANCH  24  27
BRANCH  25  29
ATOM     29  O   UNL     1      33.873 -24.039 -13.823  0.00  0.00    -0.468 OA
ATOM     30  C   UNL     1      35.264 -23.951 -14.123  0.00  0.00    +0.253 C 
ENDBRANCH  25  29
BRANCH  26  31
ATOM     31  O   UNL     1      31.233 -23.485 -13.195  0.00  0.00    -0.465 OA
ATOM     32  C   UNL     1      30.574 -24.704 -12.860  0.00  0.00    +0.253 C 
ENDBRANCH  26  31
ENDBRANCH  19  21
ENDBRANCH  18  19
ENDBRANCH   5  18
TORSDOF 6
ENDMDL
MODEL 7
REMARK VINA RESULT:     -10.4      2.602      4.653
REMARK  Name = 5583
REMARK  6 active torsions:
REMARK  status: ('A' for Active; 'I' for Inactive)
REMARK    1  A    between atoms: C_5  and  C_18
REMARK    2  A    between atoms: C_18  and  N_19
REMARK    3  A    between atoms: N_19  and  C_21
REMARK    4  A    between atoms: C_24  and  O_27
REMARK    5  A    between atoms: C_25  and  O_29
REMARK    6  A    between atoms: C_26  and  O_31
REMARK                            x       y       z     vdW  Elec       q    Type
REMARK                         _______ _______ _______ _____ _____    ______ ____
ROOT
ATOM      1  N   UNL     1      33.813 -18.015 -21.723  0.00  0.00    -0.332 NA
ATOM      2  N   UNL     1      36.218 -17.881 -21.799  0.00  0.00    -0.317 NA
ATOM      3  N   UNL     1      37.562 -19.498 -20.812  0.00  0.00    -0.335 N 
ATOM      4  N   UNL     1      34.891 -16.233 -22.804  0.00  0.00    -0.283 N 
ATOM      5  C   UNL     1      34.031 -21.571 -19.559  0.00  0.00    -0.010 C 
ATOM      6  C   UNL     1      35.200 -20.926 -19.949  0.00  0.00    -0.032 C 
ATOM      7  C   UNL     1      35.131 -19.726 -20.679  0.00  0.00    +0.139 C 
ATOM      8  C   UNL     1      33.892 -19.161 -21.025  0.00  0.00    +0.134 C 
ATOM      9  C   UNL     1      32.799 -21.022 -19.896  0.00  0.00    -0.001 C 
ATOM     10  C   UNL     1      32.738 -19.829 -20.622  0.00  0.00    +0.029 C 
ATOM     11  C   UNL     1      36.486 -21.582 -19.546  0.00  0.00    +0.027 C 
ATOM     12  C   UNL     1      36.260 -19.031 -21.100  0.00  0.00    +0.178 C 
ATOM     13  C   UNL     1      34.981 -17.436 -22.072  0.00  0.00    +0.197 C 
ATOM     14  H   UNL     1      38.347 -18.989 -21.118  0.00  0.00    +0.144 HD
ATOM     15  H   UNL     1      37.684 -20.332 -20.303  0.00  0.00    +0.144 HD
ATOM     16  H   UNL     1      34.009 -15.861 -23.032  0.00  0.00    +0.156 HD
ATOM     17  H   UNL     1      35.710 -15.765 -23.086  0.00  0.00    +0.156 HD
ENDROOT
BRANCH   5  18
ATOM     18  C   UNL     1      34.059 -22.847 -18.784  0.00  0.00    +0.114 C 
BRANCH  18  19
ATOM     19  N   UNL     1      33.190 -22.768 -17.631  0.00  0.00    -0.329 N 
ATOM     20  H   UNL     1      32.299 -22.367 -17.746  0.00  0.00    +0.147 HD
BRANCH  19  21
ATOM     21  C   UNL     1      33.541 -23.227 -16.373  0.00  0.00    +0.051 C 
ATOM     22  C   UNL     1      32.586 -23.318 -15.342  0.00  0.00    +0.055 C 
ATOM     23  C   UNL     1      34.864 -23.618 -16.088  0.00  0.00    +0.055 C 
ATOM     24  C   UNL     1      35.218 -24.080 -14.820  0.00  0.00    +0.177 C 
ATOM     25  C   UNL     1      32.939 -23.779 -14.074  0.00  0.00    +0.177 C 
ATOM     26  C   UNL     1      34.255 -24.161 -13.814  0.00  0.00    +0.206 C 
BRANCH  24  27
ATOM     27  O   UNL     1      36.507 -24.450 -14.579  0.00  0.00    -0.468 OA
ATOM     28  C   UNL     1      36.888 -25.767 -14.970  0.00  0.00    +0.253 C 
ENDBRANCH  24  27
BRANCH  25  29
ATOM     29  O   UNL     1      31.990 -23.854 -13.100  0.00  0.00    -0.468 OA
ATOM     30  C   UNL     1      30.670 -24.210 -13.506  0.00  0.00    +0.253 C 
ENDBRANCH  25  29
BRANCH  26  31
ATOM     31  O   UNL     1      34.601 -24.614 -12.574  0.00  0.00    -0.465 OA
ATOM     32  C   UNL     1      35.395 -23.747 -11.768  0.00  0.00    +0.253 C 
ENDBRANCH  26  31
ENDBRANCH  19  21
ENDBRANCH  18  19
ENDBRANCH   5  18
TORSDOF 6
ENDMDL
MODEL 8
REMARK VINA RESULT:     -10.3      6.569     10.669
REMARK  Name = 5583
REMARK  6 active torsions:
REMARK  status: ('A' for Active; 'I' for Inactive)
REMARK    1  A    between atoms: C_5  and  C_18
REMARK    2  A    between atoms: C_18  and  N_19
REMARK    3  A    between atoms: N_19  and  C_21
REMARK    4  A    between atoms: C_24  and  O_27
REMARK    5  A    between atoms: C_25  and  O_29
REMARK    6  A    between atoms: C_26  and  O_31
REMARK                            x       y       z     vdW  Elec       q    Type
REMARK                         _______ _______ _______ _____ _____    ______ ____
ROOT
ATOM      1  N   UNL     1      35.261 -17.300 -20.565  0.00  0.00    -0.332 NA
ATOM      2  N   UNL     1      35.867 -18.415 -22.614  0.00  0.00    -0.317 NA
ATOM      3  N   UNL     1      35.158 -17.635 -24.683  0.00  0.00    -0.335 N 
ATOM      4  N   UNL     1      36.599 -19.228 -20.542  0.00  0.00    -0.283 N 
ATOM      5  C   UNL     1      33.106 -14.442 -22.702  0.00  0.00    -0.010 C 
ATOM      6  C   UNL     1      33.760 -15.465 -23.380  0.00  0.00    -0.032 C 
ATOM      7  C   UNL     1      34.488 -16.431 -22.663  0.00  0.00    +0.139 C 
ATOM      8  C   UNL     1      34.567 -16.382 -21.261  0.00  0.00    +0.134 C 
ATOM      9  C   UNL     1      33.178 -14.383 -21.314  0.00  0.00    -0.001 C 
ATOM     10  C   UNL     1      33.904 -15.347 -20.609  0.00  0.00    +0.029 C 
ATOM     11  C   UNL     1      33.632 -15.458 -24.874  0.00  0.00    +0.027 C 
ATOM     12  C   UNL     1      35.164 -17.479 -23.279  0.00  0.00    +0.178 C 
ATOM     13  C   UNL     1      35.873 -18.268 -21.279  0.00  0.00    +0.197 C 
ATOM     14  H   UNL     1      35.643 -18.385 -25.098  0.00  0.00    +0.144 HD
ATOM     15  H   UNL     1      34.667 -16.995 -25.247  0.00  0.00    +0.144 HD
ATOM     16  H   UNL     1      36.637 -19.169 -19.560  0.00  0.00    +0.156 HD
ATOM     17  H   UNL     1      37.066 -19.958 -21.009  0.00  0.00    +0.156 HD
ENDROOT
BRANCH   5  18
ATOM     18  C   UNL     1      32.322 -13.395 -23.423  0.00  0.00    +0.114 C 
BRANCH  18  19
ATOM     19  N   UNL     1      32.019 -12.285 -22.549  0.00  0.00    -0.329 N 
ATOM     20  H   UNL     1      31.449 -12.452 -21.764  0.00  0.00    +0.147 HD
BRANCH  19  21
ATOM     21  C   UNL     1      32.488 -10.998 -22.753  0.00  0.00    +0.051 C 
ATOM     22  C   UNL     1      31.915  -9.903 -22.079  0.00  0.00    +0.055 C 
ATOM     23  C   UNL     1      33.553 -10.748 -23.640  0.00  0.00    +0.055 C 
ATOM     24  C   UNL     1      34.025  -9.452 -23.846  0.00  0.00    +0.177 C 
ATOM     25  C   UNL     1      32.386  -8.606 -22.284  0.00  0.00    +0.177 C 
ATOM     26  C   UNL     1      33.442  -8.381 -23.167  0.00  0.00    +0.206 C 
BRANCH  24  27
ATOM     27  O   UNL     1      35.056  -9.245 -24.712  0.00  0.00    -0.468 OA
ATOM     28  C   UNL     1      35.386 -10.315 -25.594  0.00  0.00    +0.253 C 
ENDBRANCH  24  27
BRANCH  25  29
ATOM     29  O   UNL     1      31.808  -7.569 -21.615  0.00  0.00    -0.468 OA
ATOM     30  C   UNL     1      32.218  -7.360 -20.265  0.00  0.00    +0.253 C 
ENDBRANCH  25  29
BRANCH  26  31
ATOM     31  O   UNL     1      33.904  -7.113 -23.368  0.00  0.00    -0.465 OA
ATOM     32  C   UNL     1      33.223  -6.323 -24.340  0.00  0.00    +0.253 C 
ENDBRANCH  26  31
ENDBRANCH  19  21
ENDBRANCH  18  19
ENDBRANCH   5  18
TORSDOF 6
ENDMDL
MODEL 9
REMARK VINA RESULT:     -10.3      6.586     10.801
REMARK  Name = 5583
REMARK  6 active torsions:
REMARK  status: ('A' for Active; 'I' for Inactive)
REMARK    1  A    between atoms: C_5  and  C_18
REMARK    2  A    between atoms: C_18  and  N_19
REMARK    3  A    between atoms: N_19  and  C_21
REMARK    4  A    between atoms: C_24  and  O_27
REMARK    5  A    between atoms: C_25  and  O_29
REMARK    6  A    between atoms: C_26  and  O_31
REMARK                            x       y       z     vdW  Elec       q    Type
REMARK                         _______ _______ _______ _____ _____    ______ ____
ROOT
ATOM      1  N   UNL     1      35.265 -17.326 -20.602  0.00  0.00    -0.332 NA
ATOM      2  N   UNL     1      35.866 -18.396 -22.676  0.00  0.00    -0.317 NA
ATOM      3  N   UNL     1      35.151 -17.572 -24.726  0.00  0.00    -0.335 N 
ATOM      4  N   UNL     1      36.604 -19.253 -20.624  0.00  0.00    -0.283 N 
ATOM      5  C   UNL     1      33.104 -14.424 -22.670  0.00  0.00    -0.010 C 
ATOM      6  C   UNL     1      33.756 -15.431 -23.372  0.00  0.00    -0.032 C 
ATOM      7  C   UNL     1      34.486 -16.412 -22.678  0.00  0.00    +0.139 C 
ATOM      8  C   UNL     1      34.570 -16.394 -21.276  0.00  0.00    +0.134 C 
ATOM      9  C   UNL     1      33.179 -14.394 -21.282  0.00  0.00    -0.001 C 
ATOM     10  C   UNL     1      33.907 -15.373 -20.599  0.00  0.00    +0.029 C 
ATOM     11  C   UNL     1      33.624 -15.392 -24.865  0.00  0.00    +0.027 C 
ATOM     12  C   UNL     1      35.161 -17.446 -23.319  0.00  0.00    +0.178 C 
ATOM     13  C   UNL     1      35.875 -18.278 -21.338  0.00  0.00    +0.197 C 
ATOM     14  H   UNL     1      35.635 -18.312 -25.159  0.00  0.00    +0.144 HD
ATOM     15  H   UNL     1      34.658 -16.920 -25.275  0.00  0.00    +0.144 HD
ATOM     16  H   UNL     1      36.645 -19.215 -19.642  0.00  0.00    +0.156 HD
ATOM     17  H   UNL     1      37.070 -19.973 -21.108  0.00  0.00    +0.156 HD
ENDROOT
BRANCH   5  18
ATOM     18  C   UNL     1      32.318 -13.362 -23.367  0.00  0.00    +0.114 C 
BRANCH  18  19
ATOM     19  N   UNL     1      32.072 -12.241 -22.487  0.00  0.00    -0.329 N 
ATOM     20  H   UNL     1      31.545 -12.398 -21.670  0.00  0.00    +0.147 HD
BRANCH  19  21
ATOM     21  C   UNL     1      32.537 -10.960 -22.728  0.00  0.00    +0.051 C 
ATOM     22  C   UNL     1      33.594 -10.731 -23.630  0.00  0.00    +0.055 C 
ATOM     23  C   UNL     1      31.967  -9.848 -22.078  0.00  0.00    +0.055 C 
ATOM     24  C   UNL     1      32.437  -8.558 -22.320  0.00  0.00    +0.177 C 
ATOM     25  C   UNL     1      34.064  -9.441 -23.873  0.00  0.00    +0.177 C 
ATOM     26  C   UNL     1      33.485  -8.355 -23.218  0.00  0.00    +0.206 C 
BRANCH  24  27
ATOM     27  O   UNL     1      31.863  -7.505 -21.674  0.00  0.00    -0.468 OA
ATOM     28  C   UNL     1      32.252  -7.285 -20.320  0.00  0.00    +0.253 C 
ENDBRANCH  24  27
BRANCH  25  29
ATOM     29  O   UNL     1      35.089  -9.256 -24.752  0.00  0.00    -0.468 OA
ATOM     30  C   UNL     1      35.375 -10.327 -25.648  0.00  0.00    +0.253 C 
ENDBRANCH  25  29
BRANCH  26  31
ATOM     31  O   UNL     1      33.945  -7.092 -23.455  0.00  0.00    -0.465 OA
ATOM     32  C   UNL     1      33.241  -6.319 -24.425  0.00  0.00    +0.253 C 
ENDBRANCH  26  31
ENDBRANCH  19  21
ENDBRANCH  18  19
ENDBRANCH   5  18
TORSDOF 6
ENDMDL
