MODEL 1
REMARK VINA RESULT:      -9.9      0.000      0.000
REMARK  Name = 2318
REMARK  9 active torsions:
REMARK  status: ('A' for Active; 'I' for Inactive)
REMARK    1  A    between atoms: N_1  and  C_4
REMARK    2  A    between atoms: N_1  and  C_17
REMARK    3  A    between atoms: C_4  and  C_6
REMARK    4  A    between atoms: C_6  and  C_7
REMARK    5  A    between atoms: C_10  and  C_16
REMARK    6  A    between atoms: C_17  and  C_18
REMARK    7  A    between atoms: C_18  and  O_19
REMARK    8  A    between atoms: O_19  and  C_21
REMARK    9  A    between atoms: C_21  and  C_22
REMARK                            x       y       z     vdW  Elec       q    Type
REMARK                         _______ _______ _______ _____ _____    ______ ____
ROOT
ATOM      1  N   UNL     1      35.411 -16.280 -23.381  0.00  0.00    +0.388 N 
ATOM      2  H   UNL     1      35.913 -16.821 -22.678  0.00  0.00    -0.084 HD
ATOM      3  H   UNL     1      36.070 -15.811 -24.004  0.00  0.00    -0.084 HD
ENDROOT
BRANCH   1   4
ATOM      4  C   UNL     1      34.591 -15.264 -22.713  0.00  0.00    -0.057 C 
ATOM      5  C   UNL     1      33.922 -15.908 -21.499  0.00  0.00    -0.023 C 
BRANCH   4   6
ATOM      6  C   UNL     1      33.570 -14.690 -23.713  0.00  0.00    +0.005 C 
BRANCH   6   7
ATOM      7  C   UNL     1      33.233 -13.239 -23.467  0.00  0.00    -0.024 C 
ATOM      8  C   UNL     1      32.443 -12.901 -22.379  0.00  0.00    -0.000 C 
ATOM      9  C   UNL     1      33.719 -12.271 -24.331  0.00  0.00    -0.004 C 
ATOM     10  C   UNL     1      32.132 -11.560 -22.151  0.00  0.00    +0.071 C 
ATOM     11  C   UNL     1      33.409 -10.931 -24.103  0.00  0.00    -0.000 C 
ATOM     12  C   UNL     1      32.614 -10.575 -23.012  0.00  0.00    +0.004 C 
BRANCH  10  16
ATOM     13  F   UNL     1      31.627 -11.818 -19.827  0.00  0.00    -0.166 F 
ATOM     14  F   UNL     1      31.331  -9.848 -20.684  0.00  0.00    -0.166 F 
ATOM     15  F   UNL     1      29.963 -11.464 -21.181  0.00  0.00    -0.166 F 
ATOM     16  C   UNL     1      31.283 -11.179 -20.984  0.00  0.00    +0.419 C 
ENDBRANCH  10  16
ENDBRANCH   6   7
ENDBRANCH   4   6
ENDBRANCH   1   4
BRANCH   1  17
ATOM     17  C   UNL     1      34.578 -17.174 -24.167  0.00  0.00    -0.033 C 
BRANCH  17  18
ATOM     18  C   UNL     1      34.981 -18.622 -23.938  0.00  0.00    +0.186 C 
BRANCH  18  19
ATOM     19  O   UNL     1      34.484 -19.040 -22.674  0.00  0.00    -0.448 OA
BRANCH  19  21
ATOM     20  O   UNL     1      36.460 -18.562 -21.593  0.00  0.00    -0.245 OA
ATOM     21  C   UNL     1      35.408 -19.177 -21.683  0.00  0.00    +0.341 C 
BRANCH  21  22
ATOM     22  C   UNL     1      34.973 -20.196 -20.695  0.00  0.00    +0.076 C 
ATOM     23  C   UNL     1      33.623 -20.367 -20.464  0.00  0.00    +0.006 C 
ATOM     24  C   UNL     1      35.930 -20.940 -20.038  0.00  0.00    +0.006 C 
ATOM     25  C   UNL     1      33.214 -21.324 -19.535  0.00  0.00    +0.000 C 
ATOM     26  C   UNL     1      35.522 -21.898 -19.109  0.00  0.00    +0.000 C 
ATOM     27  C   UNL     1      34.162 -22.089 -18.858  0.00  0.00    +0.000 C 
ENDBRANCH  21  22
ENDBRANCH  19  21
ENDBRANCH  18  19
ENDBRANCH  17  18
ENDBRANCH   1  17
TORSDOF 9
ENDMDL
MODEL 2
REMARK VINA RESULT:      -9.9      1.193      2.193
REMARK  Name = 2318
REMARK  9 active torsions:
REMARK  status: ('A' for Active; 'I' for Inactive)
REMARK    1  A    between atoms: N_1  and  C_4
REMARK    2  A    between atoms: N_1  and  C_17
REMARK    3  A    between atoms: C_4  and  C_6
REMARK    4  A    between atoms: C_6  and  C_7
REMARK    5  A    between atoms: C_10  and  C_16
REMARK    6  A    between atoms: C_17  and  C_18
REMARK    7  A    between atoms: C_18  and  O_19
REMARK    8  A    between atoms: O_19  and  C_21
REMARK    9  A    between atoms: C_21  and  C_22
REMARK                            x       y       z     vdW  Elec       q    Type
REMARK                         _______ _______ _______ _____ _____    ______ ____
ROOT
ATOM      1  N   UNL     1      34.884 -16.556 -25.111  0.00  0.00    +0.388 N 
ATOM      2  H   UNL     1      35.612 -16.333 -24.433  0.00  0.00    -0.084 HD
ATOM      3  H   UNL     1      35.222 -16.391 -26.060  0.00  0.00    -0.084 HD
ENDROOT
BRANCH   1   4
ATOM      4  C   UNL     1      33.720 -15.698 -24.869  0.00  0.00    -0.057 C 
ATOM      5  C   UNL     1      33.084 -15.358 -26.217  0.00  0.00    -0.023 C 
BRANCH   4   6
ATOM      6  C   UNL     1      34.159 -14.444 -24.091  0.00  0.00    +0.005 C 
BRANCH   6   7
ATOM      7  C   UNL     1      33.467 -14.287 -22.758  0.00  0.00    -0.024 C 
ATOM      8  C   UNL     1      32.831 -13.092 -22.460  0.00  0.00    -0.000 C 
ATOM      9  C   UNL     1      33.478 -15.340 -21.857  0.00  0.00    -0.004 C 
ATOM     10  C   UNL     1      32.191 -12.946 -21.229  0.00  0.00    +0.071 C 
ATOM     11  C   UNL     1      32.838 -15.195 -20.627  0.00  0.00    -0.000 C 
ATOM     12  C   UNL     1      32.194 -13.997 -20.312  0.00  0.00    +0.004 C 
BRANCH  10  16
ATOM     13  F   UNL     1      30.192 -11.634 -21.279  0.00  0.00    -0.166 F 
ATOM     14  F   UNL     1      31.486 -11.388 -19.557  0.00  0.00    -0.166 F 
ATOM     15  F   UNL     1      32.086 -10.585 -21.487  0.00  0.00    -0.166 F 
ATOM     16  C   UNL     1      31.502 -11.666 -20.893  0.00  0.00    +0.419 C 
ENDBRANCH  10  16
ENDBRANCH   6   7
ENDBRANCH   4   6
ENDBRANCH   1   4
BRANCH   1  17
ATOM     17  C   UNL     1      34.522 -17.958 -24.980  0.00  0.00    -0.033 C 
BRANCH  17  18
ATOM     18  C   UNL     1      35.310 -18.611 -23.856  0.00  0.00    +0.186 C 
BRANCH  18  19
ATOM     19  O   UNL     1      34.446 -18.797 -22.742  0.00  0.00    -0.448 OA
BRANCH  19  21
ATOM     20  O   UNL     1      35.713 -17.778 -21.113  0.00  0.00    -0.245 OA
ATOM     21  C   UNL     1      35.026 -18.705 -21.513  0.00  0.00    +0.341 C 
BRANCH  21  22
ATOM     22  C   UNL     1      34.714 -19.902 -20.693  0.00  0.00    +0.076 C 
ATOM     23  C   UNL     1      33.395 -20.189 -20.406  0.00  0.00    +0.006 C 
ATOM     24  C   UNL     1      35.752 -20.691 -20.243  0.00  0.00    +0.006 C 
ATOM     25  C   UNL     1      33.102 -21.313 -19.634  0.00  0.00    +0.000 C 
ATOM     26  C   UNL     1      35.460 -21.816 -19.471  0.00  0.00    +0.000 C 
ATOM     27  C   UNL     1      34.134 -22.127 -19.167  0.00  0.00    +0.000 C 
ENDBRANCH  21  22
ENDBRANCH  19  21
ENDBRANCH  18  19
ENDBRANCH  17  18
ENDBRANCH   1  17
TORSDOF 9
ENDMDL
MODEL 3
REMARK VINA RESULT:      -9.9      4.264      8.641
REMARK  Name = 2318
REMARK  9 active torsions:
REMARK  status: ('A' for Active; 'I' for Inactive)
REMARK    1  A    between atoms: N_1  and  C_4
REMARK    2  A    between atoms: N_1  and  C_17
REMARK    3  A    between atoms: C_4  and  C_6
REMARK    4  A    between atoms: C_6  and  C_7
REMARK    5  A    between atoms: C_10  and  C_16
REMARK    6  A    between atoms: C_17  and  C_18
REMARK    7  A    between atoms: C_18  and  O_19
REMARK    8  A    between atoms: O_19  and  C_21
REMARK    9  A    between atoms: C_21  and  C_22
REMARK                            x       y       z     vdW  Elec       q    Type
REMARK                         _______ _______ _______ _____ _____    ______ ____
ROOT
ATOM      1  N   UNL     1      35.594 -16.913 -23.627  0.00  0.00    +0.388 N 
ATOM      2  H   UNL     1      36.333 -16.854 -24.327  0.00  0.00    -0.084 HD
ATOM      3  H   UNL     1      35.909 -16.507 -22.746  0.00  0.00    -0.084 HD
ENDROOT
BRANCH   1   4
ATOM      4  C   UNL     1      35.253 -18.322 -23.403  0.00  0.00    -0.057 C 
ATOM      5  C   UNL     1      34.456 -18.821 -24.607  0.00  0.00    -0.023 C 
BRANCH   4   6
ATOM      6  C   UNL     1      34.473 -18.457 -22.082  0.00  0.00    +0.005 C 
BRANCH   6   7
ATOM      7  C   UNL     1      35.098 -19.427 -21.108  0.00  0.00    -0.024 C 
ATOM      8  C   UNL     1      34.298 -20.369 -20.480  0.00  0.00    -0.000 C 
ATOM      9  C   UNL     1      36.460 -19.360 -20.860  0.00  0.00    -0.004 C 
ATOM     10  C   UNL     1      34.875 -21.265 -19.580  0.00  0.00    +0.071 C 
ATOM     11  C   UNL     1      37.037 -20.257 -19.961  0.00  0.00    -0.000 C 
ATOM     12  C   UNL     1      36.244 -21.210 -19.321  0.00  0.00    +0.004 C 
BRANCH  10  16
ATOM     13  F   UNL     1      34.504 -22.659 -17.672  0.00  0.00    -0.166 F 
ATOM     14  F   UNL     1      32.747 -21.866 -18.666  0.00  0.00    -0.166 F 
ATOM     15  F   UNL     1      33.912 -23.439 -19.614  0.00  0.00    -0.166 F 
ATOM     16  C   UNL     1      34.027 -22.285 -18.896  0.00  0.00    +0.419 C 
ENDBRANCH  10  16
ENDBRANCH   6   7
ENDBRANCH   4   6
ENDBRANCH   1   4
BRANCH   1  17
ATOM     17  C   UNL     1      34.433 -16.174 -24.095  0.00  0.00    -0.033 C 
BRANCH  17  18
ATOM     18  C   UNL     1      34.310 -14.848 -23.362  0.00  0.00    +0.186 C 
BRANCH  18  19
ATOM     19  O   UNL     1      32.933 -14.570 -23.146  0.00  0.00    -0.448 OA
BRANCH  19  21
ATOM     20  O   UNL     1      32.479 -15.433 -21.061  0.00  0.00    -0.245 OA
ATOM     21  C   UNL     1      32.532 -14.500 -21.847  0.00  0.00    +0.341 C 
BRANCH  21  22
ATOM     22  C   UNL     1      32.155 -13.110 -21.487  0.00  0.00    +0.076 C 
ATOM     23  C   UNL     1      31.972 -12.186 -22.497  0.00  0.00    +0.006 C 
ATOM     24  C   UNL     1      31.998 -12.784 -20.157  0.00  0.00    +0.006 C 
ATOM     25  C   UNL     1      31.617 -10.880 -22.159  0.00  0.00    +0.000 C 
ATOM     26  C   UNL     1      31.643 -11.477 -19.818  0.00  0.00    +0.000 C 
ATOM     27  C   UNL     1      31.453 -10.526 -20.821  0.00  0.00    +0.000 C 
ENDBRANCH  21  22
ENDBRANCH  19  21
ENDBRANCH  18  19
ENDBRANCH  17  18
ENDBRANCH   1  17
TORSDOF 9
ENDMDL
MODEL 4
REMARK VINA RESULT:      -9.8      4.522      9.115
REMARK  Name = 2318
REMARK  9 active torsions:
REMARK  status: ('A' for Active; 'I' for Inactive)
REMARK    1  A    between atoms: N_1  and  C_4
REMARK    2  A    between atoms: N_1  and  C_17
REMARK    3  A    between atoms: C_4  and  C_6
REMARK    4  A    between atoms: C_6  and  C_7
REMARK    5  A    between atoms: C_10  and  C_16
REMARK    6  A    between atoms: C_17  and  C_18
REMARK    7  A    between atoms: C_18  and  O_19
REMARK    8  A    between atoms: O_19  and  C_21
REMARK    9  A    between atoms: C_21  and  C_22
REMARK                            x       y       z     vdW  Elec       q    Type
REMARK                         _______ _______ _______ _____ _____    ______ ____
ROOT
ATOM      1  N   UNL     1      34.489 -17.157 -22.414  0.00  0.00    +0.388 N 
ATOM      2  H   UNL     1      33.505 -17.085 -22.670  0.00  0.00    -0.084 HD
ATOM      3  H   UNL     1      35.067 -16.645 -23.080  0.00  0.00    -0.084 HD
ENDROOT
BRANCH   1   4
ATOM      4  C   UNL     1      34.889 -18.568 -22.429  0.00  0.00    -0.057 C 
ATOM      5  C   UNL     1      34.951 -19.035 -23.883  0.00  0.00    -0.023 C 
BRANCH   4   6
ATOM      6  C   UNL     1      33.898 -19.392 -21.587  0.00  0.00    +0.005 C 
BRANCH   6   7
ATOM      7  C   UNL     1      34.565 -20.283 -20.567  0.00  0.00    -0.024 C 
ATOM      8  C   UNL     1      33.785 -21.105 -19.768  0.00  0.00    -0.000 C 
ATOM      9  C   UNL     1      35.946 -20.264 -20.447  0.00  0.00    -0.004 C 
ATOM     10  C   UNL     1      34.402 -21.928 -18.826  0.00  0.00    +0.071 C 
ATOM     11  C   UNL     1      36.563 -21.087 -19.506  0.00  0.00    -0.000 C 
ATOM     12  C   UNL     1      35.790 -21.920 -18.695  0.00  0.00    +0.004 C 
BRANCH  10  16
ATOM     13  F   UNL     1      32.273 -22.424 -17.857  0.00  0.00    -0.166 F 
ATOM     14  F   UNL     1      33.524 -24.111 -18.396  0.00  0.00    -0.166 F 
ATOM     15  F   UNL     1      34.042 -22.882 -16.679  0.00  0.00    -0.166 F 
ATOM     16  C   UNL     1      33.576 -22.818 -17.959  0.00  0.00    +0.419 C 
ENDBRANCH  10  16
ENDBRANCH   6   7
ENDBRANCH   4   6
ENDBRANCH   1   4
BRANCH   1  17
ATOM     17  C   UNL     1      34.681 -16.586 -21.091  0.00  0.00    -0.033 C 
BRANCH  17  18
ATOM     18  C   UNL     1      34.547 -15.073 -21.136  0.00  0.00    +0.186 C 
BRANCH  18  19
ATOM     19  O   UNL     1      34.463 -14.662 -22.494  0.00  0.00    -0.448 OA
BRANCH  19  21
ATOM     20  O   UNL     1      32.303 -13.935 -22.170  0.00  0.00    -0.245 OA
ATOM     21  C   UNL     1      33.290 -14.083 -22.873  0.00  0.00    +0.341 C 
BRANCH  21  22
ATOM     22  C   UNL     1      33.355 -13.640 -24.289  0.00  0.00    +0.076 C 
ATOM     23  C   UNL     1      33.025 -14.537 -25.284  0.00  0.00    +0.006 C 
ATOM     24  C   UNL     1      33.744 -12.346 -24.566  0.00  0.00    +0.006 C 
ATOM     25  C   UNL     1      33.086 -14.121 -26.614  0.00  0.00    +0.000 C 
ATOM     26  C   UNL     1      33.805 -11.929 -25.896  0.00  0.00    +0.000 C 
ATOM     27  C   UNL     1      33.476 -12.818 -26.920  0.00  0.00    +0.000 C 
ENDBRANCH  21  22
ENDBRANCH  19  21
ENDBRANCH  18  19
ENDBRANCH  17  18
ENDBRANCH   1  17
TORSDOF 9
ENDMDL
MODEL 5
REMARK VINA RESULT:      -9.8      4.667      9.485
REMARK  Name = 2318
REMARK  9 active torsions:
REMARK  status: ('A' for Active; 'I' for Inactive)
REMARK    1  A    between atoms: N_1  and  C_4
REMARK    2  A    between atoms: N_1  and  C_17
REMARK    3  A    between atoms: C_4  and  C_6
REMARK    4  A    between atoms: C_6  and  C_7
REMARK    5  A    between atoms: C_10  and  C_16
REMARK    6  A    between atoms: C_17  and  C_18
REMARK    7  A    between atoms: C_18  and  O_19
REMARK    8  A    between atoms: O_19  and  C_21
REMARK    9  A    between atoms: C_21  and  C_22
REMARK                            x       y       z     vdW  Elec       q    Type
REMARK                         _______ _______ _______ _____ _____    ______ ____
ROOT
ATOM      1  N   UNL     1      34.641 -15.136 -23.201  0.00  0.00    +0.388 N 
ATOM      2  H   UNL     1      35.342 -15.587 -23.787  0.00  0.00    -0.084 HD
ATOM      3  H   UNL     1      35.001 -14.258 -22.830  0.00  0.00    -0.084 HD
ENDROOT
BRANCH   1   4
ATOM      4  C   UNL     1      34.308 -16.021 -22.080  0.00  0.00    -0.057 C 
ATOM      5  C   UNL     1      34.440 -15.225 -20.782  0.00  0.00    -0.023 C 
BRANCH   4   6
ATOM      6  C   UNL     1      35.227 -17.256 -22.110  0.00  0.00    +0.005 C 
BRANCH   6   7
ATOM      7  C   UNL     1      34.654 -18.455 -21.394  0.00  0.00    -0.024 C 
ATOM      8  C   UNL     1      35.514 -19.393 -20.844  0.00  0.00    -0.000 C 
ATOM      9  C   UNL     1      33.279 -18.596 -21.297  0.00  0.00    -0.004 C 
ATOM     10  C   UNL     1      34.984 -20.501 -20.182  0.00  0.00    +0.071 C 
ATOM     11  C   UNL     1      32.749 -19.702 -20.634  0.00  0.00    -0.000 C 
ATOM     12  C   UNL     1      33.602 -20.656 -20.077  0.00  0.00    +0.004 C 
BRANCH  10  16
ATOM     13  F   UNL     1      37.070 -21.667 -20.267  0.00  0.00    -0.166 F 
ATOM     14  F   UNL     1      36.264 -21.239 -18.300  0.00  0.00    -0.166 F 
ATOM     15  F   UNL     1      35.337 -22.764 -19.544  0.00  0.00    -0.166 F 
ATOM     16  C   UNL     1      35.896 -21.520 -19.585  0.00  0.00    +0.419 C 
ENDBRANCH  10  16
ENDBRANCH   6   7
ENDBRANCH   4   6
ENDBRANCH   1   4
BRANCH   1  17
ATOM     17  C   UNL     1      33.459 -14.858 -24.000  0.00  0.00    -0.033 C 
BRANCH  17  18
ATOM     18  C   UNL     1      32.890 -13.490 -23.657  0.00  0.00    +0.186 C 
BRANCH  18  19
ATOM     19  O   UNL     1      33.945 -12.537 -23.686  0.00  0.00    -0.448 OA
BRANCH  19  21
ATOM     20  O   UNL     1      33.782 -11.750 -25.843  0.00  0.00    -0.245 OA
ATOM     21  C   UNL     1      33.850 -11.568 -24.637  0.00  0.00    +0.341 C 
BRANCH  21  22
ATOM     22  C   UNL     1      33.838 -10.220 -24.016  0.00  0.00    +0.076 C 
ATOM     23  C   UNL     1      34.873  -9.349 -24.292  0.00  0.00    +0.006 C 
ATOM     24  C   UNL     1      32.794  -9.878 -23.182  0.00  0.00    +0.006 C 
ATOM     25  C   UNL     1      34.863  -8.082 -23.708  0.00  0.00    +0.000 C 
ATOM     26  C   UNL     1      32.783  -8.611 -22.598  0.00  0.00    +0.000 C 
ATOM     27  C   UNL     1      33.818  -7.714 -22.862  0.00  0.00    +0.000 C 
ENDBRANCH  21  22
ENDBRANCH  19  21
ENDBRANCH  18  19
ENDBRANCH  17  18
ENDBRANCH   1  17
TORSDOF 9
ENDMDL
MODEL 6
REMARK VINA RESULT:      -9.7      5.317      9.697
REMARK  Name = 2318
REMARK  9 active torsions:
REMARK  status: ('A' for Active; 'I' for Inactive)
REMARK    1  A    between atoms: N_1  and  C_4
REMARK    2  A    between atoms: N_1  and  C_17
REMARK    3  A    between atoms: C_4  and  C_6
REMARK    4  A    between atoms: C_6  and  C_7
REMARK    5  A    between atoms: C_10  and  C_16
REMARK    6  A    between atoms: C_17  and  C_18
REMARK    7  A    between atoms: C_18  and  O_19
REMARK    8  A    between atoms: O_19  and  C_21
REMARK    9  A    between atoms: C_21  and  C_22
REMARK                            x       y       z     vdW  Elec       q    Type
REMARK                         _______ _______ _______ _____ _____    ______ ____
ROOT
ATOM      1  N   UNL     1      33.301 -21.856 -19.745  0.00  0.00    +0.388 N 
ATOM      2  H   UNL     1      32.583 -22.570 -19.866  0.00  0.00    -0.084 HD
ATOM      3  H   UNL     1      33.975 -21.899 -20.510  0.00  0.00    -0.084 HD
ENDROOT
BRANCH   1   4
ATOM      4  C   UNL     1      34.007 -22.093 -18.481  0.00  0.00    -0.057 C 
ATOM      5  C   UNL     1      35.510 -22.035 -18.752  0.00  0.00    -0.023 C 
BRANCH   4   6
ATOM      6  C   UNL     1      33.566 -23.445 -17.892  0.00  0.00    +0.005 C 
BRANCH   6   7
ATOM      7  C   UNL     1      32.746 -23.317 -16.631  0.00  0.00    -0.024 C 
ATOM      8  C   UNL     1      31.382 -23.092 -16.727  0.00  0.00    -0.000 C 
ATOM      9  C   UNL     1      33.372 -23.428 -15.399  0.00  0.00    -0.004 C 
ATOM     10  C   UNL     1      30.624 -22.975 -15.562  0.00  0.00    +0.071 C 
ATOM     11  C   UNL     1      32.615 -23.311 -14.234  0.00  0.00    -0.000 C 
ATOM     12  C   UNL     1      31.240 -23.084 -14.316  0.00  0.00    +0.004 C 
BRANCH  10  16
ATOM     13  F   UNL     1      28.712 -21.753 -14.807  0.00  0.00    -0.166 F 
ATOM     14  F   UNL     1      28.736 -22.350 -16.892  0.00  0.00    -0.166 F 
ATOM     15  F   UNL     1      28.421 -23.841 -15.340  0.00  0.00    -0.166 F 
ATOM     16  C   UNL     1      29.154 -22.732 -15.649  0.00  0.00    +0.419 C 
ENDBRANCH  10  16
ENDBRANCH   6   7
ENDBRANCH   4   6
ENDBRANCH   1   4
BRANCH   1  17
ATOM     17  C   UNL     1      32.676 -20.544 -19.743  0.00  0.00    -0.033 C 
BRANCH  17  18
ATOM     18  C   UNL     1      33.030 -19.780 -21.008  0.00  0.00    +0.186 C 
BRANCH  18  19
ATOM     19  O   UNL     1      34.371 -20.088 -21.368  0.00  0.00    -0.448 OA
BRANCH  19  21
ATOM     20  O   UNL     1      36.060 -18.740 -20.573  0.00  0.00    -0.245 OA
ATOM     21  C   UNL     1      35.233 -19.035 -21.422  0.00  0.00    +0.341 C 
BRANCH  21  22
ATOM     22  C   UNL     1      35.041 -18.262 -22.675  0.00  0.00    +0.076 C 
ATOM     23  C   UNL     1      35.120 -16.885 -22.628  0.00  0.00    +0.006 C 
ATOM     24  C   UNL     1      34.791 -18.944 -23.848  0.00  0.00    +0.006 C 
ATOM     25  C   UNL     1      34.939 -16.159 -23.805  0.00  0.00    +0.000 C 
ATOM     26  C   UNL     1      34.611 -18.218 -25.026  0.00  0.00    +0.000 C 
ATOM     27  C   UNL     1      34.685 -16.825 -25.003  0.00  0.00    +0.000 C 
ENDBRANCH  21  22
ENDBRANCH  19  21
ENDBRANCH  18  19
ENDBRANCH  17  18
ENDBRANCH   1  17
TORSDOF 9
ENDMDL
MODEL 7
REMARK VINA RESULT:      -9.7      2.418      3.397
REMARK  Name = 2318
REMARK  9 active torsions:
REMARK  status: ('A' for Active; 'I' for Inactive)
REMARK    1  A    between atoms: N_1  and  C_4
REMARK    2  A    between atoms: N_1  and  C_17
REMARK    3  A    between atoms: C_4  and  C_6
REMARK    4  A    between atoms: C_6  and  C_7
REMARK    5  A    between atoms: C_10  and  C_16
REMARK    6  A    between atoms: C_17  and  C_18
REMARK    7  A    between atoms: C_18  and  O_19
REMARK    8  A    between atoms: O_19  and  C_21
REMARK    9  A    between atoms: C_21  and  C_22
REMARK                            x       y       z     vdW  Elec       q    Type
REMARK                         _______ _______ _______ _____ _____    ______ ____
ROOT
ATOM      1  N   UNL     1      34.541 -14.095 -22.733  0.00  0.00    +0.388 N 
ATOM      2  H   UNL     1      35.043 -13.241 -22.496  0.00  0.00    -0.084 HD
ATOM      3  H   UNL     1      35.185 -14.795 -23.101  0.00  0.00    -0.084 HD
ENDROOT
BRANCH   1   4
ATOM      4  C   UNL     1      33.536 -13.795 -23.759  0.00  0.00    -0.057 C 
ATOM      5  C   UNL     1      33.449 -14.987 -24.711  0.00  0.00    -0.023 C 
BRANCH   4   6
ATOM      6  C   UNL     1      33.914 -12.489 -24.481  0.00  0.00    +0.005 C 
BRANCH   6   7
ATOM      7  C   UNL     1      33.436 -11.245 -23.771  0.00  0.00    -0.024 C 
ATOM      8  C   UNL     1      34.037 -10.028 -24.053  0.00  0.00    -0.000 C 
ATOM      9  C   UNL     1      32.404 -11.341 -22.851  0.00  0.00    -0.004 C 
ATOM     10  C   UNL     1      33.595  -8.879 -23.398  0.00  0.00    +0.071 C 
ATOM     11  C   UNL     1      31.961 -10.192 -22.196  0.00  0.00    -0.000 C 
ATOM     12  C   UNL     1      32.557  -8.960 -22.470  0.00  0.00    +0.004 C 
BRANCH  10  16
ATOM     13  F   UNL     1      35.378  -7.340 -22.981  0.00  0.00    -0.166 F 
ATOM     14  F   UNL     1      34.588  -7.406 -25.000  0.00  0.00    -0.166 F 
ATOM     15  F   UNL     1      33.414  -6.508 -23.405  0.00  0.00    -0.166 F 
ATOM     16  C   UNL     1      34.232  -7.562 -23.691  0.00  0.00    +0.419 C 
ENDBRANCH  10  16
ENDBRANCH   6   7
ENDBRANCH   4   6
ENDBRANCH   1   4
BRANCH   1  17
ATOM     17  C   UNL     1      33.908 -14.624 -21.536  0.00  0.00    -0.033 C 
BRANCH  17  18
ATOM     18  C   UNL     1      34.657 -15.846 -21.030  0.00  0.00    +0.186 C 
BRANCH  18  19
ATOM     19  O   UNL     1      34.055 -17.011 -21.579  0.00  0.00    -0.448 OA
BRANCH  19  21
ATOM     20  O   UNL     1      35.752 -17.952 -22.818  0.00  0.00    -0.245 OA
ATOM     21  C   UNL     1      34.906 -18.011 -21.939  0.00  0.00    +0.341 C 
BRANCH  21  22
ATOM     22  C   UNL     1      34.676 -19.222 -21.111  0.00  0.00    +0.076 C 
ATOM     23  C   UNL     1      35.766 -19.945 -20.669  0.00  0.00    +0.006 C 
ATOM     24  C   UNL     1      33.381 -19.587 -20.807  0.00  0.00    +0.006 C 
ATOM     25  C   UNL     1      35.550 -21.082 -19.892  0.00  0.00    +0.000 C 
ATOM     26  C   UNL     1      33.164 -20.724 -20.029  0.00  0.00    +0.000 C 
ATOM     27  C   UNL     1      34.250 -21.472 -19.572  0.00  0.00    +0.000 C 
ENDBRANCH  21  22
ENDBRANCH  19  21
ENDBRANCH  18  19
ENDBRANCH  17  18
ENDBRANCH   1  17
TORSDOF 9
ENDMDL
MODEL 8
REMARK VINA RESULT:      -9.7      1.598      2.568
REMARK  Name = 2318
REMARK  9 active torsions:
REMARK  status: ('A' for Active; 'I' for Inactive)
REMARK    1  A    between atoms: N_1  and  C_4
REMARK    2  A    between atoms: N_1  and  C_17
REMARK    3  A    between atoms: C_4  and  C_6
REMARK    4  A    between atoms: C_6  and  C_7
REMARK    5  A    between atoms: C_10  and  C_16
REMARK    6  A    between atoms: C_17  and  C_18
REMARK    7  A    between atoms: C_18  and  O_19
REMARK    8  A    between atoms: O_19  and  C_21
REMARK    9  A    between atoms: C_21  and  C_22
REMARK                            x       y       z     vdW  Elec       q    Type
REMARK                         _______ _______ _______ _____ _____    ______ ____
ROOT
ATOM      1  N   UNL     1      34.324 -13.728 -23.329  0.00  0.00    +0.388 N 
ATOM      2  H   UNL     1      34.424 -13.143 -22.500  0.00  0.00    -0.084 HD
ATOM      3  H   UNL     1      35.226 -13.847 -23.790  0.00  0.00    -0.084 HD
ENDROOT
BRANCH   1   4
ATOM      4  C   UNL     1      33.397 -13.083 -24.265  0.00  0.00    -0.057 C 
ATOM      5  C   UNL     1      32.828 -14.155 -25.194  0.00  0.00    -0.023 C 
BRANCH   4   6
ATOM      6  C   UNL     1      34.133 -11.969 -25.031  0.00  0.00    +0.005 C 
BRANCH   6   7
ATOM      7  C   UNL     1      34.069 -10.623 -24.350  0.00  0.00    -0.024 C 
ATOM      8  C   UNL     1      33.079 -10.384 -23.409  0.00  0.00    -0.000 C 
ATOM      9  C   UNL     1      35.001  -9.650 -24.676  0.00  0.00    -0.004 C 
ATOM     10  C   UNL     1      33.020  -9.141 -22.779  0.00  0.00    +0.071 C 
ATOM     11  C   UNL     1      34.942  -8.407 -24.046  0.00  0.00    -0.000 C 
ATOM     12  C   UNL     1      33.951  -8.152 -23.098  0.00  0.00    +0.004 C 
BRANCH  10  16
ATOM     13  F   UNL     1      31.141  -7.827 -22.096  0.00  0.00    -0.166 F 
ATOM     14  F   UNL     1      31.123  -9.926 -21.551  0.00  0.00    -0.166 F 
ATOM     15  F   UNL     1      32.475  -8.555 -20.540  0.00  0.00    -0.166 F 
ATOM     16  C   UNL     1      31.960  -8.869 -21.765  0.00  0.00    +0.419 C 
ENDBRANCH  10  16
ENDBRANCH   6   7
ENDBRANCH   4   6
ENDBRANCH   1   4
BRANCH   1  17
ATOM     17  C   UNL     1      33.824 -15.034 -22.933  0.00  0.00    -0.033 C 
BRANCH  17  18
ATOM     18  C   UNL     1      34.948 -16.057 -22.922  0.00  0.00    +0.186 C 
BRANCH  18  19
ATOM     19  O   UNL     1      34.685 -17.014 -21.903  0.00  0.00    -0.448 OA
BRANCH  19  21
ATOM     20  O   UNL     1      36.536 -18.252 -22.487  0.00  0.00    -0.245 OA
ATOM     21  C   UNL     1      35.463 -18.132 -21.917  0.00  0.00    +0.341 C 
BRANCH  21  22
ATOM     22  C   UNL     1      34.832 -19.222 -21.132  0.00  0.00    +0.076 C 
ATOM     23  C   UNL     1      33.455 -19.261 -21.032  0.00  0.00    +0.006 C 
ATOM     24  C   UNL     1      35.639 -20.162 -20.526  0.00  0.00    +0.006 C 
ATOM     25  C   UNL     1      32.862 -20.285 -20.294  0.00  0.00    +0.000 C 
ATOM     26  C   UNL     1      35.046 -21.188 -19.789  0.00  0.00    +0.000 C 
ATOM     27  C   UNL     1      33.656 -21.248 -19.673  0.00  0.00    +0.000 C 
ENDBRANCH  21  22
ENDBRANCH  19  21
ENDBRANCH  18  19
ENDBRANCH  17  18
ENDBRANCH   1  17
TORSDOF 9
ENDMDL
MODEL 9
REMARK VINA RESULT:      -9.7      4.149      9.124
REMARK  Name = 2318
REMARK  9 active torsions:
REMARK  status: ('A' for Active; 'I' for Inactive)
REMARK    1  A    between atoms: N_1  and  C_4
REMARK    2  A    between atoms: N_1  and  C_17
REMARK    3  A    between atoms: C_4  and  C_6
REMARK    4  A    between atoms: C_6  and  C_7
REMARK    5  A    between atoms: C_10  and  C_16
REMARK    6  A    between atoms: C_17  and  C_18
REMARK    7  A    between atoms: C_18  and  O_19
REMARK    8  A    between atoms: O_19  and  C_21
REMARK    9  A    between atoms: C_21  and  C_22
REMARK                            x       y       z     vdW  Elec       q    Type
REMARK                         _______ _______ _______ _____ _____    ______ ____
ROOT
ATOM      1  N   UNL     1      34.440 -14.602 -22.690  0.00  0.00    +0.388 N 
ATOM      2  H   UNL     1      35.427 -14.357 -22.768  0.00  0.00    -0.084 HD
ATOM      3  H   UNL     1      33.931 -13.869 -22.197  0.00  0.00    -0.084 HD
ENDROOT
BRANCH   1   4
ATOM      4  C   UNL     1      34.313 -15.854 -21.935  0.00  0.00    -0.057 C 
ATOM      5  C   UNL     1      34.635 -15.567 -20.469  0.00  0.00    -0.023 C 
BRANCH   4   6
ATOM      6  C   UNL     1      35.242 -16.918 -22.546  0.00  0.00    +0.005 C 
BRANCH   6   7
ATOM      7  C   UNL     1      35.343 -18.179 -21.722  0.00  0.00    -0.024 C 
ATOM      8  C   UNL     1      34.188 -18.880 -21.410  0.00  0.00    -0.000 C 
ATOM      9  C   UNL     1      36.586 -18.614 -21.292  0.00  0.00    -0.004 C 
ATOM     10  C   UNL     1      34.280 -20.045 -20.649  0.00  0.00    +0.071 C 
ATOM     11  C   UNL     1      36.679 -19.779 -20.531  0.00  0.00    -0.000 C 
ATOM     12  C   UNL     1      35.525 -20.495 -20.209  0.00  0.00    +0.004 C 
BRANCH  10  16
ATOM     13  F   UNL     1      33.267 -22.147 -20.122  0.00  0.00    -0.166 F 
ATOM     14  F   UNL     1      32.444 -20.389 -19.154  0.00  0.00    -0.166 F 
ATOM     15  F   UNL     1      32.089 -20.726 -21.273  0.00  0.00    -0.166 F 
ATOM     16  C   UNL     1      33.047 -20.811 -20.305  0.00  0.00    +0.419 C 
ENDBRANCH  10  16
ENDBRANCH   6   7
ENDBRANCH   4   6
ENDBRANCH   1   4
BRANCH   1  17
ATOM     17  C   UNL     1      33.878 -14.749 -24.022  0.00  0.00    -0.033 C 
BRANCH  17  18
ATOM     18  C   UNL     1      32.984 -13.567 -24.359  0.00  0.00    +0.186 C 
BRANCH  18  19
ATOM     19  O   UNL     1      33.543 -12.393 -23.783  0.00  0.00    -0.448 OA
BRANCH  19  21
ATOM     20  O   UNL     1      34.167 -11.548 -25.832  0.00  0.00    -0.245 OA
ATOM     21  C   UNL     1      33.881 -11.401 -24.653  0.00  0.00    +0.341 C 
BRANCH  21  22
ATOM     22  C   UNL     1      33.860 -10.079 -23.979  0.00  0.00    +0.076 C 
ATOM     23  C   UNL     1      32.858  -9.811 -23.068  0.00  0.00    +0.006 C 
ATOM     24  C   UNL     1      34.842  -9.160 -24.282  0.00  0.00    +0.006 C 
ATOM     25  C   UNL     1      32.838  -8.569 -22.434  0.00  0.00    +0.000 C 
ATOM     26  C   UNL     1      34.823  -7.917 -23.647  0.00  0.00    +0.000 C 
ATOM     27  C   UNL     1      33.820  -7.622 -22.723  0.00  0.00    +0.000 C 
ENDBRANCH  21  22
ENDBRANCH  19  21
ENDBRANCH  18  19
ENDBRANCH  17  18
ENDBRANCH   1  17
TORSDOF 9
ENDMDL
