MODEL 1
REMARK VINA RESULT:      -9.6      0.000      0.000
REMARK  Name = 24466
REMARK  1 active torsions:
REMARK  status: ('A' for Active; 'I' for Inactive)
REMARK    1  A    between atoms: C_5  and  C_16
REMARK                            x       y       z     vdW  Elec       q    Type
REMARK                         _______ _______ _______ _____ _____    ______ ____
ROOT
ATOM      1  N   UNL     1      34.002 -15.384 -23.922  0.00  0.00    -0.337 NA
ATOM      2  N   UNL     1      34.124 -17.163 -25.542  0.00  0.00    -0.317 NA
ATOM      3  N   UNL     1      34.768 -19.342 -24.889  0.00  0.00    -0.335 N 
ATOM      4  N   UNL     1      33.486 -14.996 -26.178  0.00  0.00    -0.283 N 
ATOM      5  C   UNL     1      34.661 -17.595 -23.235  0.00  0.00    +0.138 C 
ATOM      6  C   UNL     1      34.390 -16.266 -22.979  0.00  0.00    +0.112 C 
ATOM      7  C   UNL     1      34.508 -17.990 -24.549  0.00  0.00    +0.178 C 
ATOM      8  C   UNL     1      34.517 -15.708 -21.598  0.00  0.00    +0.063 C 
ATOM      9  C   UNL     1      33.891 -15.891 -25.164  0.00  0.00    +0.196 C 
ATOM     10  H   UNL     1      34.665 -19.644 -25.820  0.00  0.00    +0.144 HD
ATOM     11  H   UNL     1      35.052 -19.979 -24.193  0.00  0.00    +0.144 HD
ATOM     12  H   UNL     1      33.302 -14.054 -25.958  0.00  0.00    +0.156 HD
ATOM     13  H   UNL     1      33.388 -15.313 -27.105  0.00  0.00    +0.156 HD
ENDROOT
BRANCH   5  16
ATOM     14 CL   UNL     1      33.311 -21.118 -19.749  0.00  0.00    -0.081 Cl
ATOM     15 CL   UNL     1      36.436 -21.329 -18.936  0.00  0.00    -0.081 Cl
ATOM     16  C   UNL     1      35.075 -18.505 -22.189  0.00  0.00    -0.007 C 
ATOM     17  C   UNL     1      34.130 -19.292 -21.533  0.00  0.00    +0.009 C 
ATOM     18  C   UNL     1      36.423 -18.596 -21.838  0.00  0.00    -0.003 C 
ATOM     19  C   UNL     1      34.530 -20.169 -20.526  0.00  0.00    +0.068 C 
ATOM     20  C   UNL     1      36.824 -19.474 -20.832  0.00  0.00    +0.012 C 
ATOM     21  C   UNL     1      35.877 -20.261 -20.175  0.00  0.00    +0.068 C 
ENDBRANCH   5  16
TORSDOF 1
ENDMDL
MODEL 2
REMARK VINA RESULT:      -9.6      0.681      2.040
REMARK  Name = 24466
REMARK  1 active torsions:
REMARK  status: ('A' for Active; 'I' for Inactive)
REMARK    1  A    between atoms: C_5  and  C_16
REMARK                            x       y       z     vdW  Elec       q    Type
REMARK                         _______ _______ _______ _____ _____    ______ ____
ROOT
ATOM      1  N   UNL     1      34.078 -17.159 -25.496  0.00  0.00    -0.337 NA
ATOM      2  N   UNL     1      33.992 -15.365 -23.891  0.00  0.00    -0.317 NA
ATOM      3  N   UNL     1      34.551 -15.749 -21.626  0.00  0.00    -0.335 N 
ATOM      4  N   UNL     1      33.441 -14.995 -26.142  0.00  0.00    -0.283 N 
ATOM      5  C   UNL     1      34.650 -17.574 -23.193  0.00  0.00    +0.138 C 
ATOM      6  C   UNL     1      34.475 -17.979 -24.501  0.00  0.00    +0.112 C 
ATOM      7  C   UNL     1      34.392 -16.240 -22.946  0.00  0.00    +0.178 C 
ATOM      8  C   UNL     1      34.721 -19.398 -24.905  0.00  0.00    +0.063 C 
ATOM      9  C   UNL     1      33.858 -15.883 -25.126  0.00  0.00    +0.196 C 
ATOM     10  H   UNL     1      34.372 -14.801 -21.427  0.00  0.00    +0.144 HD
ATOM     11  H   UNL     1      34.840 -16.356 -20.906  0.00  0.00    +0.144 HD
ATOM     12  H   UNL     1      33.326 -15.321 -27.063  0.00  0.00    +0.156 HD
ATOM     13  H   UNL     1      33.265 -14.050 -25.928  0.00  0.00    +0.156 HD
ENDROOT
BRANCH   5  16
ATOM     14 CL   UNL     1      33.340 -21.107 -19.703  0.00  0.00    -0.081 Cl
ATOM     15 CL   UNL     1      36.478 -21.341 -18.947  0.00  0.00    -0.081 Cl
ATOM     16  C   UNL     1      35.077 -18.491 -22.160  0.00  0.00    -0.007 C 
ATOM     17  C   UNL     1      34.139 -19.276 -21.491  0.00  0.00    +0.009 C 
ATOM     18  C   UNL     1      36.430 -18.593 -21.834  0.00  0.00    -0.003 C 
ATOM     19  C   UNL     1      34.552 -20.161 -20.496  0.00  0.00    +0.068 C 
ATOM     20  C   UNL     1      36.844 -19.478 -20.840  0.00  0.00    +0.012 C 
ATOM     21  C   UNL     1      35.904 -20.262 -20.170  0.00  0.00    +0.068 C 
ENDBRANCH   5  16
TORSDOF 1
ENDMDL
MODEL 3
REMARK VINA RESULT:      -9.1      4.004      6.006
REMARK  Name = 24466
REMARK  1 active torsions:
REMARK  status: ('A' for Active; 'I' for Inactive)
REMARK    1  A    between atoms: C_5  and  C_16
REMARK                            x       y       z     vdW  Elec       q    Type
REMARK                         _______ _______ _______ _____ _____    ______ ____
ROOT
ATOM      1  N   UNL     1      34.409 -21.170 -19.409  0.00  0.00    -0.337 NA
ATOM      2  N   UNL     1      36.766 -20.696 -19.550  0.00  0.00    -0.317 NA
ATOM      3  N   UNL     1      37.593 -19.173 -21.158  0.00  0.00    -0.335 N 
ATOM      4  N   UNL     1      35.934 -22.205 -17.956  0.00  0.00    -0.283 N 
ATOM      5  C   UNL     1      35.228 -19.617 -21.056  0.00  0.00    +0.138 C 
ATOM      6  C   UNL     1      34.213 -20.311 -20.430  0.00  0.00    +0.112 C 
ATOM      7  C   UNL     1      36.498 -19.852 -20.566  0.00  0.00    +0.178 C 
ATOM      8  C   UNL     1      32.791 -20.150 -20.863  0.00  0.00    +0.063 C 
ATOM      9  C   UNL     1      35.691 -21.313 -19.024  0.00  0.00    +0.196 C 
ATOM     10  H   UNL     1      38.506 -19.326 -20.825  0.00  0.00    +0.144 HD
ATOM     11  H   UNL     1      37.440 -18.548 -21.904  0.00  0.00    +0.144 HD
ATOM     12  H   UNL     1      35.184 -22.683 -17.535  0.00  0.00    +0.156 HD
ATOM     13  H   UNL     1      36.853 -22.347 -17.634  0.00  0.00    +0.156 HD
ENDROOT
BRANCH   5  16
ATOM     14 CL   UNL     1      34.425 -14.781 -22.590  0.00  0.00    -0.081 Cl
ATOM     15 CL   UNL     1      34.166 -15.914 -25.609  0.00  0.00    -0.081 Cl
ATOM     16  C   UNL     1      34.969 -18.706 -22.149  0.00  0.00    -0.007 C 
ATOM     17  C   UNL     1      34.833 -17.340 -21.904  0.00  0.00    +0.009 C 
ATOM     18  C   UNL     1      34.857 -19.194 -23.452  0.00  0.00    -0.003 C 
ATOM     19  C   UNL     1      34.584 -16.463 -22.958  0.00  0.00    +0.068 C 
ATOM     20  C   UNL     1      34.610 -18.317 -24.507  0.00  0.00    +0.012 C 
ATOM     21  C   UNL     1      34.472 -16.951 -24.260  0.00  0.00    +0.068 C 
ENDBRANCH   5  16
TORSDOF 1
ENDMDL
MODEL 4
REMARK VINA RESULT:      -8.6      4.868      6.852
REMARK  Name = 24466
REMARK  1 active torsions:
REMARK  status: ('A' for Active; 'I' for Inactive)
REMARK    1  A    between atoms: C_5  and  C_16
REMARK                            x       y       z     vdW  Elec       q    Type
REMARK                         _______ _______ _______ _____ _____    ______ ____
ROOT
ATOM      1  N   UNL     1      34.621 -16.568 -23.579  0.00  0.00    -0.337 NA
ATOM      2  N   UNL     1      33.568 -16.251 -25.722  0.00  0.00    -0.317 NA
ATOM      3  N   UNL     1      32.547 -14.190 -26.267  0.00  0.00    -0.335 N 
ATOM      4  N   UNL     1      34.584 -18.293 -25.170  0.00  0.00    -0.283 N 
ATOM      5  C   UNL     1      33.587 -14.460 -24.113  0.00  0.00    +0.138 C 
ATOM      6  C   UNL     1      34.277 -15.302 -23.265  0.00  0.00    +0.112 C 
ATOM      7  C   UNL     1      33.256 -14.996 -25.342  0.00  0.00    +0.178 C 
ATOM      8  C   UNL     1      34.696 -14.848 -21.903  0.00  0.00    +0.063 C 
ATOM      9  C   UNL     1      34.241 -16.972 -24.806  0.00  0.00    +0.196 C 
ATOM     10  H   UNL     1      32.301 -14.552 -27.149  0.00  0.00    +0.144 HD
ATOM     11  H   UNL     1      32.299 -13.267 -26.028  0.00  0.00    +0.144 HD
ATOM     12  H   UNL     1      35.077 -18.865 -24.538  0.00  0.00    +0.156 HD
ATOM     13  H   UNL     1      34.332 -18.641 -26.055  0.00  0.00    +0.156 HD
ENDROOT
BRANCH   5  16
ATOM     14 CL   UNL     1      30.669 -11.372 -21.226  0.00  0.00    -0.081 Cl
ATOM     15 CL   UNL     1      32.206  -8.865 -22.577  0.00  0.00    -0.081 Cl
ATOM     16  C   UNL     1      33.239 -13.109 -23.730  0.00  0.00    -0.007 C 
ATOM     17  C   UNL     1      32.244 -12.886 -22.779  0.00  0.00    +0.009 C 
ATOM     18  C   UNL     1      33.901 -12.028 -24.313  0.00  0.00    -0.003 C 
ATOM     19  C   UNL     1      31.911 -11.584 -22.410  0.00  0.00    +0.068 C 
ATOM     20  C   UNL     1      33.569 -10.725 -23.944  0.00  0.00    +0.012 C 
ATOM     21  C   UNL     1      32.573 -10.503 -22.993  0.00  0.00    +0.068 C 
ENDBRANCH   5  16
TORSDOF 1
ENDMDL
MODEL 5
REMARK VINA RESULT:      -8.6      9.940     11.488
REMARK  Name = 24466
REMARK  1 active torsions:
REMARK  status: ('A' for Active; 'I' for Inactive)
REMARK    1  A    between atoms: C_5  and  C_16
REMARK                            x       y       z     vdW  Elec       q    Type
REMARK                         _______ _______ _______ _____ _____    ______ ____
ROOT
ATOM      1  N   UNL     1      38.913 -24.622 -13.565  0.00  0.00    -0.337 NA
ATOM      2  N   UNL     1      38.314 -26.675 -14.675  0.00  0.00    -0.317 NA
ATOM      3  N   UNL     1      36.117 -27.012 -15.478  0.00  0.00    -0.335 N 
ATOM      4  N   UNL     1      40.493 -26.329 -13.874  0.00  0.00    -0.283 N 
ATOM      5  C   UNL     1      36.667 -24.944 -14.374  0.00  0.00    +0.138 C 
ATOM      6  C   UNL     1      37.645 -24.198 -13.747  0.00  0.00    +0.112 C 
ATOM      7  C   UNL     1      37.066 -26.188 -14.823  0.00  0.00    +0.178 C 
ATOM      8  C   UNL     1      37.347 -22.834 -13.214  0.00  0.00    +0.063 C 
ATOM      9  C   UNL     1      39.175 -25.852 -14.046  0.00  0.00    +0.196 C 
ATOM     10  H   UNL     1      36.380 -27.903 -15.805  0.00  0.00    +0.144 HD
ATOM     11  H   UNL     1      35.193 -26.694 -15.605  0.00  0.00    +0.144 HD
ATOM     12  H   UNL     1      41.164 -25.769 -13.421  0.00  0.00    +0.156 HD
ATOM     13  H   UNL     1      40.741 -27.222 -14.207  0.00  0.00    +0.156 HD
ENDROOT
BRANCH   5  16
ATOM     14 CL   UNL     1      33.159 -22.885 -17.510  0.00  0.00    -0.081 Cl
ATOM     15 CL   UNL     1      31.097 -22.913 -15.016  0.00  0.00    -0.081 Cl
ATOM     16  C   UNL     1      35.320 -24.447 -14.546  0.00  0.00    -0.007 C 
ATOM     17  C   UNL     1      34.909 -23.957 -15.785  0.00  0.00    +0.009 C 
ATOM     18  C   UNL     1      34.431 -24.459 -13.471  0.00  0.00    -0.003 C 
ATOM     19  C   UNL     1      33.609 -23.479 -15.949  0.00  0.00    +0.068 C 
ATOM     20  C   UNL     1      33.131 -23.982 -13.635  0.00  0.00    +0.012 C 
ATOM     21  C   UNL     1      32.720 -23.491 -14.875  0.00  0.00    +0.068 C 
ENDBRANCH   5  16
TORSDOF 1
ENDMDL
MODEL 6
REMARK VINA RESULT:      -8.6      1.534      2.979
REMARK  Name = 24466
REMARK  1 active torsions:
REMARK  status: ('A' for Active; 'I' for Inactive)
REMARK    1  A    between atoms: C_5  and  C_16
REMARK                            x       y       z     vdW  Elec       q    Type
REMARK                         _______ _______ _______ _____ _____    ______ ____
ROOT
ATOM      1  N   UNL     1      34.505 -16.025 -24.084  0.00  0.00    -0.337 NA
ATOM      2  N   UNL     1      34.426 -14.857 -21.978  0.00  0.00    -0.317 NA
ATOM      3  N   UNL     1      34.374 -16.054 -19.940  0.00  0.00    -0.335 N 
ATOM      4  N   UNL     1      34.478 -13.680 -24.008  0.00  0.00    -0.283 N 
ATOM      5  C   UNL     1      34.452 -17.265 -22.020  0.00  0.00    +0.138 C 
ATOM      6  C   UNL     1      34.496 -17.186 -23.398  0.00  0.00    +0.112 C 
ATOM      7  C   UNL     1      34.419 -16.054 -21.357  0.00  0.00    +0.178 C 
ATOM      8  C   UNL     1      34.535 -18.423 -24.237  0.00  0.00    +0.063 C 
ATOM      9  C   UNL     1      34.470 -14.915 -23.323  0.00  0.00    +0.196 C 
ATOM     10  H   UNL     1      34.350 -15.202 -19.448  0.00  0.00    +0.144 HD
ATOM     11  H   UNL     1      34.367 -16.907 -19.448  0.00  0.00    +0.144 HD
ATOM     12  H   UNL     1      34.510 -13.663 -24.991  0.00  0.00    +0.156 HD
ATOM     13  H   UNL     1      34.454 -12.836 -23.501  0.00  0.00    +0.156 HD
ENDROOT
BRANCH   5  16
ATOM     14 CL   UNL     1      37.158 -21.128 -19.986  0.00  0.00    -0.081 Cl
ATOM     15 CL   UNL     1      34.345 -22.497 -19.160  0.00  0.00    -0.081 Cl
ATOM     16  C   UNL     1      34.443 -18.535 -21.328  0.00  0.00    -0.007 C 
ATOM     17  C   UNL     1      35.645 -19.168 -21.015  0.00  0.00    +0.009 C 
ATOM     18  C   UNL     1      33.230 -19.125 -20.971  0.00  0.00    -0.003 C 
ATOM     19  C   UNL     1      35.635 -20.392 -20.346  0.00  0.00    +0.068 C 
ATOM     20  C   UNL     1      33.220 -20.348 -20.302  0.00  0.00    +0.012 C 
ATOM     21  C   UNL     1      34.423 -20.982 -19.990  0.00  0.00    +0.068 C 
ENDBRANCH   5  16
TORSDOF 1
ENDMDL
MODEL 7
REMARK VINA RESULT:      -8.5      4.923      7.001
REMARK  Name = 24466
REMARK  1 active torsions:
REMARK  status: ('A' for Active; 'I' for Inactive)
REMARK    1  A    between atoms: C_5  and  C_16
REMARK                            x       y       z     vdW  Elec       q    Type
REMARK                         _______ _______ _______ _____ _____    ______ ____
ROOT
ATOM      1  N   UNL     1      33.693 -16.205 -25.731  0.00  0.00    -0.337 NA
ATOM      2  N   UNL     1      34.683 -16.552 -23.562  0.00  0.00    -0.317 NA
ATOM      3  N   UNL     1      34.662 -14.832 -21.941  0.00  0.00    -0.335 N 
ATOM      4  N   UNL     1      34.697 -18.253 -25.180  0.00  0.00    -0.283 N 
ATOM      5  C   UNL     1      33.661 -14.438 -24.096  0.00  0.00    +0.138 C 
ATOM      6  C   UNL     1      33.367 -14.956 -25.341  0.00  0.00    +0.112 C 
ATOM      7  C   UNL     1      34.327 -15.293 -23.239  0.00  0.00    +0.178 C 
ATOM      8  C   UNL     1      32.650 -14.135 -26.365  0.00  0.00    +0.063 C 
ATOM      9  C   UNL     1      34.340 -16.939 -24.806  0.00  0.00    +0.196 C 
ATOM     10  H   UNL     1      35.136 -15.425 -21.315  0.00  0.00    +0.144 HD
ATOM     11  H   UNL     1      34.420 -13.917 -21.666  0.00  0.00    +0.144 HD
ATOM     12  H   UNL     1      34.471 -18.588 -26.077  0.00  0.00    +0.156 HD
ATOM     13  H   UNL     1      35.171 -18.834 -24.542  0.00  0.00    +0.156 HD
ENDROOT
BRANCH   5  16
ATOM     14 CL   UNL     1      30.677 -11.378 -21.247  0.00  0.00    -0.081 Cl
ATOM     15 CL   UNL     1      32.190  -8.856 -22.598  0.00  0.00    -0.081 Cl
ATOM     16  C   UNL     1      33.292 -13.090 -23.723  0.00  0.00    -0.007 C 
ATOM     17  C   UNL     1      32.286 -12.877 -22.780  0.00  0.00    +0.009 C 
ATOM     18  C   UNL     1      33.943 -12.003 -24.305  0.00  0.00    -0.003 C 
ATOM     19  C   UNL     1      31.931 -11.577 -22.421  0.00  0.00    +0.068 C 
ATOM     20  C   UNL     1      33.590 -10.703 -23.945  0.00  0.00    +0.012 C 
ATOM     21  C   UNL     1      32.583 -10.490 -23.003  0.00  0.00    +0.068 C 
ENDBRANCH   5  16
TORSDOF 1
ENDMDL
MODEL 8
REMARK VINA RESULT:      -8.5      5.240      7.087
REMARK  Name = 24466
REMARK  1 active torsions:
REMARK  status: ('A' for Active; 'I' for Inactive)
REMARK    1  A    between atoms: C_5  and  C_16
REMARK                            x       y       z     vdW  Elec       q    Type
REMARK                         _______ _______ _______ _____ _____    ______ ____
ROOT
ATOM      1  N   UNL     1      34.637 -16.661 -23.566  0.00  0.00    -0.337 NA
ATOM      2  N   UNL     1      33.599 -16.307 -25.711  0.00  0.00    -0.317 NA
ATOM      3  N   UNL     1      32.572 -14.241 -26.224  0.00  0.00    -0.335 N 
ATOM      4  N   UNL     1      34.622 -18.354 -25.190  0.00  0.00    -0.283 N 
ATOM      5  C   UNL     1      33.596 -14.548 -24.067  0.00  0.00    +0.138 C 
ATOM      6  C   UNL     1      34.284 -15.403 -23.230  0.00  0.00    +0.112 C 
ATOM      7  C   UNL     1      33.278 -15.061 -25.309  0.00  0.00    +0.178 C 
ATOM      8  C   UNL     1      34.689 -14.973 -21.856  0.00  0.00    +0.063 C 
ATOM      9  C   UNL     1      34.269 -17.043 -24.803  0.00  0.00    +0.196 C 
ATOM     10  H   UNL     1      32.336 -14.587 -27.115  0.00  0.00    +0.144 HD
ATOM     11  H   UNL     1      32.318 -13.324 -25.969  0.00  0.00    +0.144 HD
ATOM     12  H   UNL     1      35.113 -18.936 -24.566  0.00  0.00    +0.156 HD
ATOM     13  H   UNL     1      34.379 -18.686 -26.084  0.00  0.00    +0.156 HD
ENDROOT
BRANCH   5  16
ATOM     14 CL   UNL     1      34.541  -9.509 -24.389  0.00  0.00    -0.081 Cl
ATOM     15 CL   UNL     1      32.064  -9.043 -22.359  0.00  0.00    -0.081 Cl
ATOM     16  C   UNL     1      33.238 -13.206 -23.661  0.00  0.00    -0.007 C 
ATOM     17  C   UNL     1      33.957 -12.115 -24.145  0.00  0.00    +0.009 C 
ATOM     18  C   UNL     1      32.170 -13.005 -22.786  0.00  0.00    -0.003 C 
ATOM     19  C   UNL     1      33.611 -10.822 -23.754  0.00  0.00    +0.068 C 
ATOM     20  C   UNL     1      31.822 -11.712 -22.395  0.00  0.00    +0.012 C 
ATOM     21  C   UNL     1      32.543 -10.620 -22.879  0.00  0.00    +0.068 C 
ENDBRANCH   5  16
TORSDOF 1
ENDMDL
MODEL 9
REMARK VINA RESULT:      -8.4      5.272      7.226
REMARK  Name = 24466
REMARK  1 active torsions:
REMARK  status: ('A' for Active; 'I' for Inactive)
REMARK    1  A    between atoms: C_5  and  C_16
REMARK                            x       y       z     vdW  Elec       q    Type
REMARK                         _______ _______ _______ _____ _____    ______ ____
ROOT
ATOM      1  N   UNL     1      33.735 -16.282 -25.709  0.00  0.00    -0.337 NA
ATOM      2  N   UNL     1      34.695 -16.663 -23.533  0.00  0.00    -0.317 NA
ATOM      3  N   UNL     1      34.653 -14.968 -21.886  0.00  0.00    -0.335 N 
ATOM      4  N   UNL     1      34.731 -18.339 -25.175  0.00  0.00    -0.283 N 
ATOM      5  C   UNL     1      33.681 -14.540 -24.047  0.00  0.00    +0.138 C 
ATOM      6  C   UNL     1      33.405 -15.039 -25.304  0.00  0.00    +0.112 C 
ATOM      7  C   UNL     1      34.335 -15.408 -23.195  0.00  0.00    +0.178 C 
ATOM      8  C   UNL     1      32.701 -14.203 -26.325  0.00  0.00    +0.063 C 
ATOM      9  C   UNL     1      34.369 -17.030 -24.787  0.00  0.00    +0.196 C 
ATOM     10  H   UNL     1      35.119 -15.570 -21.262  0.00  0.00    +0.144 HD
ATOM     11  H   UNL     1      34.408 -14.057 -21.600  0.00  0.00    +0.144 HD
ATOM     12  H   UNL     1      34.518 -18.660 -26.081  0.00  0.00    +0.156 HD
ATOM     13  H   UNL     1      35.197 -18.930 -24.541  0.00  0.00    +0.156 HD
ENDROOT
BRANCH   5  16
ATOM     14 CL   UNL     1      34.598  -9.498 -24.392  0.00  0.00    -0.081 Cl
ATOM     15 CL   UNL     1      32.082  -9.033 -22.411  0.00  0.00    -0.081 Cl
ATOM     16  C   UNL     1      33.307 -13.198 -23.659  0.00  0.00    -0.007 C 
ATOM     17  C   UNL     1      34.028 -12.105 -24.138  0.00  0.00    +0.009 C 
ATOM     18  C   UNL     1      32.222 -12.997 -22.805  0.00  0.00    -0.003 C 
ATOM     19  C   UNL     1      33.666 -10.812 -23.764  0.00  0.00    +0.068 C 
ATOM     20  C   UNL     1      31.859 -11.704 -22.431  0.00  0.00    +0.012 C 
ATOM     21  C   UNL     1      32.581 -10.611 -22.910  0.00  0.00    +0.068 C 
ENDBRANCH   5  16
TORSDOF 1
ENDMDL
