MODEL 1
REMARK VINA RESULT:      -9.0      0.000      0.000
REMARK  Name = 22690393
REMARK  6 active torsions:
REMARK  status: ('A' for Active; 'I' for Inactive)
REMARK    1  A    between atoms: C_1  and  O_16
REMARK    2  A    between atoms: C_2  and  N_8
REMARK    3  A    between atoms: C_9  and  C_11
REMARK    4  A    between atoms: C_11  and  N_12
REMARK    5  A    between atoms: O_16  and  C_17
REMARK    6  A    between atoms: C_17  and  C_18
REMARK                            x       y       z     vdW  Elec       q    Type
REMARK                         _______ _______ _______ _____ _____    ______ ____
ROOT
ATOM      1  C   UNL     1      34.755 -21.526 -19.459  0.00  0.00    +0.139 C 
ATOM      2  C   UNL     1      34.744 -19.254 -21.078  0.00  0.00    +0.050 C 
ATOM      3  C   UNL     1      35.960 -20.947 -19.858  0.00  0.00    +0.038 C 
ATOM      4  C   UNL     1      33.544 -20.968 -19.869  0.00  0.00    +0.038 C 
ATOM      5  C   UNL     1      35.955 -19.811 -20.667  0.00  0.00    +0.018 C 
ATOM      6  C   UNL     1      33.538 -19.832 -20.680  0.00  0.00    +0.018 C 
ENDROOT
BRANCH   2   8
ATOM      7  O   UNL     1      35.085 -16.358 -20.371  0.00  0.00    -0.277 OA
ATOM      8  N   UNL     1      34.737 -18.119 -21.889  0.00  0.00    -0.286 N 
ATOM      9  C   UNL     1      34.906 -16.776 -21.509  0.00  0.00    +0.204 C 
ATOM     10  H   UNL     1      34.598 -18.279 -22.851  0.00  0.00    +0.155 HD
BRANCH   9  11
ATOM     11  C   UNL     1      34.828 -15.859 -22.717  0.00  0.00    +0.001 C 
BRANCH  11  12
ATOM     12  N   UNL     1      35.450 -16.510 -23.861  0.00  0.00    +0.386 N 
ATOM     13  H   UNL     1      35.662 -17.479 -23.628  0.00  0.00    -0.089 HD
ATOM     14  H   UNL     1      36.312 -16.022 -24.102  0.00  0.00    -0.089 HD
ATOM     15  H   UNL     1      34.811 -16.483 -24.656  0.00  0.00    -0.089 HD
ENDBRANCH  11  12
ENDBRANCH   9  11
ENDBRANCH   2   8
BRANCH   1  16
ATOM     16  O   UNL     1      34.761 -22.642 -18.664  0.00  0.00    -0.471 OA
BRANCH  16  17
ATOM     17  C   UNL     1      33.515 -23.300 -18.474  0.00  0.00    +0.232 C 
BRANCH  17  18
ATOM     18  C   UNL     1      33.168 -23.294 -17.024  0.00  0.00    +0.021 C 
ATOM     19  C   UNL     1      31.839 -23.146 -16.625  0.00  0.00    -0.001 C 
ATOM     20  C   UNL     1      34.172 -23.439 -16.066  0.00  0.00    -0.001 C 
ATOM     21  C   UNL     1      31.514 -23.141 -15.268  0.00  0.00    -0.000 C 
ATOM     22  C   UNL     1      33.847 -23.434 -14.710  0.00  0.00    -0.000 C 
ATOM     23  C   UNL     1      32.518 -23.284 -14.311  0.00  0.00    -0.000 C 
ENDBRANCH  17  18
ENDBRANCH  16  17
ENDBRANCH   1  16
TORSDOF 6
ENDMDL
MODEL 2
REMARK VINA RESULT:      -9.0      0.063      1.569
REMARK  Name = 22690393
REMARK  6 active torsions:
REMARK  status: ('A' for Active; 'I' for Inactive)
REMARK    1  A    between atoms: C_1  and  O_16
REMARK    2  A    between atoms: C_2  and  N_8
REMARK    3  A    between atoms: C_9  and  C_11
REMARK    4  A    between atoms: C_11  and  N_12
REMARK    5  A    between atoms: O_16  and  C_17
REMARK    6  A    between atoms: C_17  and  C_18
REMARK                            x       y       z     vdW  Elec       q    Type
REMARK                         _______ _______ _______ _____ _____    ______ ____
ROOT
ATOM      1  C   UNL     1      34.760 -21.531 -19.470  0.00  0.00    +0.139 C 
ATOM      2  C   UNL     1      34.768 -19.272 -21.106  0.00  0.00    +0.050 C 
ATOM      3  C   UNL     1      33.554 -20.966 -19.884  0.00  0.00    +0.038 C 
ATOM      4  C   UNL     1      35.970 -20.967 -19.875  0.00  0.00    +0.038 C 
ATOM      5  C   UNL     1      33.558 -19.837 -20.702  0.00  0.00    +0.018 C 
ATOM      6  C   UNL     1      35.974 -19.837 -20.693  0.00  0.00    +0.018 C 
ENDROOT
BRANCH   2   8
ATOM      7  O   UNL     1      35.123 -16.374 -20.412  0.00  0.00    -0.277 OA
ATOM      8  N   UNL     1      34.772 -18.141 -21.923  0.00  0.00    -0.286 N 
ATOM      9  C   UNL     1      34.946 -16.797 -21.549  0.00  0.00    +0.204 C 
ATOM     10  H   UNL     1      34.637 -18.306 -22.885  0.00  0.00    +0.155 HD
BRANCH   9  11
ATOM     11  C   UNL     1      34.881 -15.885 -22.762  0.00  0.00    +0.001 C 
BRANCH  11  12
ATOM     12  N   UNL     1      35.413 -16.584 -23.923  0.00  0.00    +0.386 N 
ATOM     13  H   UNL     1      36.358 -16.254 -24.116  0.00  0.00    -0.089 HD
ATOM     14  H   UNL     1      34.818 -16.403 -24.731  0.00  0.00    -0.089 HD
ATOM     15  H   UNL     1      35.435 -17.587 -23.736  0.00  0.00    -0.089 HD
ENDBRANCH  11  12
ENDBRANCH   9  11
ENDBRANCH   2   8
BRANCH   1  16
ATOM     16  O   UNL     1      34.756 -22.641 -18.666  0.00  0.00    -0.471 OA
BRANCH  16  17
ATOM     17  C   UNL     1      33.503 -23.283 -18.466  0.00  0.00    +0.232 C 
BRANCH  17  18
ATOM     18  C   UNL     1      33.188 -23.313 -17.008  0.00  0.00    +0.021 C 
ATOM     19  C   UNL     1      34.213 -23.476 -16.076  0.00  0.00    -0.001 C 
ATOM     20  C   UNL     1      31.869 -23.177 -16.578  0.00  0.00    -0.001 C 
ATOM     21  C   UNL     1      33.919 -23.504 -14.713  0.00  0.00    -0.000 C 
ATOM     22  C   UNL     1      31.574 -23.205 -15.214  0.00  0.00    -0.000 C 
ATOM     23  C   UNL     1      32.600 -23.369 -14.283  0.00  0.00    -0.000 C 
ENDBRANCH  17  18
ENDBRANCH  16  17
ENDBRANCH   1  16
TORSDOF 6
ENDMDL
MODEL 3
REMARK VINA RESULT:      -9.0      3.052      5.438
REMARK  Name = 22690393
REMARK  6 active torsions:
REMARK  status: ('A' for Active; 'I' for Inactive)
REMARK    1  A    between atoms: C_1  and  O_16
REMARK    2  A    between atoms: C_2  and  N_8
REMARK    3  A    between atoms: C_9  and  C_11
REMARK    4  A    between atoms: C_11  and  N_12
REMARK    5  A    between atoms: O_16  and  C_17
REMARK    6  A    between atoms: C_17  and  C_18
REMARK                            x       y       z     vdW  Elec       q    Type
REMARK                         _______ _______ _______ _____ _____    ______ ____
ROOT
ATOM      1  C   UNL     1      35.007 -16.822 -21.794  0.00  0.00    +0.139 C 
ATOM      2  C   UNL     1      34.197 -15.157 -23.880  0.00  0.00    +0.050 C 
ATOM      3  C   UNL     1      35.213 -17.211 -23.118  0.00  0.00    +0.038 C 
ATOM      4  C   UNL     1      34.396 -15.600 -21.514  0.00  0.00    +0.038 C 
ATOM      5  C   UNL     1      34.809 -16.379 -24.161  0.00  0.00    +0.018 C 
ATOM      6  C   UNL     1      33.990 -14.767 -22.556  0.00  0.00    +0.018 C 
ENDROOT
BRANCH   2   8
ATOM      7  O   UNL     1      32.889 -15.819 -26.499  0.00  0.00    -0.277 OA
ATOM      8  N   UNL     1      33.790 -14.324 -24.923  0.00  0.00    -0.286 N 
ATOM      9  C   UNL     1      33.176 -14.683 -26.135  0.00  0.00    +0.204 C 
ATOM     10  H   UNL     1      33.953 -13.361 -24.792  0.00  0.00    +0.155 HD
BRANCH   9  11
ATOM     11  C   UNL     1      32.901 -13.456 -26.987  0.00  0.00    +0.001 C 
BRANCH  11  12
ATOM     12  N   UNL     1      33.597 -12.309 -26.423  0.00  0.00    +0.386 N 
ATOM     13  H   UNL     1      33.429 -11.488 -27.004  0.00  0.00    -0.089 HD
ATOM     14  H   UNL     1      34.598 -12.502 -26.388  0.00  0.00    -0.089 HD
ATOM     15  H   UNL     1      33.253 -12.133 -25.478  0.00  0.00    -0.089 HD
ENDBRANCH  11  12
ENDBRANCH   9  11
ENDBRANCH   2   8
BRANCH   1  16
ATOM     16  O   UNL     1      35.405 -17.641 -20.770  0.00  0.00    -0.471 OA
BRANCH  16  17
ATOM     17  C   UNL     1      36.004 -18.878 -21.134  0.00  0.00    +0.232 C 
BRANCH  17  18
ATOM     18  C   UNL     1      35.256 -19.999 -20.493  0.00  0.00    +0.021 C 
ATOM     19  C   UNL     1      35.949 -21.009 -19.827  0.00  0.00    -0.001 C 
ATOM     20  C   UNL     1      33.863 -20.034 -20.559  0.00  0.00    -0.001 C 
ATOM     21  C   UNL     1      35.249 -22.057 -19.227  0.00  0.00    -0.000 C 
ATOM     22  C   UNL     1      33.164 -21.081 -19.959  0.00  0.00    -0.000 C 
ATOM     23  C   UNL     1      33.857 -22.093 -19.294  0.00  0.00    -0.000 C 
ENDBRANCH  17  18
ENDBRANCH  16  17
ENDBRANCH   1  16
TORSDOF 6
ENDMDL
MODEL 4
REMARK VINA RESULT:      -8.9      3.099      5.399
REMARK  Name = 22690393
REMARK  6 active torsions:
REMARK  status: ('A' for Active; 'I' for Inactive)
REMARK    1  A    between atoms: C_1  and  O_16
REMARK    2  A    between atoms: C_2  and  N_8
REMARK    3  A    between atoms: C_9  and  C_11
REMARK    4  A    between atoms: C_11  and  N_12
REMARK    5  A    between atoms: O_16  and  C_17
REMARK    6  A    between atoms: C_17  and  C_18
REMARK                            x       y       z     vdW  Elec       q    Type
REMARK                         _______ _______ _______ _____ _____    ______ ____
ROOT
ATOM      1  C   UNL     1      34.784 -17.345 -22.766  0.00  0.00    +0.139 C 
ATOM      2  C   UNL     1      34.382 -14.627 -23.247  0.00  0.00    +0.050 C 
ATOM      3  C   UNL     1      34.578 -16.890 -24.068  0.00  0.00    +0.038 C 
ATOM      4  C   UNL     1      34.790 -16.441 -21.704  0.00  0.00    +0.038 C 
ATOM      5  C   UNL     1      34.377 -15.532 -24.309  0.00  0.00    +0.018 C 
ATOM      6  C   UNL     1      34.589 -15.081 -21.944  0.00  0.00    +0.018 C 
ENDROOT
BRANCH   2   8
ATOM      7  O   UNL     1      31.973 -12.905 -22.755  0.00  0.00    -0.277 OA
ATOM      8  N   UNL     1      34.179 -13.268 -23.487  0.00  0.00    -0.286 N 
ATOM      9  C   UNL     1      33.027 -12.502 -23.235  0.00  0.00    +0.204 C 
ATOM     10  H   UNL     1      34.940 -12.783 -23.881  0.00  0.00    +0.155 HD
BRANCH   9  11
ATOM     11  C   UNL     1      33.239 -11.056 -23.648  0.00  0.00    +0.001 C 
BRANCH  11  12
ATOM     12  N   UNL     1      34.564 -10.908 -24.233  0.00  0.00    +0.386 N 
ATOM     13  H   UNL     1      34.486 -10.873 -25.249  0.00  0.00    -0.089 HD
ATOM     14  H   UNL     1      35.145 -11.701 -23.964  0.00  0.00    -0.089 HD
ATOM     15  H   UNL     1      34.991 -10.044 -23.895  0.00  0.00    -0.089 HD
ENDBRANCH  11  12
ENDBRANCH   9  11
ENDBRANCH   2   8
BRANCH   1  16
ATOM     16  O   UNL     1      34.982 -18.680 -22.530  0.00  0.00    -0.471 OA
BRANCH  16  17
ATOM     17  C   UNL     1      35.809 -19.021 -21.425  0.00  0.00    +0.232 C 
BRANCH  17  18
ATOM     18  C   UNL     1      35.132 -20.064 -20.601  0.00  0.00    +0.021 C 
ATOM     19  C   UNL     1      35.891 -20.983 -19.878  0.00  0.00    -0.001 C 
ATOM     20  C   UNL     1      33.739 -20.118 -20.554  0.00  0.00    -0.001 C 
ATOM     21  C   UNL     1      35.257 -21.959 -19.107  0.00  0.00    -0.000 C 
ATOM     22  C   UNL     1      33.105 -21.094 -19.784  0.00  0.00    -0.000 C 
ATOM     23  C   UNL     1      33.865 -22.014 -19.061  0.00  0.00    -0.000 C 
ENDBRANCH  17  18
ENDBRANCH  16  17
ENDBRANCH   1  16
TORSDOF 6
ENDMDL
MODEL 5
REMARK VINA RESULT:      -8.7      2.684      8.036
REMARK  Name = 22690393
REMARK  6 active torsions:
REMARK  status: ('A' for Active; 'I' for Inactive)
REMARK    1  A    between atoms: C_1  and  O_16
REMARK    2  A    between atoms: C_2  and  N_8
REMARK    3  A    between atoms: C_9  and  C_11
REMARK    4  A    between atoms: C_11  and  N_12
REMARK    5  A    between atoms: O_16  and  C_17
REMARK    6  A    between atoms: C_17  and  C_18
REMARK                            x       y       z     vdW  Elec       q    Type
REMARK                         _______ _______ _______ _____ _____    ______ ____
ROOT
ATOM      1  C   UNL     1      35.039 -19.617 -21.262  0.00  0.00    +0.139 C 
ATOM      2  C   UNL     1      33.574 -21.242 -19.532  0.00  0.00    +0.050 C 
ATOM      3  C   UNL     1      35.689 -20.583 -20.494  0.00  0.00    +0.038 C 
ATOM      4  C   UNL     1      33.655 -19.465 -21.166  0.00  0.00    +0.038 C 
ATOM      5  C   UNL     1      34.957 -21.396 -19.629  0.00  0.00    +0.018 C 
ATOM      6  C   UNL     1      32.922 -20.277 -20.300  0.00  0.00    +0.018 C 
ENDROOT
BRANCH   2   8
ATOM      7  O   UNL     1      34.492 -23.064 -17.330  0.00  0.00    -0.277 OA
ATOM      8  N   UNL     1      32.841 -22.054 -18.666  0.00  0.00    -0.286 N 
ATOM      9  C   UNL     1      33.319 -22.891 -17.643  0.00  0.00    +0.204 C 
ATOM     10  H   UNL     1      31.863 -22.037 -18.785  0.00  0.00    +0.155 HD
BRANCH   9  11
ATOM     11  C   UNL     1      32.172 -23.598 -16.941  0.00  0.00    +0.001 C 
BRANCH  11  12
ATOM     12  N   UNL     1      31.014 -22.717 -16.899  0.00  0.00    +0.386 N 
ATOM     13  H   UNL     1      30.680 -22.638 -15.939  0.00  0.00    -0.089 HD
ATOM     14  H   UNL     1      30.274 -23.102 -17.486  0.00  0.00    -0.089 HD
ATOM     15  H   UNL     1      31.276 -21.793 -17.245  0.00  0.00    -0.089 HD
ENDBRANCH  11  12
ENDBRANCH   9  11
ENDBRANCH   2   8
BRANCH   1  16
ATOM     16  O   UNL     1      35.759 -18.819 -22.111  0.00  0.00    -0.471 OA
BRANCH  16  17
ATOM     17  C   UNL     1      35.362 -18.813 -23.477  0.00  0.00    +0.232 C 
BRANCH  17  18
ATOM     18  C   UNL     1      34.848 -17.460 -23.838  0.00  0.00    +0.021 C 
ATOM     19  C   UNL     1      34.933 -16.413 -22.921  0.00  0.00    -0.001 C 
ATOM     20  C   UNL     1      34.283 -17.243 -25.095  0.00  0.00    -0.001 C 
ATOM     21  C   UNL     1      34.452 -15.148 -23.259  0.00  0.00    -0.000 C 
ATOM     22  C   UNL     1      33.802 -15.978 -25.434  0.00  0.00    -0.000 C 
ATOM     23  C   UNL     1      33.887 -14.931 -24.515  0.00  0.00    -0.000 C 
ENDBRANCH  17  18
ENDBRANCH  16  17
ENDBRANCH   1  16
TORSDOF 6
ENDMDL
MODEL 6
REMARK VINA RESULT:      -8.7      3.492      5.901
REMARK  Name = 22690393
REMARK  6 active torsions:
REMARK  status: ('A' for Active; 'I' for Inactive)
REMARK    1  A    between atoms: C_1  and  O_16
REMARK    2  A    between atoms: C_2  and  N_8
REMARK    3  A    between atoms: C_9  and  C_11
REMARK    4  A    between atoms: C_11  and  N_12
REMARK    5  A    between atoms: O_16  and  C_17
REMARK    6  A    between atoms: C_17  and  C_18
REMARK                            x       y       z     vdW  Elec       q    Type
REMARK                         _______ _______ _______ _____ _____    ______ ____
ROOT
ATOM      1  C   UNL     1      34.769 -16.401 -21.901  0.00  0.00    +0.139 C 
ATOM      2  C   UNL     1      33.042 -14.211 -21.876  0.00  0.00    +0.050 C 
ATOM      3  C   UNL     1      34.293 -15.874 -23.102  0.00  0.00    +0.038 C 
ATOM      4  C   UNL     1      34.382 -15.831 -20.688  0.00  0.00    +0.038 C 
ATOM      5  C   UNL     1      33.430 -14.780 -23.090  0.00  0.00    +0.018 C 
ATOM      6  C   UNL     1      33.518 -14.736 -20.675  0.00  0.00    +0.018 C 
ENDROOT
BRANCH   2   8
ATOM      7  O   UNL     1      33.153 -11.627 -23.399  0.00  0.00    -0.277 OA
ATOM      8  N   UNL     1      32.177 -13.117 -21.863  0.00  0.00    -0.286 N 
ATOM      9  C   UNL     1      32.270 -11.923 -22.601  0.00  0.00    +0.204 C 
ATOM     10  H   UNL     1      31.400 -13.190 -21.261  0.00  0.00    +0.155 HD
BRANCH   9  11
ATOM     11  C   UNL     1      31.110 -10.997 -22.281  0.00  0.00    +0.001 C 
BRANCH  11  12
ATOM     12  N   UNL     1      30.413 -11.484 -21.100  0.00  0.00    +0.386 N 
ATOM     13  H   UNL     1      30.463 -10.784 -20.361  0.00  0.00    -0.089 HD
ATOM     14  H   UNL     1      30.849 -12.348 -20.780  0.00  0.00    -0.089 HD
ATOM     15  H   UNL     1      29.435 -11.664 -21.332  0.00  0.00    -0.089 HD
ENDBRANCH  11  12
ENDBRANCH   9  11
ENDBRANCH   2   8
BRANCH   1  16
ATOM     16  O   UNL     1      35.617 -17.477 -21.914  0.00  0.00    -0.471 OA
BRANCH  16  17
ATOM     17  C   UNL     1      35.123 -18.676 -22.496  0.00  0.00    +0.232 C 
BRANCH  17  18
ATOM     18  C   UNL     1      34.671 -19.602 -21.417  0.00  0.00    +0.021 C 
ATOM     19  C   UNL     1      33.323 -19.658 -21.064  0.00  0.00    -0.001 C 
ATOM     20  C   UNL     1      35.598 -20.412 -20.761  0.00  0.00    -0.001 C 
ATOM     21  C   UNL     1      32.901 -20.524 -20.055  0.00  0.00    -0.000 C 
ATOM     22  C   UNL     1      35.176 -21.278 -19.752  0.00  0.00    -0.000 C 
ATOM     23  C   UNL     1      33.827 -21.333 -19.399  0.00  0.00    -0.000 C 
ENDBRANCH  17  18
ENDBRANCH  16  17
ENDBRANCH   1  16
TORSDOF 6
ENDMDL
MODEL 7
REMARK VINA RESULT:      -8.5      1.484      2.312
REMARK  Name = 22690393
REMARK  6 active torsions:
REMARK  status: ('A' for Active; 'I' for Inactive)
REMARK    1  A    between atoms: C_1  and  O_16
REMARK    2  A    between atoms: C_2  and  N_8
REMARK    3  A    between atoms: C_9  and  C_11
REMARK    4  A    between atoms: C_11  and  N_12
REMARK    5  A    between atoms: O_16  and  C_17
REMARK    6  A    between atoms: C_17  and  C_18
REMARK                            x       y       z     vdW  Elec       q    Type
REMARK                         _______ _______ _______ _____ _____    ______ ____
ROOT
ATOM      1  C   UNL     1      34.417 -21.958 -19.267  0.00  0.00    +0.139 C 
ATOM      2  C   UNL     1      34.603 -19.638 -20.805  0.00  0.00    +0.050 C 
ATOM      3  C   UNL     1      33.261 -21.271 -19.637  0.00  0.00    +0.038 C 
ATOM      4  C   UNL     1      35.667 -21.484 -19.667  0.00  0.00    +0.038 C 
ATOM      5  C   UNL     1      33.353 -20.112 -20.405  0.00  0.00    +0.018 C 
ATOM      6  C   UNL     1      35.760 -20.324 -20.436  0.00  0.00    +0.018 C 
ENDROOT
BRANCH   2   8
ATOM      7  O   UNL     1      34.800 -19.284 -23.779  0.00  0.00    -0.277 OA
ATOM      8  N   UNL     1      34.696 -18.477 -21.572  0.00  0.00    -0.286 N 
ATOM      9  C   UNL     1      34.783 -18.362 -22.971  0.00  0.00    +0.204 C 
ATOM     10  H   UNL     1      34.700 -17.629 -21.070  0.00  0.00    +0.155 HD
BRANCH   9  11
ATOM     11  C   UNL     1      34.868 -16.905 -23.390  0.00  0.00    +0.001 C 
BRANCH  11  12
ATOM     12  N   UNL     1      35.142 -16.826 -24.817  0.00  0.00    +0.386 N 
ATOM     13  H   UNL     1      34.408 -17.311 -25.333  0.00  0.00    -0.089 HD
ATOM     14  H   UNL     1      36.042 -17.262 -25.015  0.00  0.00    -0.089 HD
ATOM     15  H   UNL     1      35.169 -15.847 -25.105  0.00  0.00    -0.089 HD
ENDBRANCH  11  12
ENDBRANCH   9  11
ENDBRANCH   2   8
BRANCH   1  16
ATOM     16  O   UNL     1      34.326 -23.097 -18.512  0.00  0.00    -0.471 OA
BRANCH  16  17
ATOM     17  C   UNL     1      33.372 -23.093 -17.458  0.00  0.00    +0.232 C 
BRANCH  17  18
ATOM     18  C   UNL     1      34.071 -23.285 -16.154  0.00  0.00    +0.021 C 
ATOM     19  C   UNL     1      35.416 -22.939 -16.026  0.00  0.00    -0.001 C 
ATOM     20  C   UNL     1      33.378 -23.809 -15.063  0.00  0.00    -0.001 C 
ATOM     21  C   UNL     1      36.069 -23.119 -14.807  0.00  0.00    -0.000 C 
ATOM     22  C   UNL     1      34.032 -23.989 -13.844  0.00  0.00    -0.000 C 
ATOM     23  C   UNL     1      35.378 -23.644 -13.717  0.00  0.00    -0.000 C 
ENDBRANCH  17  18
ENDBRANCH  16  17
ENDBRANCH   1  16
TORSDOF 6
ENDMDL
MODEL 8
REMARK VINA RESULT:      -8.5      3.992      9.159
REMARK  Name = 22690393
REMARK  6 active torsions:
REMARK  status: ('A' for Active; 'I' for Inactive)
REMARK    1  A    between atoms: C_1  and  O_16
REMARK    2  A    between atoms: C_2  and  N_8
REMARK    3  A    between atoms: C_9  and  C_11
REMARK    4  A    between atoms: C_11  and  N_12
REMARK    5  A    between atoms: O_16  and  C_17
REMARK    6  A    between atoms: C_17  and  C_18
REMARK                            x       y       z     vdW  Elec       q    Type
REMARK                         _______ _______ _______ _____ _____    ______ ____
ROOT
ATOM      1  C   UNL     1      34.190 -14.567 -22.421  0.00  0.00    +0.139 C 
ATOM      2  C   UNL     1      35.041 -17.034 -21.435  0.00  0.00    +0.050 C 
ATOM      3  C   UNL     1      34.616 -15.561 -23.302  0.00  0.00    +0.038 C 
ATOM      4  C   UNL     1      34.189 -14.807 -21.046  0.00  0.00    +0.038 C 
ATOM      5  C   UNL     1      35.041 -16.794 -22.810  0.00  0.00    +0.018 C 
ATOM      6  C   UNL     1      34.615 -16.041 -20.553  0.00  0.00    +0.018 C 
ENDROOT
BRANCH   2   8
ATOM      7  O   UNL     1      33.681 -19.710 -21.447  0.00  0.00    -0.277 OA
ATOM      8  N   UNL     1      35.468 -18.267 -20.942  0.00  0.00    -0.286 N 
ATOM      9  C   UNL     1      34.793 -19.500 -20.974  0.00  0.00    +0.204 C 
ATOM     10  H   UNL     1      36.358 -18.275 -20.517  0.00  0.00    +0.155 HD
BRANCH   9  11
ATOM     11  C   UNL     1      35.625 -20.590 -20.322  0.00  0.00    +0.001 C 
BRANCH  11  12
ATOM     12  N   UNL     1      36.817 -20.001 -19.730  0.00  0.00    +0.386 N 
ATOM     13  H   UNL     1      37.584 -20.034 -20.401  0.00  0.00    -0.089 HD
ATOM     14  H   UNL     1      37.074 -20.524 -18.893  0.00  0.00    -0.089 HD
ATOM     15  H   UNL     1      36.628 -19.030 -19.478  0.00  0.00    -0.089 HD
ENDBRANCH  11  12
ENDBRANCH   9  11
ENDBRANCH   2   8
BRANCH   1  16
ATOM     16  O   UNL     1      33.772 -13.355 -22.905  0.00  0.00    -0.471 OA
BRANCH  16  17
ATOM     17  C   UNL     1      32.372 -13.108 -22.892  0.00  0.00    +0.232 C 
BRANCH  17  18
ATOM     18  C   UNL     1      32.071 -12.008 -21.931  0.00  0.00    +0.021 C 
ATOM     19  C   UNL     1      31.778 -12.305 -20.600  0.00  0.00    -0.001 C 
ATOM     20  C   UNL     1      32.085 -10.682 -22.363  0.00  0.00    -0.001 C 
ATOM     21  C   UNL     1      31.497 -11.276 -19.701  0.00  0.00    -0.000 C 
ATOM     22  C   UNL     1      31.804  -9.653 -21.464  0.00  0.00    -0.000 C 
ATOM     23  C   UNL     1      31.510  -9.951 -20.133  0.00  0.00    -0.000 C 
ENDBRANCH  17  18
ENDBRANCH  16  17
ENDBRANCH   1  16
TORSDOF 6
ENDMDL
MODEL 9
REMARK VINA RESULT:      -8.4      3.151      9.008
REMARK  Name = 22690393
REMARK  6 active torsions:
REMARK  status: ('A' for Active; 'I' for Inactive)
REMARK    1  A    between atoms: C_1  and  O_16
REMARK    2  A    between atoms: C_2  and  N_8
REMARK    3  A    between atoms: C_9  and  C_11
REMARK    4  A    between atoms: C_11  and  N_12
REMARK    5  A    between atoms: O_16  and  C_17
REMARK    6  A    between atoms: C_17  and  C_18
REMARK                            x       y       z     vdW  Elec       q    Type
REMARK                         _______ _______ _______ _____ _____    ______ ____
ROOT
ATOM      1  C   UNL     1      34.883 -16.466 -23.112  0.00  0.00    +0.139 C 
ATOM      2  C   UNL     1      34.805 -18.790 -21.573  0.00  0.00    +0.050 C 
ATOM      3  C   UNL     1      34.984 -17.713 -23.727  0.00  0.00    +0.038 C 
ATOM      4  C   UNL     1      34.743 -16.381 -21.727  0.00  0.00    +0.038 C 
ATOM      5  C   UNL     1      34.944 -18.876 -22.958  0.00  0.00    +0.018 C 
ATOM      6  C   UNL     1      34.705 -17.543 -20.957  0.00  0.00    +0.018 C 
ENDROOT
BRANCH   2   8
ATOM      7  O   UNL     1      32.498 -20.154 -20.222  0.00  0.00    -0.277 OA
ATOM      8  N   UNL     1      34.768 -19.953 -20.802  0.00  0.00    -0.286 N 
ATOM      9  C   UNL     1      33.655 -20.557 -20.190  0.00  0.00    +0.204 C 
ATOM     10  H   UNL     1      35.631 -20.410 -20.671  0.00  0.00    +0.155 HD
BRANCH   9  11
ATOM     11  C   UNL     1      34.065 -21.815 -19.445  0.00  0.00    +0.001 C 
BRANCH  11  12
ATOM     12  N   UNL     1      32.922 -22.335 -18.707  0.00  0.00    +0.386 N 
ATOM     13  H   UNL     1      32.525 -21.596 -18.128  0.00  0.00    -0.089 HD
ATOM     14  H   UNL     1      33.224 -23.107 -18.114  0.00  0.00    -0.089 HD
ATOM     15  H   UNL     1      32.216 -22.668 -19.365  0.00  0.00    -0.089 HD
ENDBRANCH  11  12
ENDBRANCH   9  11
ENDBRANCH   2   8
BRANCH   1  16
ATOM     16  O   UNL     1      34.922 -15.324 -23.869  0.00  0.00    -0.471 OA
BRANCH  16  17
ATOM     17  C   UNL     1      33.699 -14.904 -24.459  0.00  0.00    +0.232 C 
BRANCH  17  18
ATOM     18  C   UNL     1      33.295 -13.589 -23.881  0.00  0.00    +0.021 C 
ATOM     19  C   UNL     1      33.804 -12.406 -24.416  0.00  0.00    -0.001 C 
ATOM     20  C   UNL     1      32.407 -13.544 -22.806  0.00  0.00    -0.001 C 
ATOM     21  C   UNL     1      33.426 -11.177 -23.876  0.00  0.00    -0.000 C 
ATOM     22  C   UNL     1      32.030 -12.314 -22.266  0.00  0.00    -0.000 C 
ATOM     23  C   UNL     1      32.540 -11.131 -22.801  0.00  0.00    -0.000 C 
ENDBRANCH  17  18
ENDBRANCH  16  17
ENDBRANCH   1  16
TORSDOF 6
ENDMDL
