MODEL 1
REMARK VINA RESULT:      -3.3      0.000      0.000
REMARK  Name = 10156
REMARK  5 active torsions:
REMARK  status: ('A' for Active; 'I' for Inactive)
REMARK    1  A    between atoms: C_2  and  N_19
REMARK    2  A    between atoms: C_9  and  O_23
REMARK    3  A    between atoms: C_13  and  O_25
REMARK    4  A    between atoms: C_14  and  O_27
REMARK    5  A    between atoms: C_17  and  O_29
REMARK                            x       y       z     vdW  Elec       q    Type
REMARK                         _______ _______ _______ _____ _____    ______ ____
ROOT
ATOM      1  O   UNL     1      33.047 -14.779 -24.166  0.00  0.00    -0.283 OA
ATOM      2  C   UNL     1      36.264 -18.162 -23.230  0.00  0.00    +0.094 C 
ATOM      3  C   UNL     1      37.486 -18.441 -22.326  0.00  0.00    +0.029 C 
ATOM      4  C   UNL     1      37.247 -18.638 -20.825  0.00  0.00    +0.029 C 
ATOM      5  C   UNL     1      35.172 -17.242 -22.679  0.00  0.00    -0.001 C 
ATOM      6  C   UNL     1      36.021 -19.450 -20.509  0.00  0.00    -0.016 C 
ATOM      7  C   UNL     1      34.740 -18.919 -20.765  0.00  0.00    +0.033 C 
ATOM      8  C   UNL     1      34.609 -17.556 -21.356  0.00  0.00    +0.000 C 
ATOM      9  C   UNL     1      33.603 -19.696 -20.493  0.00  0.00    +0.175 C 
ATOM     10  C   UNL     1      36.140 -20.740 -19.975  0.00  0.00    +0.036 C 
ATOM     11  C   UNL     1      34.745 -16.248 -23.480  0.00  0.00    +0.043 C 
ATOM     12  C   UNL     1      34.024 -16.661 -20.534  0.00  0.00    +0.003 C 
ATOM     13  C   UNL     1      33.735 -20.977 -19.959  0.00  0.00    +0.206 C 
ATOM     14  C   UNL     1      35.002 -21.497 -19.700  0.00  0.00    +0.175 C 
ATOM     15  C   UNL     1      33.713 -15.214 -23.229  0.00  0.00    +0.229 C 
ATOM     16  C   UNL     1      33.797 -15.255 -20.737  0.00  0.00    +0.040 C 
ATOM     17  C   UNL     1      33.608 -14.600 -21.885  0.00  0.00    +0.173 C 
ENDROOT
BRANCH   2  19
ATOM     18  O   UNL     1      34.629 -18.502 -25.605  0.00  0.00    -0.275 OA
ATOM     19  N   UNL     1      35.665 -19.388 -23.718  0.00  0.00    -0.302 N 
ATOM     20  C   UNL     1      34.898 -19.446 -24.866  0.00  0.00    +0.223 C 
ATOM     21  C   UNL     1      34.420 -20.843 -25.158  0.00  0.00    +0.095 C 
ATOM     22  H   UNL     1      35.810 -20.217 -23.208  0.00  0.00    +0.150 HD
ENDBRANCH   2  19
BRANCH   9  23
ATOM     23  O   UNL     1      32.349 -19.225 -20.769  0.00  0.00    -0.468 OA
ATOM     24  C   UNL     1      31.790 -19.583 -22.029  0.00  0.00    +0.253 C 
ENDBRANCH   9  23
BRANCH  13  25
ATOM     25  O   UNL     1      32.627 -21.727 -19.699  0.00  0.00    -0.465 OA
ATOM     26  C   UNL     1      32.243 -21.860 -18.333  0.00  0.00    +0.253 C 
ENDBRANCH  13  25
BRANCH  14  27
ATOM     27  O   UNL     1      35.143 -22.749 -19.182  0.00  0.00    -0.468 OA
ATOM     28  C   UNL     1      35.353 -22.849 -17.774  0.00  0.00    +0.253 C 
ENDBRANCH  14  27
BRANCH  17  29
ATOM     29  O   UNL     1      33.259 -13.258 -21.843  0.00  0.00    -0.503 OA
ATOM     30  H   UNL     1      32.422 -13.002 -21.508  0.00  0.00    +0.292 HD
ENDBRANCH  17  29
TORSDOF 5
ENDMDL
MODEL 2
REMARK VINA RESULT:      -2.3      8.646     12.842
REMARK  Name = 10156
REMARK  5 active torsions:
REMARK  status: ('A' for Active; 'I' for Inactive)
REMARK    1  A    between atoms: C_2  and  N_19
REMARK    2  A    between atoms: C_9  and  O_23
REMARK    3  A    between atoms: C_13  and  O_25
REMARK    4  A    between atoms: C_14  and  O_27
REMARK    5  A    between atoms: C_17  and  O_29
REMARK                            x       y       z     vdW  Elec       q    Type
REMARK                         _______ _______ _______ _____ _____    ______ ____
ROOT
ATOM      1  O   UNL     1      32.404  -1.786 -23.495  0.00  0.00    -0.283 OA
ATOM      2  C   UNL     1      31.015  -6.039 -21.865  0.00  0.00    +0.094 C 
ATOM      3  C   UNL     1      29.998  -7.164 -22.159  0.00  0.00    +0.029 C 
ATOM      4  C   UNL     1      30.205  -8.019 -23.415  0.00  0.00    +0.029 C 
ATOM      5  C   UNL     1      31.536  -5.227 -23.055  0.00  0.00    -0.001 C 
ATOM      6  C   UNL     1      31.643  -8.375 -23.674  0.00  0.00    -0.016 C 
ATOM      7  C   UNL     1      32.559  -7.375 -24.059  0.00  0.00    +0.033 C 
ATOM      8  C   UNL     1      32.095  -5.963 -24.200  0.00  0.00    +0.000 C 
ATOM      9  C   UNL     1      33.904  -7.712 -24.270  0.00  0.00    +0.175 C 
ATOM     10  C   UNL     1      32.088  -9.695 -23.519  0.00  0.00    +0.036 C 
ATOM     11  C   UNL     1      31.516  -3.887 -22.938  0.00  0.00    +0.043 C 
ATOM     12  C   UNL     1      32.158  -5.494 -25.462  0.00  0.00    +0.003 C 
ATOM     13  C   UNL     1      34.333  -9.030 -24.116  0.00  0.00    +0.206 C 
ATOM     14  C   UNL     1      33.425 -10.020 -23.743  0.00  0.00    +0.175 C 
ATOM     15  C   UNL     1      31.949  -2.851 -23.906  0.00  0.00    +0.229 C 
ATOM     16  C   UNL     1      31.736  -4.220 -25.980  0.00  0.00    +0.040 C 
ATOM     17  C   UNL     1      31.680  -3.043 -25.350  0.00  0.00    +0.173 C 
ENDROOT
BRANCH   2  19
ATOM     18  O   UNL     1      31.046  -8.285 -20.027  0.00  0.00    -0.275 OA
ATOM     19  N   UNL     1      32.134  -6.517 -21.079  0.00  0.00    -0.302 N 
ATOM     20  C   UNL     1      32.047  -7.601 -20.227  0.00  0.00    +0.223 C 
ATOM     21  C   UNL     1      33.360  -7.900 -19.553  0.00  0.00    +0.095 C 
ATOM     22  H   UNL     1      32.996  -6.047 -21.154  0.00  0.00    +0.150 HD
ENDBRANCH   2  19
BRANCH   9  23
ATOM     23  O   UNL     1      34.823  -6.756 -24.604  0.00  0.00    -0.468 OA
ATOM     24  C   UNL     1      34.962  -6.451 -25.987  0.00  0.00    +0.253 C 
ENDBRANCH   9  23
BRANCH  13  25
ATOM     25  O   UNL     1      35.641  -9.352 -24.322  0.00  0.00    -0.465 OA
ATOM     26  C   UNL     1      35.955 -10.050 -25.524  0.00  0.00    +0.253 C 
ENDBRANCH  13  25
BRANCH  14  27
ATOM     27  O   UNL     1      33.834 -11.310 -23.586  0.00  0.00    -0.468 OA
ATOM     28  C   UNL     1      32.835 -12.270 -23.250  0.00  0.00    +0.253 C 
ENDBRANCH  14  27
BRANCH  17  29
ATOM     29  O   UNL     1      31.380  -1.904 -26.081  0.00  0.00    -0.503 OA
ATOM     30  H   UNL     1      30.570  -1.455 -25.937  0.00  0.00    +0.292 HD
ENDBRANCH  17  29
TORSDOF 5
ENDMDL
MODEL 3
REMARK VINA RESULT:      -1.6      6.118      9.893
REMARK  Name = 10156
REMARK  5 active torsions:
REMARK  status: ('A' for Active; 'I' for Inactive)
REMARK    1  A    between atoms: C_2  and  N_19
REMARK    2  A    between atoms: C_9  and  O_23
REMARK    3  A    between atoms: C_13  and  O_25
REMARK    4  A    between atoms: C_14  and  O_27
REMARK    5  A    between atoms: C_17  and  O_29
REMARK                            x       y       z     vdW  Elec       q    Type
REMARK                         _______ _______ _______ _____ _____    ______ ____
ROOT
ATOM      1  O   UNL     1      33.010  -6.634 -19.110  0.00  0.00    -0.283 OA
ATOM      2  C   UNL     1      31.730 -11.018 -20.457  0.00  0.00    +0.094 C 
ATOM      3  C   UNL     1      30.595 -11.765 -21.193  0.00  0.00    +0.029 C 
ATOM      4  C   UNL     1      30.447 -11.555 -22.704  0.00  0.00    +0.029 C 
ATOM      5  C   UNL     1      32.021  -9.577 -20.886  0.00  0.00    -0.001 C 
ATOM      6  C   UNL     1      31.759 -11.506 -23.438  0.00  0.00    -0.016 C 
ATOM      7  C   UNL     1      32.632 -10.414 -23.250  0.00  0.00    +0.033 C 
ATOM      8  C   UNL     1      32.250  -9.316 -22.316  0.00  0.00    +0.000 C 
ATOM      9  C   UNL     1      33.866 -10.392 -23.918  0.00  0.00    +0.175 C 
ATOM     10  C   UNL     1      32.132 -12.547 -24.299  0.00  0.00    +0.036 C 
ATOM     11  C   UNL     1      32.124  -8.656 -19.910  0.00  0.00    +0.043 C 
ATOM     12  C   UNL     1      32.057  -8.128 -22.924  0.00  0.00    +0.003 C 
ATOM     13  C   UNL     1      34.223 -11.434 -24.774  0.00  0.00    +0.206 C 
ATOM     14  C   UNL     1      33.357 -12.508 -24.965  0.00  0.00    +0.175 C 
ATOM     15  C   UNL     1      32.398  -7.203 -20.011  0.00  0.00    +0.229 C 
ATOM     16  C   UNL     1      31.620  -6.879 -22.359  0.00  0.00    +0.040 C 
ATOM     17  C   UNL     1      31.793  -6.422 -21.116  0.00  0.00    +0.173 C 
ENDROOT
BRANCH   2  19
ATOM     18  O   UNL     1      32.032 -13.882 -20.824  0.00  0.00    -0.275 OA
ATOM     19  N   UNL     1      32.962 -11.780 -20.454  0.00  0.00    -0.302 N 
ATOM     20  C   UNL     1      33.000 -13.150 -20.637  0.00  0.00    +0.223 C 
ATOM     21  C   UNL     1      34.407 -13.685 -20.614  0.00  0.00    +0.095 C 
ATOM     22  H   UNL     1      33.810 -11.302 -20.313  0.00  0.00    +0.150 HD
ENDBRANCH   2  19
BRANCH   9  23
ATOM     23  O   UNL     1      34.750  -9.368 -23.723  0.00  0.00    -0.468 OA
ATOM     24  C   UNL     1      34.640  -8.248 -24.595  0.00  0.00    +0.253 C 
ENDBRANCH   9  23
BRANCH  13  25
ATOM     25  O   UNL     1      35.424 -11.407 -25.419  0.00  0.00    -0.465 OA
ATOM     26  C   UNL     1      35.473 -10.717 -26.665  0.00  0.00    +0.253 C 
ENDBRANCH  13  25
BRANCH  14  27
ATOM     27  O   UNL     1      33.697 -13.532 -25.796  0.00  0.00    -0.468 OA
ATOM     28  C   UNL     1      33.161 -13.500 -27.117  0.00  0.00    +0.253 C 
ENDBRANCH  14  27
BRANCH  17  29
ATOM     29  O   UNL     1      31.417  -5.121 -20.820  0.00  0.00    -0.503 OA
ATOM     30  H   UNL     1      30.814  -4.955 -20.122  0.00  0.00    +0.292 HD
ENDBRANCH  17  29
TORSDOF 5
ENDMDL
MODEL 4
REMARK VINA RESULT:      -1.3      6.534      9.843
REMARK  Name = 10156
REMARK  5 active torsions:
REMARK  status: ('A' for Active; 'I' for Inactive)
REMARK    1  A    between atoms: C_2  and  N_19
REMARK    2  A    between atoms: C_9  and  O_23
REMARK    3  A    between atoms: C_13  and  O_25
REMARK    4  A    between atoms: C_14  and  O_27
REMARK    5  A    between atoms: C_17  and  O_29
REMARK                            x       y       z     vdW  Elec       q    Type
REMARK                         _______ _______ _______ _____ _____    ______ ____
ROOT
ATOM      1  O   UNL     1      30.606 -21.698 -14.572  0.00  0.00    -0.283 OA
ATOM      2  C   UNL     1      34.217 -24.317 -12.907  0.00  0.00    +0.094 C 
ATOM      3  C   UNL     1      34.820 -25.736 -13.011  0.00  0.00    +0.029 C 
ATOM      4  C   UNL     1      35.491 -26.144 -14.327  0.00  0.00    +0.029 C 
ATOM      5  C   UNL     1      33.493 -23.764 -14.137  0.00  0.00    -0.001 C 
ATOM      6  C   UNL     1      36.319 -25.052 -14.948  0.00  0.00    -0.016 C 
ATOM      7  C   UNL     1      35.691 -23.910 -15.484  0.00  0.00    +0.033 C 
ATOM      8  C   UNL     1      34.205 -23.788 -15.425  0.00  0.00    +0.000 C 
ATOM      9  C   UNL     1      36.473 -22.884 -16.035  0.00  0.00    +0.175 C 
ATOM     10  C   UNL     1      37.716 -25.152 -14.984  0.00  0.00    +0.036 C 
ATOM     11  C   UNL     1      32.277 -23.222 -13.941  0.00  0.00    +0.043 C 
ATOM     12  C   UNL     1      33.611 -23.796 -16.635  0.00  0.00    +0.003 C 
ATOM     13  C   UNL     1      37.863 -22.998 -16.067  0.00  0.00    +0.206 C 
ATOM     14  C   UNL     1      38.483 -24.131 -15.544  0.00  0.00    +0.175 C 
ATOM     15  C   UNL     1      31.347 -22.613 -14.922  0.00  0.00    +0.229 C 
ATOM     16  C   UNL     1      32.209 -23.767 -16.959  0.00  0.00    +0.040 C 
ATOM     17  C   UNL     1      31.206 -23.219 -16.267  0.00  0.00    +0.173 C 
ENDROOT
BRANCH   2  19
ATOM     18  O   UNL     1      36.528 -24.812 -11.220  0.00  0.00    -0.275 OA
ATOM     19  N   UNL     1      35.193 -23.350 -12.445  0.00  0.00    -0.302 N 
ATOM     20  C   UNL     1      36.264 -23.687 -11.639  0.00  0.00    +0.223 C 
ATOM     21  C   UNL     1      37.136 -22.500 -11.329  0.00  0.00    +0.095 C 
ATOM     22  H   UNL     1      35.088 -22.410 -12.717  0.00  0.00    +0.150 HD
ENDBRANCH   2  19
BRANCH   9  23
ATOM     23  O   UNL     1      35.895 -21.746 -16.525  0.00  0.00    -0.468 OA
ATOM     24  C   UNL     1      35.658 -21.697 -17.928  0.00  0.00    +0.253 C 
ENDBRANCH   9  23
BRANCH  13  25
ATOM     25  O   UNL     1      38.618 -21.997 -16.603  0.00  0.00    -0.465 OA
ATOM     26  C   UNL     1      38.183 -20.661 -16.367  0.00  0.00    +0.253 C 
ENDBRANCH  13  25
BRANCH  14  27
ATOM     27  O   UNL     1      39.839 -24.251 -15.568  0.00  0.00    -0.468 OA
ATOM     28  C   UNL     1      40.401 -25.391 -14.921  0.00  0.00    +0.253 C 
ENDBRANCH  14  27
BRANCH  17  29
ATOM     29  O   UNL     1      29.942 -23.178 -16.835  0.00  0.00    -0.503 OA
ATOM     30  H   UNL     1      29.185 -23.335 -16.305  0.00  0.00    +0.292 HD
ENDBRANCH  17  29
TORSDOF 5
ENDMDL
MODEL 5
REMARK VINA RESULT:      -1.2      5.114      9.923
REMARK  Name = 10156
REMARK  5 active torsions:
REMARK  status: ('A' for Active; 'I' for Inactive)
REMARK    1  A    between atoms: C_2  and  N_19
REMARK    2  A    between atoms: C_9  and  O_23
REMARK    3  A    between atoms: C_13  and  O_25
REMARK    4  A    between atoms: C_14  and  O_27
REMARK    5  A    between atoms: C_17  and  O_29
REMARK                            x       y       z     vdW  Elec       q    Type
REMARK                         _______ _______ _______ _____ _____    ______ ____
ROOT
ATOM      1  O   UNL     1      39.429 -25.133 -12.508  0.00  0.00    -0.283 OA
ATOM      2  C   UNL     1      35.039 -25.703 -14.263  0.00  0.00    +0.094 C 
ATOM      3  C   UNL     1      33.592 -25.198 -14.066  0.00  0.00    +0.029 C 
ATOM      4  C   UNL     1      33.268 -23.754 -14.465  0.00  0.00    +0.029 C 
ATOM      5  C   UNL     1      36.177 -24.730 -13.942  0.00  0.00    -0.001 C 
ATOM      6  C   UNL     1      33.928 -23.317 -15.744  0.00  0.00    -0.016 C 
ATOM      7  C   UNL     1      35.326 -23.141 -15.791  0.00  0.00    +0.033 C 
ATOM      8  C   UNL     1      36.144 -23.399 -14.570  0.00  0.00    +0.000 C 
ATOM      9  C   UNL     1      35.936 -22.761 -16.996  0.00  0.00    +0.175 C 
ATOM     10  C   UNL     1      33.165 -23.096 -16.899  0.00  0.00    +0.036 C 
ATOM     11  C   UNL     1      37.175 -25.188 -13.164  0.00  0.00    +0.043 C 
ATOM     12  C   UNL     1      36.748 -22.299 -14.078  0.00  0.00    +0.003 C 
ATOM     13  C   UNL     1      35.164 -22.542 -18.138  0.00  0.00    +0.206 C 
ATOM     14  C   UNL     1      33.782 -22.708 -18.088  0.00  0.00    +0.175 C 
ATOM     15  C   UNL     1      38.396 -24.493 -12.691  0.00  0.00    +0.229 C 
ATOM     16  C   UNL     1      37.548 -22.156 -12.891  0.00  0.00    +0.040 C 
ATOM     17  C   UNL     1      38.315 -23.069 -12.290  0.00  0.00    +0.173 C 
ENDROOT
BRANCH   2  19
ATOM     18  O   UNL     1      37.199 -27.435 -15.135  0.00  0.00    -0.275 OA
ATOM     19  N   UNL     1      35.239 -26.263 -15.583  0.00  0.00    -0.302 N 
ATOM     20  C   UNL     1      36.306 -27.082 -15.901  0.00  0.00    +0.223 C 
ATOM     21  C   UNL     1      36.259 -27.546 -17.332  0.00  0.00    +0.095 C 
ATOM     22  H   UNL     1      34.585 -26.051 -16.288  0.00  0.00    +0.150 HD
ENDBRANCH   2  19
BRANCH   9  23
ATOM     23  O   UNL     1      37.293 -22.624 -17.083  0.00  0.00    -0.468 OA
ATOM     24  C   UNL     1      37.831 -21.339 -16.789  0.00  0.00    +0.253 C 
ENDBRANCH   9  23
BRANCH  13  25
ATOM     25  O   UNL     1      35.763 -22.174 -19.306  0.00  0.00    -0.465 OA
ATOM     26  C   UNL     1      35.966 -20.779 -19.517  0.00  0.00    +0.253 C 
ENDBRANCH  13  25
BRANCH  14  27
ATOM     27  O   UNL     1      33.020 -22.500 -19.198  0.00  0.00    -0.468 OA
ATOM     28  C   UNL     1      32.680 -21.150 -19.507  0.00  0.00    +0.253 C 
ENDBRANCH  14  27
BRANCH  17  29
ATOM     29  O   UNL     1      39.121 -22.677 -11.232  0.00  0.00    -0.503 OA
ATOM     30  H   UNL     1      38.953 -23.001 -10.369  0.00  0.00    +0.292 HD
ENDBRANCH  17  29
TORSDOF 5
ENDMDL
MODEL 6
REMARK VINA RESULT:      -1.0      1.706      6.245
REMARK  Name = 10156
REMARK  5 active torsions:
REMARK  status: ('A' for Active; 'I' for Inactive)
REMARK    1  A    between atoms: C_2  and  N_19
REMARK    2  A    between atoms: C_9  and  O_23
REMARK    3  A    between atoms: C_13  and  O_25
REMARK    4  A    between atoms: C_14  and  O_27
REMARK    5  A    between atoms: C_17  and  O_29
REMARK                            x       y       z     vdW  Elec       q    Type
REMARK                         _______ _______ _______ _____ _____    ______ ____
ROOT
ATOM      1  O   UNL     1      35.268 -21.468 -18.735  0.00  0.00    -0.283 OA
ATOM      2  C   UNL     1      35.891 -19.925 -23.196  0.00  0.00    +0.094 C 
ATOM      3  C   UNL     1      35.188 -19.912 -24.572  0.00  0.00    +0.029 C 
ATOM      4  C   UNL     1      33.935 -19.045 -24.739  0.00  0.00    +0.029 C 
ATOM      5  C   UNL     1      35.004 -19.920 -21.948  0.00  0.00    -0.001 C 
ATOM      6  C   UNL     1      34.033 -17.706 -24.060  0.00  0.00    -0.016 C 
ATOM      7  C   UNL     1      34.044 -17.629 -22.652  0.00  0.00    +0.033 C 
ATOM      8  C   UNL     1      33.968 -18.881 -21.843  0.00  0.00    +0.000 C 
ATOM      9  C   UNL     1      34.164 -16.378 -22.028  0.00  0.00    +0.175 C 
ATOM     10  C   UNL     1      34.129 -16.530 -24.816  0.00  0.00    +0.036 C 
ATOM     11  C   UNL     1      35.284 -20.826 -20.993  0.00  0.00    +0.043 C 
ATOM     12  C   UNL     1      32.843 -18.984 -21.108  0.00  0.00    +0.003 C 
ATOM     13  C   UNL     1      34.256 -15.215 -22.793  0.00  0.00    +0.206 C 
ATOM     14  C   UNL     1      34.236 -15.292 -24.184  0.00  0.00    +0.175 C 
ATOM     15  C   UNL     1      34.614 -21.061 -19.692  0.00  0.00    +0.229 C 
ATOM     16  C   UNL     1      32.400 -20.069 -20.272  0.00  0.00    +0.040 C 
ATOM     17  C   UNL     1      33.139 -20.957 -19.602  0.00  0.00    +0.173 C 
ENDROOT
BRANCH   2  19
ATOM     18  O   UNL     1      37.824 -19.535 -21.066  0.00  0.00    -0.275 OA
ATOM     19  N   UNL     1      36.883 -18.874 -23.089  0.00  0.00    -0.302 N 
ATOM     20  C   UNL     1      37.763 -18.774 -22.028  0.00  0.00    +0.223 C 
ATOM     21  C   UNL     1      38.702 -17.608 -22.179  0.00  0.00    +0.095 C 
ATOM     22  H   UNL     1      36.932 -18.200 -23.805  0.00  0.00    +0.150 HD
ENDBRANCH   2  19
BRANCH   9  23
ATOM     23  O   UNL     1      34.220 -16.276 -20.666  0.00  0.00    -0.468 OA
ATOM     24  C   UNL     1      33.094 -15.697 -20.016  0.00  0.00    +0.253 C 
ENDBRANCH   9  23
BRANCH  13  25
ATOM     25  O   UNL     1      34.373 -14.003 -22.181  0.00  0.00    -0.465 OA
ATOM     26  C   UNL     1      33.211 -13.178 -22.151  0.00  0.00    +0.253 C 
ENDBRANCH  13  25
BRANCH  14  27
ATOM     27  O   UNL     1      34.328 -14.162 -24.940  0.00  0.00    -0.468 OA
ATOM     28  C   UNL     1      33.220 -13.855 -25.783  0.00  0.00    +0.253 C 
ENDBRANCH  14  27
BRANCH  17  29
ATOM     29  O   UNL     1      32.509 -21.836 -18.734  0.00  0.00    -0.503 OA
ATOM     30  H   UNL     1      31.612 -22.070 -18.874  0.00  0.00    +0.292 HD
ENDBRANCH  17  29
TORSDOF 5
ENDMDL
MODEL 7
REMARK VINA RESULT:      -0.9      6.271     10.081
REMARK  Name = 10156
REMARK  5 active torsions:
REMARK  status: ('A' for Active; 'I' for Inactive)
REMARK    1  A    between atoms: C_2  and  N_19
REMARK    2  A    between atoms: C_9  and  O_23
REMARK    3  A    between atoms: C_13  and  O_25
REMARK    4  A    between atoms: C_14  and  O_27
REMARK    5  A    between atoms: C_17  and  O_29
REMARK                            x       y       z     vdW  Elec       q    Type
REMARK                         _______ _______ _______ _____ _____    ______ ____
ROOT
ATOM      1  O   UNL     1      36.723 -22.364  -9.721  0.00  0.00    -0.283 OA
ATOM      2  C   UNL     1      37.587 -23.542 -14.252  0.00  0.00    +0.094 C 
ATOM      3  C   UNL     1      37.733 -24.781 -15.165  0.00  0.00    +0.029 C 
ATOM      4  C   UNL     1      36.478 -25.603 -15.478  0.00  0.00    +0.029 C 
ATOM      5  C   UNL     1      36.639 -23.653 -13.056  0.00  0.00    -0.001 C 
ATOM      6  C   UNL     1      35.254 -24.766 -15.730  0.00  0.00    -0.016 C 
ATOM      7  C   UNL     1      34.663 -24.045 -14.671  0.00  0.00    +0.033 C 
ATOM      8  C   UNL     1      35.263 -24.112 -13.307  0.00  0.00    +0.000 C 
ATOM      9  C   UNL     1      33.539 -23.245 -14.923  0.00  0.00    +0.175 C 
ATOM     10  C   UNL     1      34.702 -24.682 -17.015  0.00  0.00    +0.036 C 
ATOM     11  C   UNL     1      37.108 -23.248 -11.861  0.00  0.00    +0.043 C 
ATOM     12  C   UNL     1      34.467 -24.701 -12.392  0.00  0.00    +0.003 C 
ATOM     13  C   UNL     1      32.998 -23.172 -16.206  0.00  0.00    +0.206 C 
ATOM     14  C   UNL     1      33.578 -23.891 -17.249  0.00  0.00    +0.175 C 
ATOM     15  C   UNL     1      36.435 -23.233 -10.541  0.00  0.00    +0.229 C 
ATOM     16  C   UNL     1      34.737 -24.999 -11.010  0.00  0.00    +0.040 C 
ATOM     17  C   UNL     1      35.544 -24.355 -10.163  0.00  0.00    +0.173 C 
ENDROOT
BRANCH   2  19
ATOM     18  O   UNL     1      38.436 -22.894 -16.952  0.00  0.00    -0.275 OA
ATOM     19  N   UNL     1      37.272 -22.349 -15.011  0.00  0.00    -0.302 N 
ATOM     20  C   UNL     1      37.728 -22.133 -16.298  0.00  0.00    +0.223 C 
ATOM     21  C   UNL     1      37.232 -20.828 -16.863  0.00  0.00    +0.095 C 
ATOM     22  H   UNL     1      36.708 -21.661 -14.591  0.00  0.00    +0.150 HD
ENDBRANCH   2  19
BRANCH   9  23
ATOM     23  O   UNL     1      32.970 -22.502 -13.926  0.00  0.00    -0.468 OA
ATOM     24  C   UNL     1      31.775 -23.013 -13.344  0.00  0.00    +0.253 C 
ENDBRANCH   9  23
BRANCH  13  25
ATOM     25  O   UNL     1      31.906 -22.392 -16.444  0.00  0.00    -0.465 OA
ATOM     26  C   UNL     1      30.645 -23.052 -16.531  0.00  0.00    +0.253 C 
ENDBRANCH  13  25
BRANCH  14  27
ATOM     27  O   UNL     1      33.059 -23.826 -18.507  0.00  0.00    -0.468 OA
ATOM     28  C   UNL     1      33.681 -22.922 -19.418  0.00  0.00    +0.253 C 
ENDBRANCH  14  27
BRANCH  17  29
ATOM     29  O   UNL     1      35.546 -24.724  -8.827  0.00  0.00    -0.503 OA
ATOM     30  H   UNL     1      35.420 -24.075  -8.161  0.00  0.00    +0.292 HD
ENDBRANCH  17  29
TORSDOF 5
ENDMDL
MODEL 8
REMARK VINA RESULT:      -0.7      6.035     10.845
REMARK  Name = 10156
REMARK  5 active torsions:
REMARK  status: ('A' for Active; 'I' for Inactive)
REMARK    1  A    between atoms: C_2  and  N_19
REMARK    2  A    between atoms: C_9  and  O_23
REMARK    3  A    between atoms: C_13  and  O_25
REMARK    4  A    between atoms: C_14  and  O_27
REMARK    5  A    between atoms: C_17  and  O_29
REMARK                            x       y       z     vdW  Elec       q    Type
REMARK                         _______ _______ _______ _____ _____    ______ ____
ROOT
ATOM      1  O   UNL     1      34.955 -14.431 -22.040  0.00  0.00    -0.283 OA
ATOM      2  C   UNL     1      33.768 -10.434 -24.340  0.00  0.00    +0.094 C 
ATOM      3  C   UNL     1      32.630  -9.833 -25.194  0.00  0.00    +0.029 C 
ATOM      4  C   UNL     1      31.301  -9.505 -24.504  0.00  0.00    +0.029 C 
ATOM      5  C   UNL     1      33.384 -11.464 -23.274  0.00  0.00    -0.001 C 
ATOM      6  C   UNL     1      31.462  -8.896 -23.138  0.00  0.00    -0.016 C 
ATOM      7  C   UNL     1      31.959  -9.676 -22.074  0.00  0.00    +0.033 C 
ATOM      8  C   UNL     1      32.330 -11.102 -22.313  0.00  0.00    +0.000 C 
ATOM      9  C   UNL     1      32.133  -9.092 -20.810  0.00  0.00    +0.175 C 
ATOM     10  C   UNL     1      31.138  -7.551 -22.915  0.00  0.00    +0.036 C 
ATOM     11  C   UNL     1      34.094 -12.607 -23.242  0.00  0.00    +0.043 C 
ATOM     12  C   UNL     1      31.558 -11.983 -21.646  0.00  0.00    +0.003 C 
ATOM     13  C   UNL     1      31.803  -7.753 -20.601  0.00  0.00    +0.206 C 
ATOM     14  C   UNL     1      31.305  -6.985 -21.652  0.00  0.00    +0.175 C 
ATOM     15  C   UNL     1      33.960 -13.774 -22.337  0.00  0.00    +0.229 C 
ATOM     16  C   UNL     1      31.578 -13.421 -21.687  0.00  0.00    +0.040 C 
ATOM     17  C   UNL     1      32.610 -14.232 -21.933  0.00  0.00    +0.173 C 
ENDROOT
BRANCH   2  19
ATOM     18  O   UNL     1      33.988  -7.656 -25.155  0.00  0.00    -0.275 OA
ATOM     19  N   UNL     1      34.594  -9.404 -23.742  0.00  0.00    -0.302 N 
ATOM     20  C   UNL     1      34.629  -8.103 -24.207  0.00  0.00    +0.223 C 
ATOM     21  C   UNL     1      35.548  -7.235 -23.391  0.00  0.00    +0.095 C 
ATOM     22  H   UNL     1      35.156  -9.642 -22.970  0.00  0.00    +0.150 HD
ENDBRANCH   2  19
BRANCH   9  23
ATOM     23  O   UNL     1      32.652  -9.811 -19.770  0.00  0.00    -0.468 OA
ATOM     24  C   UNL     1      31.726 -10.347 -18.832  0.00  0.00    +0.253 C 
ENDBRANCH   9  23
BRANCH  13  25
ATOM     25  O   UNL     1      31.976  -7.191 -19.372  0.00  0.00    -0.465 OA
ATOM     26  C   UNL     1      32.750  -5.995 -19.310  0.00  0.00    +0.253 C 
ENDBRANCH  13  25
BRANCH  14  27
ATOM     27  O   UNL     1      30.983  -5.676 -21.460  0.00  0.00    -0.468 OA
ATOM     28  C   UNL     1      30.982  -4.833 -22.610  0.00  0.00    +0.253 C 
ENDBRANCH  14  27
BRANCH  17  29
ATOM     29  O   UNL     1      32.442 -15.599 -21.778  0.00  0.00    -0.503 OA
ATOM     30  H   UNL     1      32.927 -16.060 -21.122  0.00  0.00    +0.292 HD
ENDBRANCH  17  29
TORSDOF 5
ENDMDL
MODEL 9
REMARK VINA RESULT:      -0.5      4.021      7.550
REMARK  Name = 10156
REMARK  5 active torsions:
REMARK  status: ('A' for Active; 'I' for Inactive)
REMARK    1  A    between atoms: C_2  and  N_19
REMARK    2  A    between atoms: C_9  and  O_23
REMARK    3  A    between atoms: C_13  and  O_25
REMARK    4  A    between atoms: C_14  and  O_27
REMARK    5  A    between atoms: C_17  and  O_29
REMARK                            x       y       z     vdW  Elec       q    Type
REMARK                         _______ _______ _______ _____ _____    ______ ____
ROOT
ATOM      1  O   UNL     1      33.131 -19.166 -20.154  0.00  0.00    -0.283 OA
ATOM      2  C   UNL     1      32.405 -23.087 -17.552  0.00  0.00    +0.094 C 
ATOM      3  C   UNL     1      32.598 -24.619 -17.610  0.00  0.00    +0.029 C 
ATOM      4  C   UNL     1      34.025 -25.174 -17.547  0.00  0.00    +0.029 C 
ATOM      5  C   UNL     1      33.412 -22.219 -18.313  0.00  0.00    -0.001 C 
ATOM      6  C   UNL     1      34.910 -24.456 -16.566  0.00  0.00    -0.016 C 
ATOM      7  C   UNL     1      35.310 -23.128 -16.818  0.00  0.00    +0.033 C 
ATOM      8  C   UNL     1      34.844 -22.438 -18.056  0.00  0.00    +0.000 C 
ATOM      9  C   UNL     1      36.113 -22.457 -15.882  0.00  0.00    +0.175 C 
ATOM     10  C   UNL     1      35.331 -25.092 -15.390  0.00  0.00    +0.036 C 
ATOM     11  C   UNL     1      32.912 -21.258 -19.112  0.00  0.00    +0.043 C 
ATOM     12  C   UNL     1      35.837 -22.138 -18.916  0.00  0.00    +0.003 C 
ATOM     13  C   UNL     1      36.526 -23.103 -14.717  0.00  0.00    +0.206 C 
ATOM     14  C   UNL     1      36.137 -24.419 -14.473  0.00  0.00    +0.175 C 
ATOM     15  C   UNL     1      33.626 -20.274 -19.960  0.00  0.00    +0.229 C 
ATOM     16  C   UNL     1      35.757 -21.542 -20.224  0.00  0.00    +0.040 C 
ATOM     17  C   UNL     1      34.842 -20.691 -20.696  0.00  0.00    +0.173 C 
ENDROOT
BRANCH   2  19
ATOM     18  O   UNL     1      30.357 -23.776 -15.614  0.00  0.00    -0.275 OA
ATOM     19  N   UNL     1      32.288 -22.610 -16.189  0.00  0.00    -0.302 N 
ATOM     20  C   UNL     1      31.269 -23.000 -15.341  0.00  0.00    +0.223 C 
ATOM     21  C   UNL     1      31.399 -22.377 -13.976  0.00  0.00    +0.095 C 
ATOM     22  H   UNL     1      32.964 -21.979 -15.852  0.00  0.00    +0.150 HD
ENDBRANCH   2  19
BRANCH   9  23
ATOM     23  O   UNL     1      36.481 -21.156 -16.078  0.00  0.00    -0.468 OA
ATOM     24  C   UNL     1      37.740 -20.930 -16.702  0.00  0.00    +0.253 C 
ENDBRANCH   9  23
BRANCH  13  25
ATOM     25  O   UNL     1      37.305 -22.446 -13.811  0.00  0.00    -0.465 OA
ATOM     26  C   UNL     1      37.134 -22.793 -12.439  0.00  0.00    +0.253 C 
ENDBRANCH  13  25
BRANCH  14  27
ATOM     27  O   UNL     1      36.533 -25.058 -13.337  0.00  0.00    -0.468 OA
ATOM     28  C   UNL     1      37.166 -26.326 -13.494  0.00  0.00    +0.253 C 
ENDBRANCH  14  27
BRANCH  17  29
ATOM     29  O   UNL     1      35.035 -20.123 -21.945  0.00  0.00    -0.503 OA
ATOM     30  H   UNL     1      35.899 -19.890 -22.226  0.00  0.00    +0.292 HD
ENDBRANCH  17  29
TORSDOF 5
ENDMDL
