MODEL 1
REMARK VINA RESULT:      -9.8      0.000      0.000
REMARK  Name = 9543521
REMARK  8 active torsions:
REMARK  status: ('A' for Active; 'I' for Inactive)
REMARK    1  A    between atoms: N_2  and  C_16
REMARK    2  A    between atoms: C_3  and  C_6
REMARK    3  A    between atoms: C_8  and  O_13
REMARK    4  A    between atoms: C_9  and  C_12
REMARK    5  A    between atoms: O_13  and  C_14
REMARK    6  A    between atoms: C_16  and  C_17
REMARK    7  A    between atoms: C_18  and  O_23
REMARK    8  A    between atoms: C_20  and  O_25
REMARK                            x       y       z     vdW  Elec       q    Type
REMARK                         _______ _______ _______ _____ _____    ______ ____
ROOT
ATOM      1  O   UNL     1      36.947 -19.014 -21.032  0.00  0.00    -0.267 OA
ATOM      2  N   UNL     1      35.150 -18.981 -22.499  0.00  0.00    -0.295 N 
ATOM      3  C   UNL     1      35.807 -19.356 -21.334  0.00  0.00    +0.276 C 
ATOM      4  H   UNL     1      34.234 -19.308 -22.651  0.00  0.00    +0.150 HD
ENDROOT
BRANCH   3   6
ATOM      5  N   UNL     1      35.821 -20.937 -19.563  0.00  0.00    -0.366 NA
ATOM      6  C   UNL     1      35.055 -20.257 -20.423  0.00  0.00    +0.187 C 
ATOM      7  C   UNL     1      33.691 -20.322 -20.526  0.00  0.00    +0.034 C 
ATOM      8  C   UNL     1      35.151 -21.761 -18.726  0.00  0.00    +0.271 C 
ATOM      9  C   UNL     1      33.774 -21.919 -18.730  0.00  0.00    +0.202 C 
ATOM     10  C   UNL     1      33.038 -21.181 -19.650  0.00  0.00    +0.002 C 
BRANCH   9  12
ATOM     11  N   UNL     1      32.570 -23.522 -17.089  0.00  0.00    -0.195 NA
ATOM     12  C   UNL     1      33.111 -22.802 -17.825  0.00  0.00    +0.087 C 
ENDBRANCH   9  12
BRANCH   8  13
ATOM     13  O   UNL     1      35.921 -22.466 -17.837  0.00  0.00    -0.454 OA
BRANCH  13  14
ATOM     14  C   UNL     1      36.958 -21.749 -17.180  0.00  0.00    +0.208 C 
ATOM     15  C   UNL     1      37.528 -22.609 -16.073  0.00  0.00    +0.051 C 
ENDBRANCH  13  14
ENDBRANCH   8  13
ENDBRANCH   3   6
BRANCH   2  16
ATOM     16  C   UNL     1      35.756 -18.132 -23.492  0.00  0.00    +0.120 C 
BRANCH  16  17
ATOM     17  C   UNL     1      34.926 -16.929 -23.792  0.00  0.00    +0.034 C 
ATOM     18  C   UNL     1      34.560 -16.046 -22.777  0.00  0.00    +0.136 C 
ATOM     19  C   UNL     1      34.516 -16.692 -25.104  0.00  0.00    +0.037 C 
ATOM     20  C   UNL     1      33.740 -15.572 -25.401  0.00  0.00    +0.139 C 
ATOM     21  C   UNL     1      33.782 -14.925 -23.073  0.00  0.00    +0.040 C 
ATOM     22  C   UNL     1      33.373 -14.689 -24.386  0.00  0.00    +0.040 C 
BRANCH  18  23
ATOM     23  O   UNL     1      34.950 -16.263 -21.490  0.00  0.00    -0.472 OA
ATOM     24  C   UNL     1      34.521 -15.316 -20.513  0.00  0.00    +0.252 C 
ENDBRANCH  18  23
BRANCH  20  25
ATOM     25  O   UNL     1      33.340 -15.340 -26.681  0.00  0.00    -0.471 OA
ATOM     26  C   UNL     1      33.132 -13.981 -27.061  0.00  0.00    +0.252 C 
ENDBRANCH  20  25
ENDBRANCH  16  17
ENDBRANCH   2  16
TORSDOF 8
ENDMDL
MODEL 2
REMARK VINA RESULT:      -9.4      1.671      2.979
REMARK  Name = 9543521
REMARK  8 active torsions:
REMARK  status: ('A' for Active; 'I' for Inactive)
REMARK    1  A    between atoms: N_2  and  C_16
REMARK    2  A    between atoms: C_3  and  C_6
REMARK    3  A    between atoms: C_8  and  O_13
REMARK    4  A    between atoms: C_9  and  C_12
REMARK    5  A    between atoms: O_13  and  C_14
REMARK    6  A    between atoms: C_16  and  C_17
REMARK    7  A    between atoms: C_18  and  O_23
REMARK    8  A    between atoms: C_20  and  O_25
REMARK                            x       y       z     vdW  Elec       q    Type
REMARK                         _______ _______ _______ _____ _____    ______ ____
ROOT
ATOM      1  O   UNL     1      36.796 -18.496 -21.978  0.00  0.00    -0.267 OA
ATOM      2  N   UNL     1      34.720 -17.461 -21.991  0.00  0.00    -0.295 N 
ATOM      3  C   UNL     1      35.613 -18.466 -21.645  0.00  0.00    +0.276 C 
ATOM      4  H   UNL     1      33.789 -17.527 -21.674  0.00  0.00    +0.150 HD
ENDROOT
BRANCH   3   6
ATOM      5  N   UNL     1      35.975 -20.283 -20.159  0.00  0.00    -0.366 NA
ATOM      6  C   UNL     1      35.059 -19.582 -20.837  0.00  0.00    +0.187 C 
ATOM      7  C   UNL     1      33.707 -19.802 -20.844  0.00  0.00    +0.034 C 
ATOM      8  C   UNL     1      35.486 -21.302 -19.418  0.00  0.00    +0.271 C 
ATOM      9  C   UNL     1      34.142 -21.630 -19.342  0.00  0.00    +0.202 C 
ATOM     10  C   UNL     1      33.242 -20.860 -20.071  0.00  0.00    +0.002 C 
BRANCH   9  12
ATOM     11  N   UNL     1      33.289 -23.602 -17.894  0.00  0.00    -0.195 NA
ATOM     12  C   UNL     1      33.672 -22.717 -18.544  0.00  0.00    +0.087 C 
ENDBRANCH   9  12
BRANCH   8  13
ATOM     13  O   UNL     1      36.412 -22.030 -18.717  0.00  0.00    -0.454 OA
BRANCH  13  14
ATOM     14  C   UNL     1      36.900 -21.453 -17.513  0.00  0.00    +0.208 C 
ATOM     15  C   UNL     1      36.753 -22.456 -16.389  0.00  0.00    +0.051 C 
ENDBRANCH  13  14
ENDBRANCH   8  13
ENDBRANCH   3   6
BRANCH   2  16
ATOM     16  C   UNL     1      35.100 -16.326 -22.791  0.00  0.00    +0.120 C 
BRANCH  16  17
ATOM     17  C   UNL     1      34.073 -15.244 -22.765  0.00  0.00    +0.034 C 
ATOM     18  C   UNL     1      33.492 -14.784 -23.947  0.00  0.00    +0.136 C 
ATOM     19  C   UNL     1      33.694 -14.692 -21.541  0.00  0.00    +0.037 C 
ATOM     20  C   UNL     1      32.735 -13.680 -21.499  0.00  0.00    +0.139 C 
ATOM     21  C   UNL     1      32.533 -13.771 -23.905  0.00  0.00    +0.040 C 
ATOM     22  C   UNL     1      32.154 -13.220 -22.681  0.00  0.00    +0.040 C 
BRANCH  18  23
ATOM     23  O   UNL     1      33.851 -15.312 -25.151  0.00  0.00    -0.472 OA
ATOM     24  C   UNL     1      33.067 -14.938 -26.282  0.00  0.00    +0.252 C 
ENDBRANCH  18  23
BRANCH  20  25
ATOM     25  O   UNL     1      32.365 -13.141 -20.305  0.00  0.00    -0.471 OA
ATOM     26  C   UNL     1      31.668 -11.897 -20.342  0.00  0.00    +0.252 C 
ENDBRANCH  20  25
ENDBRANCH  16  17
ENDBRANCH   2  16
TORSDOF 8
ENDMDL
MODEL 3
REMARK VINA RESULT:      -9.3      3.063      5.935
REMARK  Name = 9543521
REMARK  8 active torsions:
REMARK  status: ('A' for Active; 'I' for Inactive)
REMARK    1  A    between atoms: N_2  and  C_16
REMARK    2  A    between atoms: C_3  and  C_6
REMARK    3  A    between atoms: C_8  and  O_13
REMARK    4  A    between atoms: C_9  and  C_12
REMARK    5  A    between atoms: O_13  and  C_14
REMARK    6  A    between atoms: C_16  and  C_17
REMARK    7  A    between atoms: C_18  and  O_23
REMARK    8  A    between atoms: C_20  and  O_25
REMARK                            x       y       z     vdW  Elec       q    Type
REMARK                         _______ _______ _______ _____ _____    ______ ____
ROOT
ATOM      1  O   UNL     1      37.511 -20.525 -16.920  0.00  0.00    -0.267 OA
ATOM      2  N   UNL     1      36.580 -22.158 -18.281  0.00  0.00    -0.295 N 
ATOM      3  C   UNL     1      37.007 -21.636 -17.067  0.00  0.00    +0.276 C 
ATOM      4  H   UNL     1      36.188 -23.061 -18.295  0.00  0.00    +0.150 HD
ENDROOT
BRANCH   3   6
ATOM      5  N   UNL     1      37.983 -23.112 -15.483  0.00  0.00    -0.366 NA
ATOM      6  C   UNL     1      36.851 -22.523 -15.885  0.00  0.00    +0.187 C 
ATOM      7  C   UNL     1      35.612 -22.666 -15.319  0.00  0.00    +0.034 C 
ATOM      8  C   UNL     1      37.858 -23.922 -14.408  0.00  0.00    +0.271 C 
ATOM      9  C   UNL     1      36.662 -24.153 -13.746  0.00  0.00    +0.202 C 
ATOM     10  C   UNL     1      35.523 -23.509 -14.216  0.00  0.00    +0.002 C 
BRANCH   9  12
ATOM     11  N   UNL     1      36.511 -25.723 -11.690  0.00  0.00    -0.195 NA
ATOM     12  C   UNL     1      36.579 -25.018 -12.613  0.00  0.00    +0.087 C 
ENDBRANCH   9  12
BRANCH   8  13
ATOM     13  O   UNL     1      39.008 -24.534 -13.982  0.00  0.00    -0.454 OA
BRANCH  13  14
ATOM     14  C   UNL     1      39.824 -25.129 -14.982  0.00  0.00    +0.208 C 
ATOM     15  C   UNL     1      40.610 -26.266 -14.366  0.00  0.00    +0.051 C 
ENDBRANCH  13  14
ENDBRANCH   8  13
ENDBRANCH   3   6
BRANCH   2  16
ATOM     16  C   UNL     1      36.688 -21.429 -19.519  0.00  0.00    +0.120 C 
BRANCH  16  17
ATOM     17  C   UNL     1      35.382 -20.851 -19.951  0.00  0.00    +0.034 C 
ATOM     18  C   UNL     1      34.183 -21.495 -19.646  0.00  0.00    +0.136 C 
ATOM     19  C   UNL     1      35.369 -19.653 -20.666  0.00  0.00    +0.037 C 
ATOM     20  C   UNL     1      34.157 -19.099 -21.077  0.00  0.00    +0.139 C 
ATOM     21  C   UNL     1      32.969 -20.941 -20.058  0.00  0.00    +0.040 C 
ATOM     22  C   UNL     1      32.957 -19.743 -20.773  0.00  0.00    +0.040 C 
BRANCH  18  23
ATOM     23  O   UNL     1      34.177 -22.665 -18.950  0.00  0.00    -0.472 OA
ATOM     24  C   UNL     1      33.142 -22.841 -17.984  0.00  0.00    +0.252 C 
ENDBRANCH  18  23
BRANCH  20  25
ATOM     25  O   UNL     1      34.143 -17.931 -21.775  0.00  0.00    -0.471 OA
ATOM     26  C   UNL     1      34.829 -16.821 -21.198  0.00  0.00    +0.252 C 
ENDBRANCH  20  25
ENDBRANCH  16  17
ENDBRANCH   2  16
TORSDOF 8
ENDMDL
MODEL 4
REMARK VINA RESULT:      -9.2      2.379      8.499
REMARK  Name = 9543521
REMARK  8 active torsions:
REMARK  status: ('A' for Active; 'I' for Inactive)
REMARK    1  A    between atoms: N_2  and  C_16
REMARK    2  A    between atoms: C_3  and  C_6
REMARK    3  A    between atoms: C_8  and  O_13
REMARK    4  A    between atoms: C_9  and  C_12
REMARK    5  A    between atoms: O_13  and  C_14
REMARK    6  A    between atoms: C_16  and  C_17
REMARK    7  A    between atoms: C_18  and  O_23
REMARK    8  A    between atoms: C_20  and  O_25
REMARK                            x       y       z     vdW  Elec       q    Type
REMARK                         _______ _______ _______ _____ _____    ______ ____
ROOT
ATOM      1  O   UNL     1      35.422 -17.777 -23.381  0.00  0.00    -0.267 OA
ATOM      2  N   UNL     1      35.574 -17.965 -21.074  0.00  0.00    -0.295 N 
ATOM      3  C   UNL     1      35.148 -17.372 -22.254  0.00  0.00    +0.276 C 
ATOM      4  H   UNL     1      35.300 -17.564 -20.217  0.00  0.00    +0.150 HD
ENDROOT
BRANCH   3   6
ATOM      5  N   UNL     1      33.940 -15.593 -23.263  0.00  0.00    -0.366 NA
ATOM      6  C   UNL     1      34.322 -16.145 -22.106  0.00  0.00    +0.187 C 
ATOM      7  C   UNL     1      34.027 -15.689 -20.849  0.00  0.00    +0.034 C 
ATOM      8  C   UNL     1      33.188 -14.476 -23.145  0.00  0.00    +0.271 C 
ATOM      9  C   UNL     1      32.821 -13.912 -21.933  0.00  0.00    +0.202 C 
ATOM     10  C   UNL     1      33.253 -14.537 -20.768  0.00  0.00    +0.002 C 
BRANCH   9  12
ATOM     11  N   UNL     1      31.375 -11.767 -21.798  0.00  0.00    -0.195 NA
ATOM     12  C   UNL     1      32.024 -12.730 -21.858  0.00  0.00    +0.087 C 
ENDBRANCH   9  12
BRANCH   8  13
ATOM     13  O   UNL     1      32.786 -13.897 -24.321  0.00  0.00    -0.454 OA
BRANCH  13  14
ATOM     14  C   UNL     1      33.071 -14.614 -25.516  0.00  0.00    +0.208 C 
ATOM     15  C   UNL     1      33.139 -13.639 -26.671  0.00  0.00    +0.051 C 
ENDBRANCH  13  14
ENDBRANCH   8  13
ENDBRANCH   3   6
BRANCH   2  16
ATOM     16  C   UNL     1      36.401 -19.145 -21.053  0.00  0.00    +0.120 C 
BRANCH  16  17
ATOM     17  C   UNL     1      35.841 -20.213 -20.174  0.00  0.00    +0.034 C 
ATOM     18  C   UNL     1      34.511 -20.614 -20.299  0.00  0.00    +0.136 C 
ATOM     19  C   UNL     1      36.664 -20.814 -19.221  0.00  0.00    +0.037 C 
ATOM     20  C   UNL     1      36.156 -21.814 -18.392  0.00  0.00    +0.139 C 
ATOM     21  C   UNL     1      34.002 -21.614 -19.470  0.00  0.00    +0.040 C 
ATOM     22  C   UNL     1      34.825 -22.214 -18.517  0.00  0.00    +0.040 C 
BRANCH  18  23
ATOM     23  O   UNL     1      33.693 -20.038 -21.224  0.00  0.00    -0.472 OA
ATOM     24  C   UNL     1      32.394 -19.646 -20.787  0.00  0.00    +0.252 C 
ENDBRANCH  18  23
BRANCH  20  25
ATOM     25  O   UNL     1      36.958 -22.399 -17.462  0.00  0.00    -0.471 OA
ATOM     26  C   UNL     1      36.495 -22.401 -16.112  0.00  0.00    +0.252 C 
ENDBRANCH  20  25
ENDBRANCH  16  17
ENDBRANCH   2  16
TORSDOF 8
ENDMDL
MODEL 5
REMARK VINA RESULT:      -9.2      4.159      8.811
REMARK  Name = 9543521
REMARK  8 active torsions:
REMARK  status: ('A' for Active; 'I' for Inactive)
REMARK    1  A    between atoms: N_2  and  C_16
REMARK    2  A    between atoms: C_3  and  C_6
REMARK    3  A    between atoms: C_8  and  O_13
REMARK    4  A    between atoms: C_9  and  C_12
REMARK    5  A    between atoms: O_13  and  C_14
REMARK    6  A    between atoms: C_16  and  C_17
REMARK    7  A    between atoms: C_18  and  O_23
REMARK    8  A    between atoms: C_20  and  O_25
REMARK                            x       y       z     vdW  Elec       q    Type
REMARK                         _______ _______ _______ _____ _____    ______ ____
ROOT
ATOM      1  O   UNL     1      31.949 -15.035 -21.370  0.00  0.00    -0.267 OA
ATOM      2  N   UNL     1      34.189 -14.484 -21.617  0.00  0.00    -0.295 N 
ATOM      3  C   UNL     1      32.829 -14.207 -21.591  0.00  0.00    +0.276 C 
ATOM      4  H   UNL     1      34.817 -13.748 -21.804  0.00  0.00    +0.150 HD
ENDROOT
BRANCH   3   6
ATOM      5  N   UNL     1      33.051 -12.270 -22.948  0.00  0.00    -0.366 NA
ATOM      6  C   UNL     1      32.444 -12.801 -21.881  0.00  0.00    +0.187 C 
ATOM      7  C   UNL     1      31.534 -12.179 -21.068  0.00  0.00    +0.034 C 
ATOM      8  C   UNL     1      32.711 -10.992 -23.225  0.00  0.00    +0.271 C 
ATOM      9  C   UNL     1      31.806 -10.251 -22.482  0.00  0.00    +0.202 C 
ATOM     10  C   UNL     1      31.210 -10.864 -21.385  0.00  0.00    +0.002 C 
BRANCH   9  12
ATOM     11  N   UNL     1      31.210  -7.803 -23.085  0.00  0.00    -0.195 NA
ATOM     12  C   UNL     1      31.477  -8.902 -22.814  0.00  0.00    +0.087 C 
ENDBRANCH   9  12
BRANCH   8  13
ATOM     13  O   UNL     1      33.324 -10.432 -24.316  0.00  0.00    -0.454 OA
BRANCH  13  14
ATOM     14  C   UNL     1      34.209 -11.268 -25.051  0.00  0.00    +0.208 C 
ATOM     15  C   UNL     1      35.328 -10.422 -25.620  0.00  0.00    +0.051 C 
ENDBRANCH  13  14
ENDBRANCH   8  13
ENDBRANCH   3   6
BRANCH   2  16
ATOM     16  C   UNL     1      34.717 -15.803 -21.381  0.00  0.00    +0.120 C 
BRANCH  16  17
ATOM     17  C   UNL     1      34.712 -16.644 -22.614  0.00  0.00    +0.034 C 
ATOM     18  C   UNL     1      35.079 -17.988 -22.560  0.00  0.00    +0.136 C 
ATOM     19  C   UNL     1      34.334 -16.072 -23.829  0.00  0.00    +0.037 C 
ATOM     20  C   UNL     1      34.324 -16.845 -24.990  0.00  0.00    +0.139 C 
ATOM     21  C   UNL     1      35.070 -18.762 -23.721  0.00  0.00    +0.040 C 
ATOM     22  C   UNL     1      34.692 -18.190 -24.936  0.00  0.00    +0.040 C 
BRANCH  18  23
ATOM     23  O   UNL     1      35.452 -18.562 -21.382  0.00  0.00    -0.472 OA
ATOM     24  C   UNL     1      34.681 -19.674 -20.930  0.00  0.00    +0.252 C 
ENDBRANCH  18  23
BRANCH  20  25
ATOM     25  O   UNL     1      33.956 -16.288 -26.176  0.00  0.00    -0.471 OA
ATOM     26  C   UNL     1      33.173 -15.096 -26.119  0.00  0.00    +0.252 C 
ENDBRANCH  20  25
ENDBRANCH  16  17
ENDBRANCH   2  16
TORSDOF 8
ENDMDL
MODEL 6
REMARK VINA RESULT:      -9.1      2.921      4.919
REMARK  Name = 9543521
REMARK  8 active torsions:
REMARK  status: ('A' for Active; 'I' for Inactive)
REMARK    1  A    between atoms: N_2  and  C_16
REMARK    2  A    between atoms: C_3  and  C_6
REMARK    3  A    between atoms: C_8  and  O_13
REMARK    4  A    between atoms: C_9  and  C_12
REMARK    5  A    between atoms: O_13  and  C_14
REMARK    6  A    between atoms: C_16  and  C_17
REMARK    7  A    between atoms: C_18  and  O_23
REMARK    8  A    between atoms: C_20  and  O_25
REMARK                            x       y       z     vdW  Elec       q    Type
REMARK                         _______ _______ _______ _____ _____    ______ ____
ROOT
ATOM      1  O   UNL     1      33.802 -23.760 -19.424  0.00  0.00    -0.267 OA
ATOM      2  N   UNL     1      33.265 -21.563 -18.908  0.00  0.00    -0.295 N 
ATOM      3  C   UNL     1      33.626 -22.867 -18.599  0.00  0.00    +0.276 C 
ATOM      4  H   UNL     1      33.147 -20.918 -18.173  0.00  0.00    +0.150 HD
ENDROOT
BRANCH   3   6
ATOM      5  N   UNL     1      35.042 -23.271 -16.736  0.00  0.00    -0.366 NA
ATOM      6  C   UNL     1      33.775 -23.177 -17.153  0.00  0.00    +0.187 C 
ATOM      7  C   UNL     1      32.651 -23.337 -16.387  0.00  0.00    +0.034 C 
ATOM      8  C   UNL     1      35.195 -23.553 -15.423  0.00  0.00    +0.271 C 
ATOM      9  C   UNL     1      34.141 -23.738 -14.542  0.00  0.00    +0.202 C 
ATOM     10  C   UNL     1      32.849 -23.626 -15.042  0.00  0.00    +0.002 C 
BRANCH   9  12
ATOM     11  N   UNL     1      34.524 -24.275 -12.036  0.00  0.00    -0.195 NA
ATOM     12  C   UNL     1      34.352 -24.034 -13.161  0.00  0.00    +0.087 C 
ENDBRANCH   9  12
BRANCH   8  13
ATOM     13  O   UNL     1      36.488 -23.653 -14.978  0.00  0.00    -0.454 OA
BRANCH  13  14
ATOM     14  C   UNL     1      37.095 -24.935 -15.064  0.00  0.00    +0.208 C 
ATOM     15  C   UNL     1      37.955 -25.157 -13.838  0.00  0.00    +0.051 C 
ENDBRANCH  13  14
ENDBRANCH   8  13
ENDBRANCH   3   6
BRANCH   2  16
ATOM     16  C   UNL     1      33.058 -21.115 -20.262  0.00  0.00    +0.120 C 
BRANCH  16  17
ATOM     17  C   UNL     1      33.959 -19.983 -20.628  0.00  0.00    +0.034 C 
ATOM     18  C   UNL     1      35.343 -20.158 -20.666  0.00  0.00    +0.136 C 
ATOM     19  C   UNL     1      33.405 -18.741 -20.935  0.00  0.00    +0.037 C 
ATOM     20  C   UNL     1      34.233 -17.673 -21.280  0.00  0.00    +0.139 C 
ATOM     21  C   UNL     1      36.172 -19.090 -21.010  0.00  0.00    +0.040 C 
ATOM     22  C   UNL     1      35.617 -17.848 -21.317  0.00  0.00    +0.040 C 
BRANCH  18  23
ATOM     23  O   UNL     1      35.901 -21.364 -20.368  0.00  0.00    -0.472 OA
ATOM     24  C   UNL     1      36.815 -21.404 -19.273  0.00  0.00    +0.252 C 
ENDBRANCH  18  23
BRANCH  20  25
ATOM     25  O   UNL     1      33.692 -16.461 -21.580  0.00  0.00    -0.471 OA
ATOM     26  C   UNL     1      34.112 -15.349 -20.791  0.00  0.00    +0.252 C 
ENDBRANCH  20  25
ENDBRANCH  16  17
ENDBRANCH   2  16
TORSDOF 8
ENDMDL
MODEL 7
REMARK VINA RESULT:      -9.1      4.980      7.560
REMARK  Name = 9543521
REMARK  8 active torsions:
REMARK  status: ('A' for Active; 'I' for Inactive)
REMARK    1  A    between atoms: N_2  and  C_16
REMARK    2  A    between atoms: C_3  and  C_6
REMARK    3  A    between atoms: C_8  and  O_13
REMARK    4  A    between atoms: C_9  and  C_12
REMARK    5  A    between atoms: O_13  and  C_14
REMARK    6  A    between atoms: C_16  and  C_17
REMARK    7  A    between atoms: C_18  and  O_23
REMARK    8  A    between atoms: C_20  and  O_25
REMARK                            x       y       z     vdW  Elec       q    Type
REMARK                         _______ _______ _______ _____ _____    ______ ____
ROOT
ATOM      1  O   UNL     1      33.108 -12.563 -24.031  0.00  0.00    -0.267 OA
ATOM      2  N   UNL     1      31.861 -12.420 -22.079  0.00  0.00    -0.295 N 
ATOM      3  C   UNL     1      32.807 -12.991 -22.920  0.00  0.00    +0.276 C 
ATOM      4  H   UNL     1      31.691 -12.839 -21.205  0.00  0.00    +0.150 HD
ENDROOT
BRANCH   3   6
ATOM      5  N   UNL     1      34.100 -14.935 -23.356  0.00  0.00    -0.366 NA
ATOM      6  C   UNL     1      33.466 -14.225 -22.417  0.00  0.00    +0.187 C 
ATOM      7  C   UNL     1      33.378 -14.531 -21.085  0.00  0.00    +0.034 C 
ATOM      8  C   UNL     1      34.704 -16.060 -22.914  0.00  0.00    +0.271 C 
ATOM      9  C   UNL     1      34.689 -16.482 -21.594  0.00  0.00    +0.202 C 
ATOM     10  C   UNL     1      34.011 -15.697 -20.669  0.00  0.00    +0.002 C 
BRANCH   9  12
ATOM     11  N   UNL     1      35.876 -18.655 -20.831  0.00  0.00    -0.195 NA
ATOM     12  C   UNL     1      35.343 -17.680 -21.174  0.00  0.00    +0.087 C 
ENDBRANCH   9  12
BRANCH   8  13
ATOM     13  O   UNL     1      35.360 -16.801 -23.864  0.00  0.00    -0.454 OA
BRANCH  13  14
ATOM     14  C   UNL     1      34.567 -17.342 -24.912  0.00  0.00    +0.208 C 
ATOM     15  C   UNL     1      34.450 -18.839 -24.720  0.00  0.00    +0.051 C 
ENDBRANCH  13  14
ENDBRANCH   8  13
ENDBRANCH   3   6
BRANCH   2  16
ATOM     16  C   UNL     1      31.121 -11.237 -22.436  0.00  0.00    +0.120 C 
BRANCH  16  17
ATOM     17  C   UNL     1      31.713  -9.999 -21.848  0.00  0.00    +0.034 C 
ATOM     18  C   UNL     1      31.552  -9.708 -20.494  0.00  0.00    +0.136 C 
ATOM     19  C   UNL     1      32.434  -9.131 -22.668  0.00  0.00    +0.037 C 
ATOM     20  C   UNL     1      32.994  -7.971 -22.134  0.00  0.00    +0.139 C 
ATOM     21  C   UNL     1      32.111  -8.546 -19.959  0.00  0.00    +0.040 C 
ATOM     22  C   UNL     1      32.833  -7.678 -20.779  0.00  0.00    +0.040 C 
BRANCH  18  23
ATOM     23  O   UNL     1      30.850 -10.544 -19.679  0.00  0.00    -0.472 OA
ATOM     24  C   UNL     1      31.423 -10.844 -18.408  0.00  0.00    +0.252 C 
ENDBRANCH  18  23
BRANCH  20  25
ATOM     25  O   UNL     1      33.697  -7.124 -22.933  0.00  0.00    -0.471 OA
ATOM     26  C   UNL     1      34.888  -7.633 -23.532  0.00  0.00    +0.252 C 
ENDBRANCH  20  25
ENDBRANCH  16  17
ENDBRANCH   2  16
TORSDOF 8
ENDMDL
MODEL 8
REMARK VINA RESULT:      -8.7      4.251      8.492
REMARK  Name = 9543521
REMARK  8 active torsions:
REMARK  status: ('A' for Active; 'I' for Inactive)
REMARK    1  A    between atoms: N_2  and  C_16
REMARK    2  A    between atoms: C_3  and  C_6
REMARK    3  A    between atoms: C_8  and  O_13
REMARK    4  A    between atoms: C_9  and  C_12
REMARK    5  A    between atoms: O_13  and  C_14
REMARK    6  A    between atoms: C_16  and  C_17
REMARK    7  A    between atoms: C_18  and  O_23
REMARK    8  A    between atoms: C_20  and  O_25
REMARK                            x       y       z     vdW  Elec       q    Type
REMARK                         _______ _______ _______ _____ _____    ______ ____
ROOT
ATOM      1  O   UNL     1      32.067 -15.519 -21.155  0.00  0.00    -0.267 OA
ATOM      2  N   UNL     1      34.325 -15.008 -21.305  0.00  0.00    -0.295 N 
ATOM      3  C   UNL     1      32.970 -14.720 -21.391  0.00  0.00    +0.276 C 
ATOM      4  H   UNL     1      34.974 -14.298 -21.515  0.00  0.00    +0.150 HD
ENDROOT
BRANCH   3   6
ATOM      5  N   UNL     1      31.772 -12.703 -21.018  0.00  0.00    -0.366 NA
ATOM      6  C   UNL     1      32.623 -13.342 -21.828  0.00  0.00    +0.187 C 
ATOM      7  C   UNL     1      33.177 -12.850 -22.980  0.00  0.00    +0.034 C 
ATOM      8  C   UNL     1      31.447 -11.449 -21.402  0.00  0.00    +0.271 C 
ATOM      9  C   UNL     1      31.937 -10.836 -22.544  0.00  0.00    +0.202 C 
ATOM     10  C   UNL     1      32.818 -11.557 -23.342  0.00  0.00    +0.002 C 
BRANCH   9  12
ATOM     11  N   UNL     1      31.261  -8.423 -23.207  0.00  0.00    -0.195 NA
ATOM     12  C   UNL     1      31.564  -9.506 -22.909  0.00  0.00    +0.087 C 
ENDBRANCH   9  12
BRANCH   8  13
ATOM     13  O   UNL     1      30.576 -10.778 -20.583  0.00  0.00    -0.454 OA
BRANCH  13  14
ATOM     14  C   UNL     1      30.985 -10.588 -19.234  0.00  0.00    +0.208 C 
ATOM     15  C   UNL     1      32.132  -9.600 -19.202  0.00  0.00    +0.051 C 
ENDBRANCH  13  14
ENDBRANCH   8  13
ENDBRANCH   3   6
BRANCH   2  16
ATOM     16  C   UNL     1      34.819 -16.305 -20.920  0.00  0.00    +0.120 C 
BRANCH  16  17
ATOM     17  C   UNL     1      34.832 -17.268 -22.060  0.00  0.00    +0.034 C 
ATOM     18  C   UNL     1      35.043 -18.629 -21.840  0.00  0.00    +0.136 C 
ATOM     19  C   UNL     1      34.630 -16.794 -23.356  0.00  0.00    +0.037 C 
ATOM     20  C   UNL     1      34.640 -17.681 -24.433  0.00  0.00    +0.139 C 
ATOM     21  C   UNL     1      35.053 -19.517 -22.917  0.00  0.00    +0.040 C 
ATOM     22  C   UNL     1      34.851 -19.042 -24.213  0.00  0.00    +0.040 C 
BRANCH  18  23
ATOM     23  O   UNL     1      35.242 -19.109 -20.581  0.00  0.00    -0.472 OA
ATOM     24  C   UNL     1      35.463 -20.512 -20.449  0.00  0.00    +0.252 C 
ENDBRANCH  18  23
BRANCH  20  25
ATOM     25  O   UNL     1      34.443 -17.219 -25.698  0.00  0.00    -0.471 OA
ATOM     26  C   UNL     1      33.744 -15.982 -25.837  0.00  0.00    +0.252 C 
ENDBRANCH  20  25
ENDBRANCH  16  17
ENDBRANCH   2  16
TORSDOF 8
ENDMDL
MODEL 9
REMARK VINA RESULT:      -8.7      2.792      5.335
REMARK  Name = 9543521
REMARK  8 active torsions:
REMARK  status: ('A' for Active; 'I' for Inactive)
REMARK    1  A    between atoms: N_2  and  C_16
REMARK    2  A    between atoms: C_3  and  C_6
REMARK    3  A    between atoms: C_8  and  O_13
REMARK    4  A    between atoms: C_9  and  C_12
REMARK    5  A    between atoms: O_13  and  C_14
REMARK    6  A    between atoms: C_16  and  C_17
REMARK    7  A    between atoms: C_18  and  O_23
REMARK    8  A    between atoms: C_20  and  O_25
REMARK                            x       y       z     vdW  Elec       q    Type
REMARK                         _______ _______ _______ _____ _____    ______ ____
ROOT
ATOM      1  O   UNL     1      33.805 -23.703 -19.391  0.00  0.00    -0.267 OA
ATOM      2  N   UNL     1      33.313 -21.500 -18.855  0.00  0.00    -0.295 N 
ATOM      3  C   UNL     1      33.685 -22.805 -18.561  0.00  0.00    +0.276 C 
ATOM      4  H   UNL     1      33.244 -20.851 -18.118  0.00  0.00    +0.150 HD
ENDROOT
BRANCH   3   6
ATOM      5  N   UNL     1      32.833 -23.508 -16.459  0.00  0.00    -0.366 NA
ATOM      6  C   UNL     1      33.922 -23.108 -17.126  0.00  0.00    +0.187 C 
ATOM      7  C   UNL     1      35.183 -22.960 -16.613  0.00  0.00    +0.034 C 
ATOM      8  C   UNL     1      33.032 -23.788 -15.152  0.00  0.00    +0.271 C 
ATOM      9  C   UNL     1      34.258 -23.679 -14.513  0.00  0.00    +0.202 C 
ATOM     10  C   UNL     1      35.348 -23.256 -15.265  0.00  0.00    +0.002 C 
BRANCH   9  12
ATOM     11  N   UNL     1      34.551 -24.237 -11.999  0.00  0.00    -0.195 NA
ATOM     12  C   UNL     1      34.419 -23.986 -13.128  0.00  0.00    +0.087 C 
ENDBRANCH   9  12
BRANCH   8  13
ATOM     13  O   UNL     1      31.928 -24.201 -14.452  0.00  0.00    -0.454 OA
BRANCH  13  14
ATOM     14  C   UNL     1      30.667 -24.015 -15.082  0.00  0.00    +0.208 C 
ATOM     15  C   UNL     1      29.895 -25.316 -15.036  0.00  0.00    +0.051 C 
ENDBRANCH  13  14
ENDBRANCH   8  13
ENDBRANCH   3   6
BRANCH   2  16
ATOM     16  C   UNL     1      33.025 -21.059 -20.196  0.00  0.00    +0.120 C 
BRANCH  16  17
ATOM     17  C   UNL     1      33.903 -19.929 -20.621  0.00  0.00    +0.034 C 
ATOM     18  C   UNL     1      35.284 -20.098 -20.717  0.00  0.00    +0.136 C 
ATOM     19  C   UNL     1      33.328 -18.695 -20.925  0.00  0.00    +0.037 C 
ATOM     20  C   UNL     1      34.135 -17.629 -21.324  0.00  0.00    +0.139 C 
ATOM     21  C   UNL     1      36.092 -19.032 -21.116  0.00  0.00    +0.040 C 
ATOM     22  C   UNL     1      35.516 -17.798 -21.420  0.00  0.00    +0.040 C 
BRANCH  18  23
ATOM     23  O   UNL     1      35.862 -21.296 -20.423  0.00  0.00    -0.472 OA
ATOM     24  C   UNL     1      36.876 -21.299 -19.421  0.00  0.00    +0.252 C 
ENDBRANCH  18  23
BRANCH  20  25
ATOM     25  O   UNL     1      33.575 -16.425 -21.620  0.00  0.00    -0.471 OA
ATOM     26  C   UNL     1      34.457 -15.379 -22.023  0.00  0.00    +0.252 C 
ENDBRANCH  20  25
ENDBRANCH  16  17
ENDBRANCH   2  16
TORSDOF 8
ENDMDL
