MODEL 1
REMARK VINA RESULT:     -10.5      0.000      0.000
REMARK  Name = 57582353
REMARK  3 active torsions:
REMARK  status: ('A' for Active; 'I' for Inactive)
REMARK    1  A    between atoms: C_4  and  C_12
REMARK    2  A    between atoms: C_9  and  C_22
REMARK    3  A    between atoms: C_15  and  O_18
REMARK                            x       y       z     vdW  Elec       q    Type
REMARK                         _______ _______ _______ _____ _____    ______ ____
ROOT
ATOM      1  O   UNL     1      32.157 -14.047 -22.915  0.00  0.00    -0.268 OA
ATOM      2  N   UNL     1      33.865 -12.741 -23.865  0.00  0.00    -0.255 N 
ATOM      3  N   UNL     1      34.216 -10.409 -24.046  0.00  0.00    -0.376 NA
ATOM      4  C   UNL     1      32.583  -8.888 -23.115  0.00  0.00    +0.112 C 
ATOM      5  C   UNL     1      33.767  -9.161 -23.782  0.00  0.00    +0.163 C 
ATOM      6  C   UNL     1      31.813  -9.964 -22.689  0.00  0.00    -0.010 C 
ATOM      7  C   UNL     1      33.440 -11.430 -23.617  0.00  0.00    +0.187 C 
ATOM      8  C   UNL     1      32.243 -11.263 -22.941  0.00  0.00    +0.044 C 
ATOM      9  C   UNL     1      33.222 -13.931 -23.512  0.00  0.00    +0.266 C 
ATOM     10  H   UNL     1      34.718 -12.835 -24.346  0.00  0.00    +0.158 HD
ATOM     11  N   UNL     1      34.564  -8.075 -24.224  0.00  0.00    -0.336 N 
ATOM     12  H   UNL     1      35.408  -8.246 -24.700  0.00  0.00    +0.144 HD
ATOM     13  H   UNL     1      34.273  -7.150 -24.053  0.00  0.00    +0.144 HD
ENDROOT
BRANCH   4  15
ATOM     14 CL   UNL     1      32.962  -7.797 -20.255  0.00  0.00    -0.083 Cl
ATOM     15  C   UNL     1      32.128  -7.536 -22.849  0.00  0.00    +0.003 C 
ATOM     16  C   UNL     1      31.550  -6.818 -23.895  0.00  0.00    +0.034 C 
ATOM     17  C   UNL     1      32.255  -6.953 -21.588  0.00  0.00    +0.055 C 
ATOM     18  C   UNL     1      31.098  -5.516 -23.680  0.00  0.00    +0.138 C 
ATOM     19  C   UNL     1      31.803  -5.651 -21.374  0.00  0.00    +0.014 C 
ATOM     20  C   UNL     1      31.225  -4.932 -22.419  0.00  0.00    +0.038 C 
BRANCH  18  21
ATOM     21  O   UNL     1      30.534  -4.813 -24.701  0.00  0.00    -0.471 OA
ATOM     22  C   UNL     1      31.184  -3.605 -25.094  0.00  0.00    +0.252 C 
ENDBRANCH  18  21
ENDBRANCH   4  15
BRANCH   9  25
ATOM     23  N   UNL     1      33.822 -15.743 -25.181  0.00  0.00    -0.205 N 
ATOM     24  N   UNL     1      34.545 -16.867 -25.316  0.00  0.00    -0.176 NA
ATOM     25  C   UNL     1      33.913 -15.175 -23.944  0.00  0.00    +0.124 C 
ATOM     26  C   UNL     1      34.753 -15.985 -23.221  0.00  0.00    +0.043 C 
ATOM     27  C   UNL     1      33.050 -15.260 -26.302  0.00  0.00    +0.140 C 
ATOM     28  C   UNL     1      35.112 -17.011 -24.116  0.00  0.00    +0.119 C 
ENDBRANCH   9  25
TORSDOF 3
ENDMDL
MODEL 2
REMARK VINA RESULT:     -10.3      5.090     10.923
REMARK  Name = 57582353
REMARK  3 active torsions:
REMARK  status: ('A' for Active; 'I' for Inactive)
REMARK    1  A    between atoms: C_4  and  C_12
REMARK    2  A    between atoms: C_9  and  C_22
REMARK    3  A    between atoms: C_15  and  O_18
REMARK                            x       y       z     vdW  Elec       q    Type
REMARK                         _______ _______ _______ _____ _____    ______ ____
ROOT
ATOM      1  O   UNL     1      33.625 -13.643 -22.320  0.00  0.00    -0.268 OA
ATOM      2  N   UNL     1      34.191 -15.311 -23.876  0.00  0.00    -0.255 N 
ATOM      3  N   UNL     1      34.686 -17.615 -23.680  0.00  0.00    -0.376 NA
ATOM      4  C   UNL     1      34.652 -18.653 -21.497  0.00  0.00    +0.112 C 
ATOM      5  C   UNL     1      34.828 -18.689 -22.870  0.00  0.00    +0.163 C 
ATOM      6  C   UNL     1      34.306 -17.438 -20.916  0.00  0.00    -0.010 C 
ATOM      7  C   UNL     1      34.350 -16.451 -23.079  0.00  0.00    +0.187 C 
ATOM      8  C   UNL     1      34.151 -16.311 -21.716  0.00  0.00    +0.044 C 
ATOM      9  C   UNL     1      33.850 -14.019 -23.465  0.00  0.00    +0.266 C 
ATOM     10  H   UNL     1      34.338 -15.434 -24.842  0.00  0.00    +0.158 HD
ATOM     11  N   UNL     1      35.180 -19.921 -23.478  0.00  0.00    -0.336 N 
ATOM     12  H   UNL     1      35.311 -19.969 -24.453  0.00  0.00    +0.144 HD
ATOM     13  H   UNL     1      35.294 -20.728 -22.925  0.00  0.00    +0.144 HD
ENDROOT
BRANCH   4  15
ATOM     14 CL   UNL     1      37.529 -19.521 -20.799  0.00  0.00    -0.083 Cl
ATOM     15  C   UNL     1      34.812 -19.825 -20.655  0.00  0.00    +0.003 C 
ATOM     16  C   UNL     1      33.664 -20.484 -20.217  0.00  0.00    +0.034 C 
ATOM     17  C   UNL     1      36.071 -20.297 -20.284  0.00  0.00    +0.055 C 
ATOM     18  C   UNL     1      33.774 -21.614 -19.409  0.00  0.00    +0.138 C 
ATOM     19  C   UNL     1      36.181 -21.427 -19.475  0.00  0.00    +0.014 C 
ATOM     20  C   UNL     1      35.033 -22.086 -19.037  0.00  0.00    +0.038 C 
BRANCH  18  21
ATOM     21  O   UNL     1      32.653 -22.257 -18.979  0.00  0.00    -0.471 OA
ATOM     22  C   UNL     1      32.693 -22.832 -17.673  0.00  0.00    +0.252 C 
ENDBRANCH  18  21
ENDBRANCH   4  15
BRANCH   9  25
ATOM     23  N   UNL     1      33.348 -13.235 -25.823  0.00  0.00    -0.205 N 
ATOM     24  N   UNL     1      33.390 -12.150 -26.615  0.00  0.00    -0.176 NA
ATOM     25  C   UNL     1      33.785 -13.006 -24.552  0.00  0.00    +0.124 C 
ATOM     26  C   UNL     1      34.139 -11.679 -24.511  0.00  0.00    +0.043 C 
ATOM     27  C   UNL     1      32.867 -14.485 -26.362  0.00  0.00    +0.140 C 
ATOM     28  C   UNL     1      33.874 -11.203 -25.808  0.00  0.00    +0.119 C 
ENDBRANCH   9  25
TORSDOF 3
ENDMDL
MODEL 3
REMARK VINA RESULT:     -10.3      3.080      9.267
REMARK  Name = 57582353
REMARK  3 active torsions:
REMARK  status: ('A' for Active; 'I' for Inactive)
REMARK    1  A    between atoms: C_4  and  C_12
REMARK    2  A    between atoms: C_9  and  C_22
REMARK    3  A    between atoms: C_15  and  O_18
REMARK                            x       y       z     vdW  Elec       q    Type
REMARK                         _______ _______ _______ _____ _____    ______ ____
ROOT
ATOM      1  O   UNL     1      33.358  -8.845 -24.168  0.00  0.00    -0.268 OA
ATOM      2  N   UNL     1      32.211 -10.163 -22.597  0.00  0.00    -0.255 N 
ATOM      3  N   UNL     1      32.194 -12.480 -22.124  0.00  0.00    -0.376 NA
ATOM      4  C   UNL     1      33.587 -13.966 -23.427  0.00  0.00    +0.112 C 
ATOM      5  C   UNL     1      32.667 -13.711 -22.423  0.00  0.00    +0.163 C 
ATOM      6  C   UNL     1      34.054 -12.888 -24.172  0.00  0.00    -0.010 C 
ATOM      7  C   UNL     1      32.670 -11.457 -22.870  0.00  0.00    +0.187 C 
ATOM      8  C   UNL     1      33.592 -11.606 -23.893  0.00  0.00    +0.044 C 
ATOM      9  C   UNL     1      32.569  -8.974 -23.239  0.00  0.00    +0.266 C 
ATOM     10  H   UNL     1      31.558 -10.081 -21.865  0.00  0.00    +0.158 HD
ATOM     11  N   UNL     1      32.181 -14.800 -21.655  0.00  0.00    -0.336 N 
ATOM     12  H   UNL     1      31.527 -14.642 -20.937  0.00  0.00    +0.144 HD
ATOM     13  H   UNL     1      32.499 -15.713 -21.840  0.00  0.00    +0.144 HD
ENDROOT
BRANCH   4  15
ATOM     14 CL   UNL     1      32.898 -15.152 -26.191  0.00  0.00    -0.083 Cl
ATOM     15  C   UNL     1      34.074 -15.301 -23.724  0.00  0.00    +0.003 C 
ATOM     16  C   UNL     1      34.818 -15.962 -22.747  0.00  0.00    +0.034 C 
ATOM     17  C   UNL     1      33.816 -15.923 -24.945  0.00  0.00    +0.055 C 
ATOM     18  C   UNL     1      35.303 -17.247 -22.991  0.00  0.00    +0.138 C 
ATOM     19  C   UNL     1      34.302 -17.208 -25.189  0.00  0.00    +0.014 C 
ATOM     20  C   UNL     1      35.046 -17.869 -24.213  0.00  0.00    +0.038 C 
BRANCH  18  21
ATOM     21  O   UNL     1      36.031 -17.893 -22.039  0.00  0.00    -0.471 OA
ATOM     22  C   UNL     1      35.393 -18.969 -21.352  0.00  0.00    +0.252 C 
ENDBRANCH  18  21
ENDBRANCH   4  15
BRANCH   9  25
ATOM     23  N   UNL     1      32.033  -7.216 -21.493  0.00  0.00    -0.205 N 
ATOM     24  N   UNL     1      31.299  -6.108 -21.289  0.00  0.00    -0.176 NA
ATOM     25  C   UNL     1      31.883  -7.753 -22.738  0.00  0.00    +0.124 C 
ATOM     26  C   UNL     1      30.990  -6.941 -23.392  0.00  0.00    +0.043 C 
ATOM     27  C   UNL     1      32.872  -7.714 -20.428  0.00  0.00    +0.140 C 
ATOM     28  C   UNL     1      30.664  -5.945 -22.452  0.00  0.00    +0.119 C 
ENDBRANCH   9  25
TORSDOF 3
ENDMDL
MODEL 4
REMARK VINA RESULT:      -9.9      3.056      9.189
REMARK  Name = 57582353
REMARK  3 active torsions:
REMARK  status: ('A' for Active; 'I' for Inactive)
REMARK    1  A    between atoms: C_4  and  C_12
REMARK    2  A    between atoms: C_9  and  C_22
REMARK    3  A    between atoms: C_15  and  O_18
REMARK                            x       y       z     vdW  Elec       q    Type
REMARK                         _______ _______ _______ _____ _____    ______ ____
ROOT
ATOM      1  O   UNL     1      33.555  -8.815 -23.977  0.00  0.00    -0.268 OA
ATOM      2  N   UNL     1      32.421 -10.166 -22.424  0.00  0.00    -0.255 N 
ATOM      3  N   UNL     1      32.339 -12.501 -22.057  0.00  0.00    -0.376 NA
ATOM      4  C   UNL     1      33.629 -13.971 -23.479  0.00  0.00    +0.112 C 
ATOM      5  C   UNL     1      32.756 -13.732 -22.430  0.00  0.00    +0.163 C 
ATOM      6  C   UNL     1      34.106 -12.875 -24.191  0.00  0.00    -0.010 C 
ATOM      7  C   UNL     1      32.823 -11.461 -22.773  0.00  0.00    +0.187 C 
ATOM      8  C   UNL     1      33.700 -11.593 -23.837  0.00  0.00    +0.044 C 
ATOM      9  C   UNL     1      32.796  -8.961 -23.025  0.00  0.00    +0.266 C 
ATOM     10  H   UNL     1      31.798 -10.096 -21.666  0.00  0.00    +0.158 HD
ATOM     11  N   UNL     1      32.261 -14.838 -21.694  0.00  0.00    -0.336 N 
ATOM     12  H   UNL     1      31.639 -14.692 -20.945  0.00  0.00    +0.144 HD
ATOM     13  H   UNL     1      32.539 -15.752 -21.932  0.00  0.00    +0.144 HD
ENDROOT
BRANCH   4  15
ATOM     14 CL   UNL     1      32.753 -15.022 -26.244  0.00  0.00    -0.083 Cl
ATOM     15  C   UNL     1      34.058 -15.305 -23.854  0.00  0.00    +0.003 C 
ATOM     16  C   UNL     1      34.833 -16.027 -22.947  0.00  0.00    +0.034 C 
ATOM     17  C   UNL     1      33.713 -15.870 -25.082  0.00  0.00    +0.055 C 
ATOM     18  C   UNL     1      35.264 -17.314 -23.269  0.00  0.00    +0.138 C 
ATOM     19  C   UNL     1      34.145 -17.157 -25.403  0.00  0.00    +0.014 C 
ATOM     20  C   UNL     1      34.920 -17.879 -24.497  0.00  0.00    +0.038 C 
BRANCH  18  21
ATOM     21  O   UNL     1      36.023 -18.019 -22.385  0.00  0.00    -0.471 OA
ATOM     22  C   UNL     1      35.340 -18.652 -21.302  0.00  0.00    +0.252 C 
ENDBRANCH  18  21
ENDBRANCH   4  15
BRANCH   9  25
ATOM     23  N   UNL     1      31.302  -6.914 -23.087  0.00  0.00    -0.205 N 
ATOM     24  N   UNL     1      30.883  -5.879 -22.339  0.00  0.00    -0.176 NA
ATOM     25  C   UNL     1      32.173  -7.742 -22.443  0.00  0.00    +0.124 C 
ATOM     26  C   UNL     1      32.335  -7.212 -21.186  0.00  0.00    +0.043 C 
ATOM     27  C   UNL     1      30.817  -7.049 -24.441  0.00  0.00    +0.140 C 
ATOM     28  C   UNL     1      31.517  -6.067 -21.178  0.00  0.00    +0.119 C 
ENDBRANCH   9  25
TORSDOF 3
ENDMDL
MODEL 5
REMARK VINA RESULT:      -9.6      7.133     11.062
REMARK  Name = 57582353
REMARK  3 active torsions:
REMARK  status: ('A' for Active; 'I' for Inactive)
REMARK    1  A    between atoms: C_4  and  C_12
REMARK    2  A    between atoms: C_9  and  C_22
REMARK    3  A    between atoms: C_15  and  O_18
REMARK                            x       y       z     vdW  Elec       q    Type
REMARK                         _______ _______ _______ _____ _____    ______ ____
ROOT
ATOM      1  O   UNL     1      33.165 -22.253 -18.279  0.00  0.00    -0.268 OA
ATOM      2  N   UNL     1      35.363 -21.531 -18.693  0.00  0.00    -0.255 N 
ATOM      3  N   UNL     1      36.318 -20.060 -20.279  0.00  0.00    -0.376 NA
ATOM      4  C   UNL     1      34.890 -18.974 -21.900  0.00  0.00    +0.112 C 
ATOM      5  C   UNL     1      36.126 -19.229 -21.328  0.00  0.00    +0.163 C 
ATOM      6  C   UNL     1      33.779 -19.611 -21.358  0.00  0.00    -0.010 C 
ATOM      7  C   UNL     1      35.215 -20.662 -19.780  0.00  0.00    +0.187 C 
ATOM      8  C   UNL     1      33.936 -20.473 -20.278  0.00  0.00    +0.044 C 
ATOM      9  C   UNL     1      34.365 -22.250 -18.028  0.00  0.00    +0.266 C 
ATOM     10  H   UNL     1      36.280 -21.649 -18.356  0.00  0.00    +0.158 HD
ATOM     11  N   UNL     1      37.269 -18.586 -21.868  0.00  0.00    -0.336 N 
ATOM     12  H   UNL     1      38.158 -18.753 -21.478  0.00  0.00    +0.144 HD
ATOM     13  H   UNL     1      37.174 -17.973 -22.633  0.00  0.00    +0.144 HD
ENDROOT
BRANCH   4  15
ATOM     14 CL   UNL     1      34.881 -20.218 -24.722  0.00  0.00    -0.083 Cl
ATOM     15  C   UNL     1      34.718 -18.076 -23.027  0.00  0.00    +0.003 C 
ATOM     16  C   UNL     1      34.569 -16.714 -22.767  0.00  0.00    +0.034 C 
ATOM     17  C   UNL     1      34.700 -18.542 -24.342  0.00  0.00    +0.055 C 
ATOM     18  C   UNL     1      34.402 -15.817 -23.822  0.00  0.00    +0.138 C 
ATOM     19  C   UNL     1      34.533 -17.644 -25.396  0.00  0.00    +0.014 C 
ATOM     20  C   UNL     1      34.384 -16.283 -25.137  0.00  0.00    +0.038 C 
BRANCH  18  21
ATOM     21  O   UNL     1      34.255 -14.487 -23.569  0.00  0.00    -0.471 OA
ATOM     22  C   UNL     1      33.235 -13.798 -24.291  0.00  0.00    +0.252 C 
ENDBRANCH  18  21
ENDBRANCH   4  15
BRANCH   9  25
ATOM     23  N   UNL     1      36.083 -23.071 -16.355  0.00  0.00    -0.205 N 
ATOM     24  N   UNL     1      36.265 -23.964 -15.368  0.00  0.00    -0.176 NA
ATOM     25  C   UNL     1      34.843 -23.118 -16.919  0.00  0.00    +0.124 C 
ATOM     26  C   UNL     1      34.167 -24.112 -16.255  0.00  0.00    +0.043 C 
ATOM     27  C   UNL     1      37.166 -22.184 -16.713  0.00  0.00    +0.140 C 
ATOM     28  C   UNL     1      35.091 -24.598 -15.311  0.00  0.00    +0.119 C 
ENDBRANCH   9  25
TORSDOF 3
ENDMDL
MODEL 6
REMARK VINA RESULT:      -9.4      4.610      7.174
REMARK  Name = 57582353
REMARK  3 active torsions:
REMARK  status: ('A' for Active; 'I' for Inactive)
REMARK    1  A    between atoms: C_4  and  C_12
REMARK    2  A    between atoms: C_9  and  C_22
REMARK    3  A    between atoms: C_15  and  O_18
REMARK                            x       y       z     vdW  Elec       q    Type
REMARK                         _______ _______ _______ _____ _____    ______ ____
ROOT
ATOM      1  O   UNL     1      35.303 -19.812 -22.254  0.00  0.00    -0.268 OA
ATOM      2  N   UNL     1      33.868 -18.395 -21.048  0.00  0.00    -0.255 N 
ATOM      3  N   UNL     1      33.067 -16.200 -21.414  0.00  0.00    -0.376 NA
ATOM      4  C   UNL     1      33.761 -15.000 -23.395  0.00  0.00    +0.112 C 
ATOM      5  C   UNL     1      33.055 -15.105 -22.208  0.00  0.00    +0.163 C 
ATOM      6  C   UNL     1      34.528 -16.090 -23.796  0.00  0.00    -0.010 C 
ATOM      7  C   UNL     1      33.824 -17.239 -21.835  0.00  0.00    +0.187 C 
ATOM      8  C   UNL     1      34.565 -17.234 -23.006  0.00  0.00    +0.044 C 
ATOM      9  C   UNL     1      34.579 -19.573 -21.294  0.00  0.00    +0.266 C 
ATOM     10  H   UNL     1      33.334 -18.376 -20.221  0.00  0.00    +0.158 HD
ATOM     11  N   UNL     1      32.269 -14.003 -21.786  0.00  0.00    -0.336 N 
ATOM     12  H   UNL     1      31.759 -14.056 -20.946  0.00  0.00    +0.144 HD
ATOM     13  H   UNL     1      32.232 -13.186 -22.334  0.00  0.00    +0.144 HD
ENDROOT
BRANCH   4  15
ATOM     14 CL   UNL     1      32.853 -15.332 -26.325  0.00  0.00    -0.083 Cl
ATOM     15  C   UNL     1      33.728 -13.810 -24.225  0.00  0.00    +0.003 C 
ATOM     16  C   UNL     1      34.107 -12.597 -23.651  0.00  0.00    +0.034 C 
ATOM     17  C   UNL     1      33.331 -13.856 -25.562  0.00  0.00    +0.055 C 
ATOM     18  C   UNL     1      34.090 -11.430 -24.415  0.00  0.00    +0.138 C 
ATOM     19  C   UNL     1      33.315 -12.689 -26.324  0.00  0.00    +0.014 C 
ATOM     20  C   UNL     1      33.694 -11.475 -25.751  0.00  0.00    +0.038 C 
BRANCH  18  21
ATOM     21  O   UNL     1      34.459 -10.244 -23.855  0.00  0.00    -0.471 OA
ATOM     22  C   UNL     1      33.427  -9.285 -23.627  0.00  0.00    +0.252 C 
ENDBRANCH  18  21
ENDBRANCH   4  15
BRANCH   9  25
ATOM     23  N   UNL     1      35.481 -21.229 -19.599  0.00  0.00    -0.205 N 
ATOM     24  N   UNL     1      35.093 -22.147 -18.697  0.00  0.00    -0.176 NA
ATOM     25  C   UNL     1      34.446 -20.623 -20.248  0.00  0.00    +0.124 C 
ATOM     26  C   UNL     1      33.302 -21.182 -19.735  0.00  0.00    +0.043 C 
ATOM     27  C   UNL     1      36.890 -20.981 -19.792  0.00  0.00    +0.140 C 
ATOM     28  C   UNL     1      33.760 -22.114 -18.784  0.00  0.00    +0.119 C 
ENDBRANCH   9  25
TORSDOF 3
ENDMDL
MODEL 7
REMARK VINA RESULT:      -9.0      4.764     10.902
REMARK  Name = 57582353
REMARK  3 active torsions:
REMARK  status: ('A' for Active; 'I' for Inactive)
REMARK    1  A    between atoms: C_4  and  C_12
REMARK    2  A    between atoms: C_9  and  C_22
REMARK    3  A    between atoms: C_15  and  O_18
REMARK                            x       y       z     vdW  Elec       q    Type
REMARK                         _______ _______ _______ _____ _____    ______ ____
ROOT
ATOM      1  O   UNL     1      32.953 -13.320 -21.185  0.00  0.00    -0.268 OA
ATOM      2  N   UNL     1      33.832 -14.547 -22.986  0.00  0.00    -0.255 N 
ATOM      3  N   UNL     1      34.590 -16.775 -23.218  0.00  0.00    -0.376 NA
ATOM      4  C   UNL     1      34.524 -18.255 -21.308  0.00  0.00    +0.112 C 
ATOM      5  C   UNL     1      34.803 -17.976 -22.636  0.00  0.00    +0.163 C 
ATOM      6  C   UNL     1      33.990 -17.235 -20.527  0.00  0.00    -0.010 C 
ATOM      7  C   UNL     1      34.071 -15.808 -22.428  0.00  0.00    +0.187 C 
ATOM      8  C   UNL     1      33.757 -15.986 -21.091  0.00  0.00    +0.044 C 
ATOM      9  C   UNL     1      33.305 -13.416 -22.355  0.00  0.00    +0.266 C 
ATOM     10  H   UNL     1      34.062 -14.444 -23.938  0.00  0.00    +0.158 HD
ATOM     11  N   UNL     1      35.348 -19.006 -23.446  0.00  0.00    -0.336 N 
ATOM     12  H   UNL     1      35.554 -18.830 -24.392  0.00  0.00    +0.144 HD
ATOM     13  H   UNL     1      35.519 -19.896 -23.061  0.00  0.00    +0.144 HD
ENDROOT
BRANCH   4  15
ATOM     14 CL   UNL     1      37.452 -19.205 -21.100  0.00  0.00    -0.083 Cl
ATOM     15  C   UNL     1      34.765 -19.556 -20.712  0.00  0.00    +0.003 C 
ATOM     16  C   UNL     1      33.666 -20.294 -20.274  0.00  0.00    +0.034 C 
ATOM     17  C   UNL     1      36.053 -20.074 -20.574  0.00  0.00    +0.055 C 
ATOM     18  C   UNL     1      33.854 -21.550 -19.698  0.00  0.00    +0.138 C 
ATOM     19  C   UNL     1      36.241 -21.330 -19.997  0.00  0.00    +0.014 C 
ATOM     20  C   UNL     1      35.142 -22.068 -19.559  0.00  0.00    +0.038 C 
BRANCH  18  21
ATOM     21  O   UNL     1      32.781 -22.270 -19.269  0.00  0.00    -0.471 OA
ATOM     22  C   UNL     1      32.851 -22.817 -17.952  0.00  0.00    +0.252 C 
ENDBRANCH  18  21
ENDBRANCH   4  15
BRANCH   9  25
ATOM     23  N   UNL     1      32.381 -11.139 -22.975  0.00  0.00    -0.205 N 
ATOM     24  N   UNL     1      32.470 -10.171 -23.904  0.00  0.00    -0.176 NA
ATOM     25  C   UNL     1      33.196 -12.206 -23.212  0.00  0.00    +0.124 C 
ATOM     26  C   UNL     1      33.864 -11.916 -24.377  0.00  0.00    +0.043 C 
ATOM     27  C   UNL     1      31.474 -10.970 -21.864  0.00  0.00    +0.140 C 
ATOM     28  C   UNL     1      33.377 -10.651 -24.758  0.00  0.00    +0.119 C 
ENDBRANCH   9  25
TORSDOF 3
ENDMDL
MODEL 8
REMARK VINA RESULT:      -8.8      2.251      2.950
REMARK  Name = 57582353
REMARK  3 active torsions:
REMARK  status: ('A' for Active; 'I' for Inactive)
REMARK    1  A    between atoms: C_4  and  C_12
REMARK    2  A    between atoms: C_9  and  C_22
REMARK    3  A    between atoms: C_15  and  O_18
REMARK                            x       y       z     vdW  Elec       q    Type
REMARK                         _______ _______ _______ _____ _____    ______ ____
ROOT
ATOM      1  O   UNL     1      35.263 -14.861 -24.227  0.00  0.00    -0.268 OA
ATOM      2  N   UNL     1      33.289 -14.915 -22.952  0.00  0.00    -0.255 N 
ATOM      3  N   UNL     1      31.845 -13.236 -22.121  0.00  0.00    -0.376 NA
ATOM      4  C   UNL     1      32.341 -10.914 -22.579  0.00  0.00    +0.112 C 
ATOM      5  C   UNL     1      31.565 -11.917 -22.020  0.00  0.00    +0.163 C 
ATOM      6  C   UNL     1      33.476 -11.288 -23.289  0.00  0.00    -0.010 C 
ATOM      7  C   UNL     1      32.958 -13.562 -22.819  0.00  0.00    +0.187 C 
ATOM      8  C   UNL     1      33.797 -12.636 -23.416  0.00  0.00    +0.044 C 
ATOM      9  C   UNL     1      34.383 -15.467 -23.625  0.00  0.00    +0.266 C 
ATOM     10  H   UNL     1      32.678 -15.555 -22.520  0.00  0.00    +0.158 HD
ATOM     11  N   UNL     1      30.404 -11.552 -21.293  0.00  0.00    -0.336 N 
ATOM     12  H   UNL     1      29.838 -12.248 -20.887  0.00  0.00    +0.144 HD
ATOM     13  H   UNL     1      30.163 -10.602 -21.194  0.00  0.00    +0.144 HD
ENDROOT
BRANCH   4  15
ATOM     14 CL   UNL     1      32.537  -9.657 -19.769  0.00  0.00    -0.083 Cl
ATOM     15  C   UNL     1      32.012  -9.506 -22.451  0.00  0.00    +0.003 C 
ATOM     16  C   UNL     1      31.629  -8.813 -23.598  0.00  0.00    +0.034 C 
ATOM     17  C   UNL     1      32.071  -8.846 -21.223  0.00  0.00    +0.055 C 
ATOM     18  C   UNL     1      31.304  -7.459 -23.518  0.00  0.00    +0.138 C 
ATOM     19  C   UNL     1      31.746  -7.493 -21.144  0.00  0.00    +0.014 C 
ATOM     20  C   UNL     1      31.363  -6.799 -22.291  0.00  0.00    +0.038 C 
BRANCH  18  21
ATOM     21  O   UNL     1      30.931  -6.780 -24.639  0.00  0.00    -0.471 OA
ATOM     22  C   UNL     1      31.213  -5.381 -24.675  0.00  0.00    +0.252 C 
ENDBRANCH  18  21
ENDBRANCH   4  15
BRANCH   9  25
ATOM     23  N   UNL     1      34.708 -17.683 -22.437  0.00  0.00    -0.205 N 
ATOM     24  N   UNL     1      34.752 -19.009 -22.652  0.00  0.00    -0.176 NA
ATOM     25  C   UNL     1      34.481 -16.950 -23.565  0.00  0.00    +0.124 C 
ATOM     26  C   UNL     1      34.367 -17.860 -24.587  0.00  0.00    +0.043 C 
ATOM     27  C   UNL     1      34.899 -17.178 -21.098  0.00  0.00    +0.140 C 
ATOM     28  C   UNL     1      34.543 -19.111 -23.967  0.00  0.00    +0.119 C 
ENDBRANCH   9  25
TORSDOF 3
ENDMDL
MODEL 9
REMARK VINA RESULT:      -8.8      3.121      9.282
REMARK  Name = 57582353
REMARK  3 active torsions:
REMARK  status: ('A' for Active; 'I' for Inactive)
REMARK    1  A    between atoms: C_4  and  C_12
REMARK    2  A    between atoms: C_9  and  C_22
REMARK    3  A    between atoms: C_15  and  O_18
REMARK                            x       y       z     vdW  Elec       q    Type
REMARK                         _______ _______ _______ _____ _____    ______ ____
ROOT
ATOM      1  O   UNL     1      33.618  -9.684 -24.139  0.00  0.00    -0.268 OA
ATOM      2  N   UNL     1      32.205 -10.816 -22.641  0.00  0.00    -0.255 N 
ATOM      3  N   UNL     1      32.099 -13.055 -21.884  0.00  0.00    -0.376 NA
ATOM      4  C   UNL     1      33.701 -14.664 -22.715  0.00  0.00    +0.112 C 
ATOM      5  C   UNL     1      32.616 -14.303 -21.933  0.00  0.00    +0.163 C 
ATOM      6  C   UNL     1      34.296 -13.680 -23.497  0.00  0.00    -0.010 C 
ATOM      7  C   UNL     1      32.704 -12.124 -22.658  0.00  0.00    +0.187 C 
ATOM      8  C   UNL     1      33.793 -12.383 -23.474  0.00  0.00    +0.044 C 
ATOM      9  C   UNL     1      32.675  -9.711 -23.357  0.00  0.00    +0.266 C 
ATOM     10  H   UNL     1      31.431 -10.656 -22.054  0.00  0.00    +0.158 HD
ATOM     11  N   UNL     1      31.998 -15.295 -21.129  0.00  0.00    -0.336 N 
ATOM     12  H   UNL     1      31.226 -15.062 -20.566  0.00  0.00    +0.144 HD
ATOM     13  H   UNL     1      32.342 -16.218 -21.135  0.00  0.00    +0.144 HD
ENDROOT
BRANCH   4  15
ATOM     14 CL   UNL     1      34.973 -15.751 -20.124  0.00  0.00    -0.083 Cl
ATOM     15  C   UNL     1      34.231 -16.015 -22.745  0.00  0.00    +0.003 C 
ATOM     16  C   UNL     1      34.134 -16.734 -23.936  0.00  0.00    +0.034 C 
ATOM     17  C   UNL     1      34.825 -16.596 -21.625  0.00  0.00    +0.055 C 
ATOM     18  C   UNL     1      34.633 -18.034 -24.008  0.00  0.00    +0.138 C 
ATOM     19  C   UNL     1      35.323 -17.897 -21.697  0.00  0.00    +0.014 C 
ATOM     20  C   UNL     1      35.227 -18.616 -22.888  0.00  0.00    +0.038 C 
BRANCH  18  21
ATOM     21  O   UNL     1      34.538 -18.737 -25.170  0.00  0.00    -0.471 OA
ATOM     22  C   UNL     1      34.875 -20.123 -25.120  0.00  0.00    +0.252 C 
ENDBRANCH  18  21
ENDBRANCH   4  15
BRANCH   9  25
ATOM     23  N   UNL     1      31.922  -7.700 -22.009  0.00  0.00    -0.205 N 
ATOM     24  N   UNL     1      31.145  -6.605 -22.075  0.00  0.00    -0.176 NA
ATOM     25  C   UNL     1      31.912  -8.451 -23.147  0.00  0.00    +0.124 C 
ATOM     26  C   UNL     1      31.070  -7.803 -24.017  0.00  0.00    +0.043 C 
ATOM     27  C   UNL     1      32.661  -7.970 -20.798  0.00  0.00    +0.140 C 
ATOM     28  C   UNL     1      30.627  -6.673 -23.304  0.00  0.00    +0.119 C 
ENDBRANCH   9  25
TORSDOF 3
ENDMDL
