MODEL 1
REMARK VINA RESULT:     -11.2      0.000      0.000
REMARK  Name = 46937156
REMARK  6 active torsions:
REMARK  status: ('A' for Active; 'I' for Inactive)
REMARK    1  A    between atoms: C_5  and  O_22
REMARK    2  A    between atoms: C_7  and  O_24
REMARK    3  A    between atoms: C_8  and  O_26
REMARK    4  A    between atoms: C_9  and  C_12
REMARK    5  A    between atoms: C_10  and  C_28
REMARK    6  A    between atoms: C_28  and  O_29
REMARK                            x       y       z     vdW  Elec       q    Type
REMARK                         _______ _______ _______ _____ _____    ______ ____
ROOT
ATOM      1  O   UNL     1      37.044 -24.730 -15.379  0.00  0.00    -0.328 OA
ATOM      2  O   UNL     1      36.648 -22.441 -14.869  0.00  0.00    -0.260 OA
ATOM      3  N   UNL     1      36.747 -21.646 -16.097  0.00  0.00    -0.184 NA
ATOM      4  C   UNL     1      36.053 -23.710 -15.184  0.00  0.00    +0.234 C 
ATOM      5  C   UNL     1      35.086 -24.142 -14.076  0.00  0.00    +0.193 C 
ATOM      6  C   UNL     1      35.352 -23.478 -16.512  0.00  0.00    +0.083 C 
ATOM      7  C   UNL     1      35.836 -24.460 -12.783  0.00  0.00    +0.171 C 
ATOM      8  C   UNL     1      36.974 -25.447 -13.048  0.00  0.00    +0.169 C 
ATOM      9  C   UNL     1      36.313 -22.523 -17.191  0.00  0.00    +0.107 C 
ATOM     10  C   UNL     1      37.845 -24.980 -14.219  0.00  0.00    +0.176 C 
ATOM     11  H   UNL     1      37.710 -21.346 -16.246  0.00  0.00    +0.155 HD
ENDROOT
BRANCH   9  12
ATOM     12  C   UNL     1      35.709 -21.771 -18.352  0.00  0.00    -0.006 C 
ATOM     13  C   UNL     1      36.492 -20.882 -19.090  0.00  0.00    -0.003 C 
ATOM     14  C   UNL     1      34.371 -21.963 -18.685  0.00  0.00    -0.003 C 
ATOM     15  C   UNL     1      35.944 -20.174 -20.173  0.00  0.00    -0.000 C 
ATOM     16  C   UNL     1      33.811 -21.268 -19.756  0.00  0.00    -0.000 C 
ATOM     17  C   UNL     1      34.584 -20.370 -20.511  0.00  0.00    -0.000 C 
ATOM     18  C   UNL     1      36.717 -19.276 -20.926  0.00  0.00    -0.000 C 
ATOM     19  C   UNL     1      34.037 -19.661 -21.593  0.00  0.00    -0.000 C 
ATOM     20  C   UNL     1      36.157 -18.581 -21.998  0.00  0.00    -0.000 C 
ATOM     21  C   UNL     1      34.820 -18.773 -22.331  0.00  0.00    -0.000 C 
ENDBRANCH   9  12
BRANCH   5  22
ATOM     22  O   UNL     1      34.134 -23.111 -13.827  0.00  0.00    -0.378 OA
ATOM     23  H   UNL     1      33.510 -23.061 -14.568  0.00  0.00    +0.211 HD
ENDBRANCH   5  22
BRANCH   7  24
ATOM     24  O   UNL     1      34.915 -25.046 -11.861  0.00  0.00    -0.379 OA
ATOM     25  H   UNL     1      34.935 -24.552 -11.026  0.00  0.00    +0.211 HD
ENDBRANCH   7  24
BRANCH   8  26
ATOM     26  O   UNL     1      37.754 -25.550 -11.860  0.00  0.00    -0.379 OA
ATOM     27  H   UNL     1      38.696 -25.567 -12.091  0.00  0.00    +0.211 HD
ENDBRANCH   8  26
BRANCH  10  28
ATOM     28  C   UNL     1      38.885 -26.025 -14.613  0.00  0.00    +0.169 C 
BRANCH  28  29
ATOM     29  O   UNL     1      38.261 -27.295 -14.636  0.00  0.00    -0.379 OA
ATOM     30  H   UNL     1      37.299 -27.184 -14.587  0.00  0.00    +0.211 HD
ENDBRANCH  28  29
ENDBRANCH  10  28
TORSDOF 6
ENDMDL
MODEL 2
REMARK VINA RESULT:     -10.6      1.358      2.681
REMARK  Name = 46937156
REMARK  6 active torsions:
REMARK  status: ('A' for Active; 'I' for Inactive)
REMARK    1  A    between atoms: C_5  and  O_22
REMARK    2  A    between atoms: C_7  and  O_24
REMARK    3  A    between atoms: C_8  and  O_26
REMARK    4  A    between atoms: C_9  and  C_12
REMARK    5  A    between atoms: C_10  and  C_28
REMARK    6  A    between atoms: C_28  and  O_29
REMARK                            x       y       z     vdW  Elec       q    Type
REMARK                         _______ _______ _______ _____ _____    ______ ____
ROOT
ATOM      1  O   UNL     1      36.216 -23.768 -13.579  0.00  0.00    -0.328 OA
ATOM      2  O   UNL     1      35.901 -25.220 -15.436  0.00  0.00    -0.260 OA
ATOM      3  N   UNL     1      35.003 -24.584 -16.403  0.00  0.00    -0.184 NA
ATOM      4  C   UNL     1      36.734 -24.211 -14.842  0.00  0.00    +0.234 C 
ATOM      5  C   UNL     1      38.164 -24.733 -14.652  0.00  0.00    +0.193 C 
ATOM      6  C   UNL     1      36.664 -23.045 -15.813  0.00  0.00    +0.083 C 
ATOM      7  C   UNL     1      38.211 -25.839 -13.599  0.00  0.00    +0.171 C 
ATOM      8  C   UNL     1      37.529 -25.384 -12.307  0.00  0.00    +0.169 C 
ATOM      9  C   UNL     1      35.226 -23.138 -16.283  0.00  0.00    +0.107 C 
ATOM     10  C   UNL     1      36.140 -24.804 -12.594  0.00  0.00    +0.176 C 
ATOM     11  H   UNL     1      34.032 -24.810 -16.185  0.00  0.00    +0.155 HD
ENDROOT
BRANCH   9  12
ATOM     12  C   UNL     1      34.951 -22.385 -17.562  0.00  0.00    -0.006 C 
ATOM     13  C   UNL     1      35.966 -21.645 -18.168  0.00  0.00    -0.003 C 
ATOM     14  C   UNL     1      33.683 -22.428 -18.135  0.00  0.00    -0.003 C 
ATOM     15  C   UNL     1      35.726 -20.938 -19.358  0.00  0.00    -0.000 C 
ATOM     16  C   UNL     1      33.426 -21.732 -19.316  0.00  0.00    -0.000 C 
ATOM     17  C   UNL     1      34.436 -20.983 -19.941  0.00  0.00    -0.000 C 
ATOM     18  C   UNL     1      36.736 -20.189 -19.981  0.00  0.00    -0.000 C 
ATOM     19  C   UNL     1      34.196 -20.275 -21.130  0.00  0.00    -0.000 C 
ATOM     20  C   UNL     1      36.479 -19.492 -21.163  0.00  0.00    -0.000 C 
ATOM     21  C   UNL     1      35.212 -19.536 -21.737  0.00  0.00    -0.000 C 
ENDBRANCH   9  12
BRANCH   5  22
ATOM     22  O   UNL     1      38.668 -25.236 -15.886  0.00  0.00    -0.378 OA
ATOM     23  H   UNL     1      38.353 -26.145 -16.019  0.00  0.00    +0.211 HD
ENDBRANCH   5  22
BRANCH   7  24
ATOM     24  O   UNL     1      39.580 -26.139 -13.323  0.00  0.00    -0.379 OA
ATOM     25  H   UNL     1      39.985 -26.547 -14.105  0.00  0.00    +0.211 HD
ENDBRANCH   7  24
BRANCH   8  26
ATOM     26  O   UNL     1      37.427 -26.510 -11.441  0.00  0.00    -0.379 OA
ATOM     27  H   UNL     1      36.646 -27.033 -11.681  0.00  0.00    +0.211 HD
ENDBRANCH   8  26
BRANCH  10  28
ATOM     28  C   UNL     1      35.506 -24.189 -11.350  0.00  0.00    +0.169 C 
BRANCH  28  29
ATOM     29  O   UNL     1      35.245 -25.224 -10.420  0.00  0.00    -0.379 OA
ATOM     30  H   UNL     1      34.723 -25.920 -10.848  0.00  0.00    +0.211 HD
ENDBRANCH  28  29
ENDBRANCH  10  28
TORSDOF 6
ENDMDL
MODEL 3
REMARK VINA RESULT:     -10.1      7.635     11.742
REMARK  Name = 46937156
REMARK  6 active torsions:
REMARK  status: ('A' for Active; 'I' for Inactive)
REMARK    1  A    between atoms: C_5  and  O_22
REMARK    2  A    between atoms: C_7  and  O_24
REMARK    3  A    between atoms: C_8  and  O_26
REMARK    4  A    between atoms: C_9  and  C_12
REMARK    5  A    between atoms: C_10  and  C_28
REMARK    6  A    between atoms: C_28  and  O_29
REMARK                            x       y       z     vdW  Elec       q    Type
REMARK                         _______ _______ _______ _____ _____    ______ ____
ROOT
ATOM      1  O   UNL     1      33.385 -14.714 -23.307  0.00  0.00    -0.328 OA
ATOM      2  O   UNL     1      35.469 -15.695 -23.899  0.00  0.00    -0.260 OA
ATOM      3  N   UNL     1      35.976 -16.477 -22.767  0.00  0.00    -0.184 NA
ATOM      4  C   UNL     1      34.039 -15.821 -23.946  0.00  0.00    +0.234 C 
ATOM      5  C   UNL     1      33.555 -15.932 -25.397  0.00  0.00    +0.193 C 
ATOM      6  C   UNL     1      33.743 -17.072 -23.136  0.00  0.00    +0.083 C 
ATOM      7  C   UNL     1      33.780 -14.624 -26.154  0.00  0.00    +0.171 C 
ATOM      8  C   UNL     1      33.190 -13.443 -25.381  0.00  0.00    +0.169 C 
ATOM      9  C   UNL     1      34.796 -16.976 -22.050  0.00  0.00    +0.107 C 
ATOM     10  C   UNL     1      33.661 -13.452 -23.923  0.00  0.00    +0.176 C 
ATOM     11  H   UNL     1      36.538 -15.887 -22.153  0.00  0.00    +0.155 HD
ENDROOT
BRANCH   9  12
ATOM     12  C   UNL     1      35.046 -18.277 -21.325  0.00  0.00    -0.006 C 
ATOM     13  C   UNL     1      33.970 -19.051 -20.889  0.00  0.00    -0.003 C 
ATOM     14  C   UNL     1      36.351 -18.701 -21.090  0.00  0.00    -0.003 C 
ATOM     15  C   UNL     1      34.187 -20.262 -20.213  0.00  0.00    -0.000 C 
ATOM     16  C   UNL     1      36.584 -19.902 -20.419  0.00  0.00    -0.000 C 
ATOM     17  C   UNL     1      35.514 -20.694 -19.974  0.00  0.00    -0.000 C 
ATOM     18  C   UNL     1      33.117 -21.053 -19.767  0.00  0.00    -0.000 C 
ATOM     19  C   UNL     1      35.730 -21.905 -19.296  0.00  0.00    -0.000 C 
ATOM     20  C   UNL     1      33.350 -22.254 -19.096  0.00  0.00    -0.000 C 
ATOM     21  C   UNL     1      34.654 -22.679 -18.861  0.00  0.00    -0.000 C 
ENDBRANCH   9  12
BRANCH   5  22
ATOM     22  O   UNL     1      34.243 -16.987 -26.063  0.00  0.00    -0.378 OA
ATOM     23  H   UNL     1      34.148 -17.807 -25.554  0.00  0.00    +0.211 HD
ENDBRANCH   5  22
BRANCH   7  24
ATOM     24  O   UNL     1      33.131 -14.722 -27.423  0.00  0.00    -0.379 OA
ATOM     25  H   UNL     1      32.483 -14.004 -27.511  0.00  0.00    +0.211 HD
ENDBRANCH   7  24
BRANCH   8  26
ATOM     26  O   UNL     1      33.601 -12.243 -26.028  0.00  0.00    -0.379 OA
ATOM     27  H   UNL     1      34.247 -12.453 -26.720  0.00  0.00    +0.211 HD
ENDBRANCH   8  26
BRANCH  10  28
ATOM     28  C   UNL     1      32.959 -12.387 -23.087  0.00  0.00    +0.169 C 
BRANCH  28  29
ATOM     29  O   UNL     1      33.351 -11.111 -23.559  0.00  0.00    -0.379 OA
ATOM     30  H   UNL     1      32.638 -10.731 -24.095  0.00  0.00    +0.211 HD
ENDBRANCH  28  29
ENDBRANCH  10  28
TORSDOF 6
ENDMDL
MODEL 4
REMARK VINA RESULT:      -9.4      3.617      5.260
REMARK  Name = 46937156
REMARK  6 active torsions:
REMARK  status: ('A' for Active; 'I' for Inactive)
REMARK    1  A    between atoms: C_5  and  O_22
REMARK    2  A    between atoms: C_7  and  O_24
REMARK    3  A    between atoms: C_8  and  O_26
REMARK    4  A    between atoms: C_9  and  C_12
REMARK    5  A    between atoms: C_10  and  C_28
REMARK    6  A    between atoms: C_28  and  O_29
REMARK                            x       y       z     vdW  Elec       q    Type
REMARK                         _______ _______ _______ _____ _____    ______ ____
ROOT
ATOM      1  O   UNL     1      30.416 -23.319 -16.756  0.00  0.00    -0.328 OA
ATOM      2  O   UNL     1      32.565 -24.337 -16.696  0.00  0.00    -0.260 OA
ATOM      3  N   UNL     1      33.319 -23.951 -17.892  0.00  0.00    -0.184 NA
ATOM      4  C   UNL     1      31.764 -23.222 -16.271  0.00  0.00    +0.234 C 
ATOM      5  C   UNL     1      31.750 -23.119 -14.741  0.00  0.00    +0.193 C 
ATOM      6  C   UNL     1      32.414 -22.018 -16.931  0.00  0.00    +0.083 C 
ATOM      7  C   UNL     1      31.004 -24.297 -14.116  0.00  0.00    +0.171 C 
ATOM      8  C   UNL     1      29.621 -24.458 -14.750  0.00  0.00    +0.169 C 
ATOM      9  C   UNL     1      32.851 -22.608 -18.257  0.00  0.00    +0.107 C 
ATOM     10  C   UNL     1      29.717 -24.473 -16.279  0.00  0.00    +0.176 C 
ATOM     11  H   UNL     1      33.137 -24.606 -18.651  0.00  0.00    +0.155 HD
ENDROOT
BRANCH   9  12
ATOM     12  C   UNL     1      33.897 -21.789 -18.976  0.00  0.00    -0.006 C 
ATOM     13  C   UNL     1      33.510 -20.842 -19.924  0.00  0.00    -0.003 C 
ATOM     14  C   UNL     1      35.246 -21.982 -18.693  0.00  0.00    -0.003 C 
ATOM     15  C   UNL     1      34.471 -20.073 -20.601  0.00  0.00    -0.000 C 
ATOM     16  C   UNL     1      36.213 -21.228 -19.357  0.00  0.00    -0.000 C 
ATOM     17  C   UNL     1      35.843 -20.269 -20.313  0.00  0.00    -0.000 C 
ATOM     18  C   UNL     1      34.100 -19.115 -21.558  0.00  0.00    -0.000 C 
ATOM     19  C   UNL     1      36.803 -19.501 -20.992  0.00  0.00    -0.000 C 
ATOM     20  C   UNL     1      35.067 -18.360 -22.223  0.00  0.00    -0.000 C 
ATOM     21  C   UNL     1      36.416 -18.552 -21.940  0.00  0.00    -0.000 C 
ENDBRANCH   9  12
BRANCH   5  22
ATOM     22  O   UNL     1      33.084 -23.086 -14.241  0.00  0.00    -0.378 OA
ATOM     23  H   UNL     1      33.511 -23.942 -14.403  0.00  0.00    +0.211 HD
ENDBRANCH   5  22
BRANCH   7  24
ATOM     24  O   UNL     1      30.850 -24.041 -12.720  0.00  0.00    -0.379 OA
ATOM     25  H   UNL     1      30.574 -23.119 -12.589  0.00  0.00    +0.211 HD
ENDBRANCH   7  24
BRANCH   8  26
ATOM     26  O   UNL     1      29.058 -25.678 -14.276  0.00  0.00    -0.379 OA
ATOM     27  H   UNL     1      29.456 -26.424 -14.751  0.00  0.00    +0.211 HD
ENDBRANCH   8  26
BRANCH  10  28
ATOM     28  C   UNL     1      28.342 -24.465 -16.941  0.00  0.00    +0.169 C 
BRANCH  28  29
ATOM     29  O   UNL     1      28.221 -23.285 -17.714  0.00  0.00    -0.379 OA
ATOM     30  H   UNL     1      28.148 -22.518 -17.125  0.00  0.00    +0.211 HD
ENDBRANCH  28  29
ENDBRANCH  10  28
TORSDOF 6
ENDMDL
MODEL 5
REMARK VINA RESULT:      -9.4     10.399     13.944
REMARK  Name = 46937156
REMARK  6 active torsions:
REMARK  status: ('A' for Active; 'I' for Inactive)
REMARK    1  A    between atoms: C_5  and  O_22
REMARK    2  A    between atoms: C_7  and  O_24
REMARK    3  A    between atoms: C_8  and  O_26
REMARK    4  A    between atoms: C_9  and  C_12
REMARK    5  A    between atoms: C_10  and  C_28
REMARK    6  A    between atoms: C_28  and  O_29
REMARK                            x       y       z     vdW  Elec       q    Type
REMARK                         _______ _______ _______ _____ _____    ______ ____
ROOT
ATOM      1  O   UNL     1      34.172 -13.921 -22.570  0.00  0.00    -0.328 OA
ATOM      2  O   UNL     1      31.945 -13.461 -23.267  0.00  0.00    -0.260 OA
ATOM      3  N   UNL     1      31.444 -12.286 -22.548  0.00  0.00    -0.184 NA
ATOM      4  C   UNL     1      33.342 -13.273 -23.546  0.00  0.00    +0.234 C 
ATOM      5  C   UNL     1      33.690 -13.802 -24.943  0.00  0.00    +0.193 C 
ATOM      6  C   UNL     1      33.554 -11.774 -23.420  0.00  0.00    +0.083 C 
ATOM      7  C   UNL     1      33.559 -15.323 -25.004  0.00  0.00    +0.171 C 
ATOM      8  C   UNL     1      34.345 -15.979 -23.868  0.00  0.00    +0.169 C 
ATOM      9  C   UNL     1      32.611 -11.437 -22.283  0.00  0.00    +0.107 C 
ATOM     10  C   UNL     1      33.997 -15.340 -22.520  0.00  0.00    +0.176 C 
ATOM     11  H   UNL     1      31.007 -12.569 -21.671  0.00  0.00    +0.155 HD
ENDROOT
BRANCH   9  12
ATOM     12  C   UNL     1      32.269  -9.969 -22.186  0.00  0.00    -0.006 C 
ATOM     13  C   UNL     1      31.971  -9.245 -23.341  0.00  0.00    -0.003 C 
ATOM     14  C   UNL     1      32.254  -9.339 -20.945  0.00  0.00    -0.003 C 
ATOM     15  C   UNL     1      31.652  -7.879 -23.268  0.00  0.00    -0.000 C 
ATOM     16  C   UNL     1      31.940  -7.983 -20.854  0.00  0.00    -0.000 C 
ATOM     17  C   UNL     1      31.636  -7.239 -22.006  0.00  0.00    -0.000 C 
ATOM     18  C   UNL     1      31.350  -7.136 -24.420  0.00  0.00    -0.000 C 
ATOM     19  C   UNL     1      31.318  -5.873 -21.934  0.00  0.00    -0.000 C 
ATOM     20  C   UNL     1      31.036  -5.779 -24.329  0.00  0.00    -0.000 C 
ATOM     21  C   UNL     1      31.019  -5.149 -23.089  0.00  0.00    -0.000 C 
ENDBRANCH   9  12
BRANCH   5  22
ATOM     22  O   UNL     1      32.830 -13.215 -25.916  0.00  0.00    -0.378 OA
ATOM     23  H   UNL     1      32.202 -13.881 -26.237  0.00  0.00    +0.211 HD
ENDBRANCH   5  22
BRANCH   7  24
ATOM     24  O   UNL     1      34.087 -15.769 -26.255  0.00  0.00    -0.379 OA
ATOM     25  H   UNL     1      34.538 -15.031 -26.697  0.00  0.00    +0.211 HD
ENDBRANCH   7  24
BRANCH   8  26
ATOM     26  O   UNL     1      34.028 -17.368 -23.856  0.00  0.00    -0.379 OA
ATOM     27  H   UNL     1      34.714 -17.853 -23.372  0.00  0.00    +0.211 HD
ENDBRANCH   8  26
BRANCH  10  28
ATOM     28  C   UNL     1      34.886 -15.858 -21.392  0.00  0.00    +0.169 C 
BRANCH  28  29
ATOM     29  O   UNL     1      34.856 -14.924 -20.329  0.00  0.00    -0.379 OA
ATOM     30  H   UNL     1      34.771 -14.027 -20.690  0.00  0.00    +0.211 HD
ENDBRANCH  28  29
ENDBRANCH  10  28
TORSDOF 6
ENDMDL
MODEL 6
REMARK VINA RESULT:      -9.4      9.213     12.720
REMARK  Name = 46937156
REMARK  6 active torsions:
REMARK  status: ('A' for Active; 'I' for Inactive)
REMARK    1  A    between atoms: C_5  and  O_22
REMARK    2  A    between atoms: C_7  and  O_24
REMARK    3  A    between atoms: C_8  and  O_26
REMARK    4  A    between atoms: C_9  and  C_12
REMARK    5  A    between atoms: C_10  and  C_28
REMARK    6  A    between atoms: C_28  and  O_29
REMARK                            x       y       z     vdW  Elec       q    Type
REMARK                         _______ _______ _______ _____ _____    ______ ____
ROOT
ATOM      1  O   UNL     1      34.599 -15.189 -22.580  0.00  0.00    -0.328 OA
ATOM      2  O   UNL     1      32.423 -14.812 -23.463  0.00  0.00    -0.260 OA
ATOM      3  N   UNL     1      31.923 -13.520 -22.987  0.00  0.00    -0.184 NA
ATOM      4  C   UNL     1      33.836 -14.706 -23.696  0.00  0.00    +0.234 C 
ATOM      5  C   UNL     1      34.235 -15.478 -24.960  0.00  0.00    +0.193 C 
ATOM      6  C   UNL     1      34.087 -13.213 -23.823  0.00  0.00    +0.083 C 
ATOM      7  C   UNL     1      34.062 -16.984 -24.762  0.00  0.00    +0.171 C 
ATOM      8  C   UNL     1      34.773 -17.447 -23.489  0.00  0.00    +0.169 C 
ATOM      9  C   UNL     1      33.101 -12.661 -22.812  0.00  0.00    +0.107 C 
ATOM     10  C   UNL     1      34.379 -16.574 -22.293  0.00  0.00    +0.176 C 
ATOM     11  H   UNL     1      31.436 -13.635 -22.097  0.00  0.00    +0.155 HD
ENDROOT
BRANCH   9  12
ATOM     12  C   UNL     1      32.799 -11.193 -22.991  0.00  0.00    -0.006 C 
ATOM     13  C   UNL     1      33.750 -10.350 -23.567  0.00  0.00    -0.003 C 
ATOM     14  C   UNL     1      31.572 -10.680 -22.579  0.00  0.00    -0.003 C 
ATOM     15  C   UNL     1      33.484  -8.982 -23.739  0.00  0.00    -0.000 C 
ATOM     16  C   UNL     1      31.292  -9.324 -22.741  0.00  0.00    -0.000 C 
ATOM     17  C   UNL     1      32.236  -8.461 -23.320  0.00  0.00    -0.000 C 
ATOM     18  C   UNL     1      34.429  -8.120 -24.316  0.00  0.00    -0.000 C 
ATOM     19  C   UNL     1      31.972  -7.092 -23.491  0.00  0.00    -0.000 C 
ATOM     20  C   UNL     1      34.149  -6.762 -24.479  0.00  0.00    -0.000 C 
ATOM     21  C   UNL     1      32.923  -6.250 -24.068  0.00  0.00    -0.000 C 
ENDBRANCH   9  12
BRANCH   5  22
ATOM     22  O   UNL     1      33.441 -15.053 -26.064  0.00  0.00    -0.378 OA
ATOM     23  H   UNL     1      33.621 -14.119 -26.251  0.00  0.00    +0.211 HD
ENDBRANCH   5  22
BRANCH   7  24
ATOM     24  O   UNL     1      34.636 -17.653 -25.887  0.00  0.00    -0.379 OA
ATOM     25  H   UNL     1      34.711 -18.602 -25.694  0.00  0.00    +0.211 HD
ENDBRANCH   7  24
BRANCH   8  26
ATOM     26  O   UNL     1      34.413 -18.805 -23.253  0.00  0.00    -0.379 OA
ATOM     27  H   UNL     1      34.080 -19.199 -24.074  0.00  0.00    +0.211 HD
ENDBRANCH   8  26
BRANCH  10  28
ATOM     28  C   UNL     1      35.197 -16.905 -21.048  0.00  0.00    +0.169 C 
BRANCH  28  29
ATOM     29  O   UNL     1      34.927 -18.243 -20.673  0.00  0.00    -0.379 OA
ATOM     30  H   UNL     1      34.872 -18.797 -21.468  0.00  0.00    +0.211 HD
ENDBRANCH  28  29
ENDBRANCH  10  28
TORSDOF 6
ENDMDL
MODEL 7
REMARK VINA RESULT:      -9.1     10.616     14.280
REMARK  Name = 46937156
REMARK  6 active torsions:
REMARK  status: ('A' for Active; 'I' for Inactive)
REMARK    1  A    between atoms: C_5  and  O_22
REMARK    2  A    between atoms: C_7  and  O_24
REMARK    3  A    between atoms: C_8  and  O_26
REMARK    4  A    between atoms: C_9  and  C_12
REMARK    5  A    between atoms: C_10  and  C_28
REMARK    6  A    between atoms: C_28  and  O_29
REMARK                            x       y       z     vdW  Elec       q    Type
REMARK                         _______ _______ _______ _____ _____    ______ ____
ROOT
ATOM      1  O   UNL     1      32.664 -13.785 -24.808  0.00  0.00    -0.328 OA
ATOM      2  O   UNL     1      34.548 -12.576 -24.005  0.00  0.00    -0.260 OA
ATOM      3  N   UNL     1      34.241 -11.142 -24.007  0.00  0.00    -0.184 NA
ATOM      4  C   UNL     1      33.362 -13.304 -23.649  0.00  0.00    +0.234 C 
ATOM      5  C   UNL     1      33.708 -14.485 -22.734  0.00  0.00    +0.193 C 
ATOM      6  C   UNL     1      32.479 -12.275 -22.964  0.00  0.00    +0.083 C 
ATOM      7  C   UNL     1      34.514 -15.545 -23.485  0.00  0.00    +0.171 C 
ATOM      8  C   UNL     1      33.810 -15.939 -24.785  0.00  0.00    +0.169 C 
ATOM      9  C   UNL     1      32.797 -11.030 -23.768  0.00  0.00    +0.107 C 
ATOM     10  C   UNL     1      33.429 -14.699 -25.600  0.00  0.00    +0.176 C 
ATOM     11  H   UNL     1      34.482 -10.730 -24.908  0.00  0.00    +0.155 HD
ENDROOT
BRANCH   9  12
ATOM     12  C   UNL     1      32.406  -9.743 -23.082  0.00  0.00    -0.006 C 
ATOM     13  C   UNL     1      32.067  -8.623 -23.843  0.00  0.00    -0.003 C 
ATOM     14  C   UNL     1      32.386  -9.674 -21.692  0.00  0.00    -0.003 C 
ATOM     15  C   UNL     1      31.701  -7.419 -23.220  0.00  0.00    -0.000 C 
ATOM     16  C   UNL     1      32.027  -8.485 -21.057  0.00  0.00    -0.000 C 
ATOM     17  C   UNL     1      31.681  -7.349 -21.806  0.00  0.00    -0.000 C 
ATOM     18  C   UNL     1      31.357  -6.283 -23.969  0.00  0.00    -0.000 C 
ATOM     19  C   UNL     1      31.317  -6.143 -21.184  0.00  0.00    -0.000 C 
ATOM     20  C   UNL     1      30.997  -5.093 -23.334  0.00  0.00    -0.000 C 
ATOM     21  C   UNL     1      30.977  -5.024 -21.944  0.00  0.00    -0.000 C 
ENDBRANCH   9  12
BRANCH   5  22
ATOM     22  O   UNL     1      34.457 -14.031 -21.611  0.00  0.00    -0.378 OA
ATOM     23  H   UNL     1      35.374 -13.861 -21.881  0.00  0.00    +0.211 HD
ENDBRANCH   5  22
BRANCH   7  24
ATOM     24  O   UNL     1      34.628 -16.698 -22.648  0.00  0.00    -0.379 OA
ATOM     25  H   UNL     1      35.121 -16.466 -21.845  0.00  0.00    +0.211 HD
ENDBRANCH   7  24
BRANCH   8  26
ATOM     26  O   UNL     1      34.693 -16.771 -25.530  0.00  0.00    -0.379 OA
ATOM     27  H   UNL     1      34.178 -17.362 -26.101  0.00  0.00    +0.211 HD
ENDBRANCH   8  26
BRANCH  10  28
ATOM     28  C   UNL     1      32.579 -15.051 -26.817  0.00  0.00    +0.169 C 
BRANCH  28  29
ATOM     29  O   UNL     1      32.222 -16.419 -26.738  0.00  0.00    -0.379 OA
ATOM     30  H   UNL     1      32.006 -16.643 -25.819  0.00  0.00    +0.211 HD
ENDBRANCH  28  29
ENDBRANCH  10  28
TORSDOF 6
ENDMDL
MODEL 8
REMARK VINA RESULT:      -9.1      4.562      5.453
REMARK  Name = 46937156
REMARK  6 active torsions:
REMARK  status: ('A' for Active; 'I' for Inactive)
REMARK    1  A    between atoms: C_5  and  O_22
REMARK    2  A    between atoms: C_7  and  O_24
REMARK    3  A    between atoms: C_8  and  O_26
REMARK    4  A    between atoms: C_9  and  C_12
REMARK    5  A    between atoms: C_10  and  C_28
REMARK    6  A    between atoms: C_28  and  O_29
REMARK                            x       y       z     vdW  Elec       q    Type
REMARK                         _______ _______ _______ _____ _____    ______ ____
ROOT
ATOM      1  O   UNL     1      36.149 -25.491 -14.354  0.00  0.00    -0.328 OA
ATOM      2  O   UNL     1      35.928 -23.177 -14.853  0.00  0.00    -0.260 OA
ATOM      3  N   UNL     1      34.640 -22.943 -15.513  0.00  0.00    -0.184 NA
ATOM      4  C   UNL     1      35.762 -24.201 -13.859  0.00  0.00    +0.234 C 
ATOM      5  C   UNL     1      36.576 -23.870 -12.602  0.00  0.00    +0.193 C 
ATOM      6  C   UNL     1      34.266 -24.230 -13.594  0.00  0.00    +0.083 C 
ATOM      7  C   UNL     1      38.076 -23.945 -12.882  0.00  0.00    +0.171 C 
ATOM      8  C   UNL     1      38.438 -25.281 -13.534  0.00  0.00    +0.169 C 
ATOM      9  C   UNL     1      33.716 -23.950 -14.978  0.00  0.00    +0.107 C 
ATOM     10  C   UNL     1      37.528 -25.571 -14.732  0.00  0.00    +0.176 C 
ATOM     11  H   UNL     1      34.736 -23.053 -16.522  0.00  0.00    +0.155 HD
ENDROOT
BRANCH   9  12
ATOM     12  C   UNL     1      32.275 -23.498 -14.983  0.00  0.00    -0.006 C 
ATOM     13  C   UNL     1      31.473 -23.738 -16.099  0.00  0.00    -0.003 C 
ATOM     14  C   UNL     1      31.750 -22.838 -13.875  0.00  0.00    -0.003 C 
ATOM     15  C   UNL     1      30.131 -23.322 -16.119  0.00  0.00    -0.000 C 
ATOM     16  C   UNL     1      30.420 -22.418 -13.879  0.00  0.00    -0.000 C 
ATOM     17  C   UNL     1      29.597 -22.652 -14.992  0.00  0.00    -0.000 C 
ATOM     18  C   UNL     1      29.309 -23.556 -17.233  0.00  0.00    -0.000 C 
ATOM     19  C   UNL     1      28.256 -22.236 -15.014  0.00  0.00    -0.000 C 
ATOM     20  C   UNL     1      27.979 -23.135 -17.237  0.00  0.00    -0.000 C 
ATOM     21  C   UNL     1      27.453 -22.477 -16.129  0.00  0.00    -0.000 C 
ENDBRANCH   9  12
BRANCH   5  22
ATOM     22  O   UNL     1      36.248 -22.564 -12.136  0.00  0.00    -0.378 OA
ATOM     23  H   UNL     1      35.630 -22.632 -11.391  0.00  0.00    +0.211 HD
ENDBRANCH   5  22
BRANCH   7  24
ATOM     24  O   UNL     1      38.771 -23.830 -11.639  0.00  0.00    -0.379 OA
ATOM     25  H   UNL     1      39.728 -23.819 -11.803  0.00  0.00    +0.211 HD
ENDBRANCH   7  24
BRANCH   8  26
ATOM     26  O   UNL     1      39.799 -25.214 -13.950  0.00  0.00    -0.379 OA
ATOM     27  H   UNL     1      40.295 -25.946 -13.552  0.00  0.00    +0.211 HD
ENDBRANCH   8  26
BRANCH  10  28
ATOM     28  C   UNL     1      37.753 -26.969 -15.299  0.00  0.00    +0.169 C 
BRANCH  28  29
ATOM     29  O   UNL     1      36.757 -27.227 -16.272  0.00  0.00    -0.379 OA
ATOM     30  H   UNL     1      36.961 -28.057 -16.730  0.00  0.00    +0.211 HD
ENDBRANCH  28  29
ENDBRANCH  10  28
TORSDOF 6
ENDMDL
MODEL 9
REMARK VINA RESULT:      -8.8      7.740     11.860
REMARK  Name = 46937156
REMARK  6 active torsions:
REMARK  status: ('A' for Active; 'I' for Inactive)
REMARK    1  A    between atoms: C_5  and  O_22
REMARK    2  A    between atoms: C_7  and  O_24
REMARK    3  A    between atoms: C_8  and  O_26
REMARK    4  A    between atoms: C_9  and  C_12
REMARK    5  A    between atoms: C_10  and  C_28
REMARK    6  A    between atoms: C_28  and  O_29
REMARK                            x       y       z     vdW  Elec       q    Type
REMARK                         _______ _______ _______ _____ _____    ______ ____
ROOT
ATOM      1  O   UNL     1      33.128 -14.140 -23.357  0.00  0.00    -0.328 OA
ATOM      2  O   UNL     1      35.194 -15.277 -23.664  0.00  0.00    -0.260 OA
ATOM      3  N   UNL     1      35.438 -16.159 -22.519  0.00  0.00    -0.184 NA
ATOM      4  C   UNL     1      33.787 -15.268 -23.952  0.00  0.00    +0.234 C 
ATOM      5  C   UNL     1      33.545 -15.261 -25.467  0.00  0.00    +0.193 C 
ATOM      6  C   UNL     1      33.258 -16.526 -23.284  0.00  0.00    +0.083 C 
ATOM      7  C   UNL     1      34.001 -13.942 -26.090  0.00  0.00    +0.171 C 
ATOM      8  C   UNL     1      33.388 -12.753 -25.347  0.00  0.00    +0.169 C 
ATOM      9  C   UNL     1      34.118 -16.583 -22.038  0.00  0.00    +0.107 C 
ATOM     10  C   UNL     1      33.606 -12.879 -23.836  0.00  0.00    +0.176 C 
ATOM     11  H   UNL     1      35.936 -15.654 -21.785  0.00  0.00    +0.155 HD
ENDROOT
BRANCH   9  12
ATOM     12  C   UNL     1      34.136 -17.936 -21.368  0.00  0.00    -0.006 C 
ATOM     13  C   UNL     1      35.352 -18.528 -21.025  0.00  0.00    -0.003 C 
ATOM     14  C   UNL     1      32.939 -18.593 -21.096  0.00  0.00    -0.003 C 
ATOM     15  C   UNL     1      35.384 -19.787 -20.402  0.00  0.00    -0.000 C 
ATOM     16  C   UNL     1      32.953 -19.844 -20.479  0.00  0.00    -0.000 C 
ATOM     17  C   UNL     1      34.167 -20.454 -20.125  0.00  0.00    -0.000 C 
ATOM     18  C   UNL     1      36.598 -20.397 -20.049  0.00  0.00    -0.000 C 
ATOM     19  C   UNL     1      34.201 -21.713 -19.504  0.00  0.00    -0.000 C 
ATOM     20  C   UNL     1      36.613 -21.649 -19.432  0.00  0.00    -0.000 C 
ATOM     21  C   UNL     1      35.417 -22.305 -19.159  0.00  0.00    -0.000 C 
ENDBRANCH   9  12
BRANCH   5  22
ATOM     22  O   UNL     1      34.246 -16.339 -26.079  0.00  0.00    -0.378 OA
ATOM     23  H   UNL     1      34.542 -16.072 -26.964  0.00  0.00    +0.211 HD
ENDBRANCH   5  22
BRANCH   7  24
ATOM     24  O   UNL     1      33.568 -13.915 -27.451  0.00  0.00    -0.379 OA
ATOM     25  H   UNL     1      34.147 -14.482 -27.986  0.00  0.00    +0.211 HD
ENDBRANCH   7  24
BRANCH   8  26
ATOM     26  O   UNL     1      33.999 -11.564 -25.839  0.00  0.00    -0.379 OA
ATOM     27  H   UNL     1      33.543 -11.275 -26.646  0.00  0.00    +0.211 HD
ENDBRANCH   8  26
BRANCH  10  28
ATOM     28  C   UNL     1      32.863 -11.797 -23.057  0.00  0.00    +0.169 C 
BRANCH  28  29
ATOM     29  O   UNL     1      31.624 -12.325 -22.622  0.00  0.00    -0.379 OA
ATOM     30  H   UNL     1      31.023 -12.405 -23.380  0.00  0.00    +0.211 HD
ENDBRANCH  28  29
ENDBRANCH  10  28
TORSDOF 6
ENDMDL
