MODEL 1
REMARK VINA RESULT:      -7.5      0.000      0.000
REMARK  Name = 19254
REMARK  2 active torsions:
REMARK  status: ('A' for Active; 'I' for Inactive)
REMARK    1  A    between atoms: C_6  and  C_18
REMARK    2  A    between atoms: C_6  and  C_20
REMARK                            x       y       z     vdW  Elec       q    Type
REMARK                         _______ _______ _______ _____ _____    ______ ____
ROOT
ATOM      1  O   UNL     1      36.373 -22.526 -12.860  0.00  0.00    -0.274 OA
ATOM      2  O   UNL     1      35.642 -26.161 -15.916  0.00  0.00    -0.274 OA
ATOM      3  O   UNL     1      37.570 -26.823 -11.813  0.00  0.00    -0.252 OA
ATOM      4  N   UNL     1      36.955 -24.683 -12.369  0.00  0.00    -0.239 N 
ATOM      5  N   UNL     1      36.600 -26.456 -13.860  0.00  0.00    -0.239 N 
ATOM      6  C   UNL     1      35.878 -24.199 -14.529  0.00  0.00    +0.153 C 
ATOM      7  C   UNL     1      36.419 -23.711 -13.196  0.00  0.00    +0.240 C 
ATOM      8  C   UNL     1      36.024 -25.678 -14.849  0.00  0.00    +0.240 C 
ATOM      9  C   UNL     1      37.074 -26.041 -12.625  0.00  0.00    +0.312 C 
ATOM     10  H   UNL     1      37.290 -24.374 -11.496  0.00  0.00    +0.159 HD
ATOM     11  H   UNL     1      36.682 -27.417 -14.056  0.00  0.00    +0.159 HD
ENDROOT
BRANCH   6  18
ATOM     12  C   UNL     1      32.253 -23.111 -15.612  0.00  0.00    +0.004 C 
ATOM     13  C   UNL     1      32.140 -23.999 -13.442  0.00  0.00    +0.021 C 
ATOM     14  C   UNL     1      31.859 -22.693 -14.194  0.00  0.00    +0.005 C 
ATOM     15  C   UNL     1      31.566 -24.485 -15.756  0.00  0.00    +0.001 C 
ATOM     16  C   UNL     1      31.419 -25.026 -14.322  0.00  0.00    +0.004 C 
ATOM     17  C   UNL     1      33.795 -23.230 -15.686  0.00  0.00    +0.023 C 
ATOM     18  C   UNL     1      34.400 -23.931 -14.486  0.00  0.00    -0.033 C 
ATOM     19  C   UNL     1      33.623 -24.290 -13.446  0.00  0.00    -0.034 C 
ENDBRANCH   6  18
BRANCH   6  20
ATOM     20  C   UNL     1      36.548 -23.395 -15.653  0.00  0.00    +0.021 C 
ATOM     21  C   UNL     1      38.054 -23.508 -15.576  0.00  0.00    +0.001 C 
ENDBRANCH   6  20
TORSDOF 2
ENDMDL
MODEL 2
REMARK VINA RESULT:      -7.4      9.049     10.251
REMARK  Name = 19254
REMARK  2 active torsions:
REMARK  status: ('A' for Active; 'I' for Inactive)
REMARK    1  A    between atoms: C_6  and  C_18
REMARK    2  A    between atoms: C_6  and  C_20
REMARK                            x       y       z     vdW  Elec       q    Type
REMARK                         _______ _______ _______ _____ _____    ______ ____
ROOT
ATOM      1  O   UNL     1      37.226 -18.074 -22.618  0.00  0.00    -0.274 OA
ATOM      2  O   UNL     1      32.754 -19.302 -21.360  0.00  0.00    -0.274 OA
ATOM      3  O   UNL     1      36.410 -20.931 -19.131  0.00  0.00    -0.252 OA
ATOM      4  N   UNL     1      36.782 -19.494 -20.881  0.00  0.00    -0.239 N 
ATOM      5  N   UNL     1      34.601 -20.095 -20.269  0.00  0.00    -0.239 N 
ATOM      6  C   UNL     1      34.902 -18.522 -22.139  0.00  0.00    +0.153 C 
ATOM      7  C   UNL     1      36.399 -18.666 -21.922  0.00  0.00    +0.240 C 
ATOM      8  C   UNL     1      33.980 -19.332 -21.242  0.00  0.00    +0.240 C 
ATOM      9  C   UNL     1      35.961 -20.221 -20.031  0.00  0.00    +0.312 C 
ATOM     10  H   UNL     1      37.750 -19.576 -20.725  0.00  0.00    +0.159 HD
ATOM     11  H   UNL     1      34.007 -20.609 -19.675  0.00  0.00    +0.159 HD
ENDROOT
BRANCH   6  18
ATOM     12  C   UNL     1      33.703 -14.802 -22.612  0.00  0.00    +0.004 C 
ATOM     13  C   UNL     1      34.391 -15.078 -20.385  0.00  0.00    +0.021 C 
ATOM     14  C   UNL     1      34.736 -14.250 -21.627  0.00  0.00    +0.005 C 
ATOM     15  C   UNL     1      32.410 -14.803 -21.770  0.00  0.00    +0.001 C 
ATOM     16  C   UNL     1      32.870 -14.901 -20.305  0.00  0.00    +0.004 C 
ATOM     17  C   UNL     1      34.120 -16.236 -23.022  0.00  0.00    +0.023 C 
ATOM     18  C   UNL     1      34.592 -17.080 -21.854  0.00  0.00    -0.033 C 
ATOM     19  C   UNL     1      34.712 -16.535 -20.628  0.00  0.00    -0.034 C 
ENDBRANCH   6  18
BRANCH   6  20
ATOM     20  C   UNL     1      34.583 -18.873 -23.599  0.00  0.00    +0.021 C 
ATOM     21  C   UNL     1      35.259 -20.163 -24.006  0.00  0.00    +0.001 C 
ENDBRANCH   6  20
TORSDOF 2
ENDMDL
MODEL 3
REMARK VINA RESULT:      -7.0      1.751      2.804
REMARK  Name = 19254
REMARK  2 active torsions:
REMARK  status: ('A' for Active; 'I' for Inactive)
REMARK    1  A    between atoms: C_6  and  C_18
REMARK    2  A    between atoms: C_6  and  C_20
REMARK                            x       y       z     vdW  Elec       q    Type
REMARK                         _______ _______ _______ _____ _____    ______ ____
ROOT
ATOM      1  O   UNL     1      36.495 -25.959 -11.707  0.00  0.00    -0.274 OA
ATOM      2  O   UNL     1      37.434 -22.640 -15.053  0.00  0.00    -0.274 OA
ATOM      3  O   UNL     1      39.662 -26.643 -14.946  0.00  0.00    -0.252 OA
ATOM      4  N   UNL     1      38.066 -26.268 -13.340  0.00  0.00    -0.239 N 
ATOM      5  N   UNL     1      38.526 -24.649 -14.971  0.00  0.00    -0.239 N 
ATOM      6  C   UNL     1      36.774 -24.173 -13.307  0.00  0.00    +0.153 C 
ATOM      7  C   UNL     1      37.086 -25.530 -12.700  0.00  0.00    +0.240 C 
ATOM      8  C   UNL     1      37.595 -23.735 -14.510  0.00  0.00    +0.240 C 
ATOM      9  C   UNL     1      38.808 -25.904 -14.454  0.00  0.00    +0.312 C 
ATOM     10  H   UNL     1      38.258 -27.156 -12.961  0.00  0.00    +0.159 HD
ATOM     11  H   UNL     1      39.048 -24.377 -15.759  0.00  0.00    +0.159 HD
ENDROOT
BRANCH   6  18
ATOM     12  C   UNL     1      32.863 -23.764 -13.482  0.00  0.00    +0.004 C 
ATOM     13  C   UNL     1      33.580 -24.845 -15.438  0.00  0.00    +0.021 C 
ATOM     14  C   UNL     1      32.669 -25.085 -14.229  0.00  0.00    +0.005 C 
ATOM     15  C   UNL     1      32.728 -22.722 -14.611  0.00  0.00    +0.001 C 
ATOM     16  C   UNL     1      33.120 -23.459 -15.905  0.00  0.00    +0.004 C 
ATOM     17  C   UNL     1      34.278 -23.749 -12.854  0.00  0.00    +0.023 C 
ATOM     18  C   UNL     1      35.354 -24.264 -13.789  0.00  0.00    -0.033 C 
ATOM     19  C   UNL     1      35.022 -24.769 -14.993  0.00  0.00    -0.034 C 
ENDBRANCH   6  18
BRANCH   6  20
ATOM     20  C   UNL     1      36.914 -23.104 -12.214  0.00  0.00    +0.021 C 
ATOM     21  C   UNL     1      38.348 -22.992 -11.746  0.00  0.00    +0.001 C 
ENDBRANCH   6  20
TORSDOF 2
ENDMDL
MODEL 4
REMARK VINA RESULT:      -6.7     16.694     18.318
REMARK  Name = 19254
REMARK  2 active torsions:
REMARK  status: ('A' for Active; 'I' for Inactive)
REMARK    1  A    between atoms: C_6  and  C_18
REMARK    2  A    between atoms: C_6  and  C_20
REMARK                            x       y       z     vdW  Elec       q    Type
REMARK                         _______ _______ _______ _____ _____    ______ ____
ROOT
ATOM      1  O   UNL     1      31.575  -8.301 -24.148  0.00  0.00    -0.274 OA
ATOM      2  O   UNL     1      33.127  -7.113 -19.758  0.00  0.00    -0.274 OA
ATOM      3  O   UNL     1      30.166  -4.477 -22.056  0.00  0.00    -0.252 OA
ATOM      4  N   UNL     1      30.890  -6.402 -23.073  0.00  0.00    -0.239 N 
ATOM      5  N   UNL     1      31.648  -5.821 -20.933  0.00  0.00    -0.239 N 
ATOM      6  C   UNL     1      32.454  -7.923 -21.932  0.00  0.00    +0.153 C 
ATOM      7  C   UNL     1      31.617  -7.577 -23.152  0.00  0.00    +0.240 C 
ATOM      8  C   UNL     1      32.457  -6.933 -20.778  0.00  0.00    +0.240 C 
ATOM      9  C   UNL     1      30.853  -5.498 -22.022  0.00  0.00    +0.312 C 
ATOM     10  H   UNL     1      30.332  -6.184 -23.854  0.00  0.00    +0.159 HD
ATOM     11  H   UNL     1      31.634  -5.186 -20.181  0.00  0.00    +0.159 HD
ENDROOT
BRANCH   6  18
ATOM     12  C   UNL     1      30.808 -11.494 -21.751  0.00  0.00    +0.004 C 
ATOM     13  C   UNL     1      31.241 -10.769 -19.560  0.00  0.00    +0.021 C 
ATOM     14  C   UNL     1      30.064 -11.183 -20.450  0.00  0.00    +0.005 C 
ATOM     15  C   UNL     1      31.999 -12.340 -21.256  0.00  0.00    +0.001 C 
ATOM     16  C   UNL     1      32.226 -11.920 -19.792  0.00  0.00    +0.004 C 
ATOM     17  C   UNL     1      31.276 -10.163 -22.389  0.00  0.00    +0.023 C 
ATOM     18  C   UNL     1      31.864  -9.191 -21.385  0.00  0.00    -0.033 C 
ATOM     19  C   UNL     1      31.848  -9.481 -20.070  0.00  0.00    -0.034 C 
ENDBRANCH   6  18
BRANCH   6  20
ATOM     20  C   UNL     1      33.906  -8.144 -22.380  0.00  0.00    +0.021 C 
ATOM     21  C   UNL     1      34.299  -7.151 -23.452  0.00  0.00    +0.001 C 
ENDBRANCH   6  20
TORSDOF 2
ENDMDL
MODEL 5
REMARK VINA RESULT:      -6.1      1.321      2.020
REMARK  Name = 19254
REMARK  2 active torsions:
REMARK  status: ('A' for Active; 'I' for Inactive)
REMARK    1  A    between atoms: C_6  and  C_18
REMARK    2  A    between atoms: C_6  and  C_20
REMARK                            x       y       z     vdW  Elec       q    Type
REMARK                         _______ _______ _______ _____ _____    ______ ____
ROOT
ATOM      1  O   UNL     1      34.752 -23.469 -12.070  0.00  0.00    -0.274 OA
ATOM      2  O   UNL     1      35.221 -24.685 -16.695  0.00  0.00    -0.274 OA
ATOM      3  O   UNL     1      37.141 -27.162 -13.354  0.00  0.00    -0.252 OA
ATOM      4  N   UNL     1      35.934 -25.307 -12.746  0.00  0.00    -0.239 N 
ATOM      5  N   UNL     1      36.165 -25.899 -15.002  0.00  0.00    -0.239 N 
ATOM      6  C   UNL     1      34.824 -23.911 -14.442  0.00  0.00    +0.153 C 
ATOM      7  C   UNL     1      35.157 -24.187 -12.987  0.00  0.00    +0.240 C 
ATOM      8  C   UNL     1      35.412 -24.844 -15.488  0.00  0.00    +0.240 C 
ATOM      9  C   UNL     1      36.459 -26.189 -13.679  0.00  0.00    +0.312 C 
ATOM     10  H   UNL     1      36.137 -25.500 -11.803  0.00  0.00    +0.159 HD
ATOM     11  H   UNL     1      36.534 -26.516 -15.674  0.00  0.00    +0.159 HD
ENDROOT
BRANCH   6  18
ATOM     12  C   UNL     1      31.135 -25.093 -13.741  0.00  0.00    +0.004 C 
ATOM     13  C   UNL     1      31.084 -23.499 -15.463  0.00  0.00    +0.021 C 
ATOM     14  C   UNL     1      30.721 -24.966 -15.208  0.00  0.00    +0.005 C 
ATOM     15  C   UNL     1      30.533 -23.818 -13.115  0.00  0.00    +0.001 C 
ATOM     16  C   UNL     1      30.425 -22.803 -14.267  0.00  0.00    +0.004 C 
ATOM     17  C   UNL     1      32.681 -25.098 -13.657  0.00  0.00    +0.023 C 
ATOM     18  C   UNL     1      33.333 -24.060 -14.549  0.00  0.00    -0.033 C 
ATOM     19  C   UNL     1      32.583 -23.316 -15.385  0.00  0.00    -0.034 C 
ENDBRANCH   6  18
BRANCH   6  20
ATOM     20  C   UNL     1      35.256 -22.477 -14.780  0.00  0.00    +0.021 C 
ATOM     21  C   UNL     1      36.744 -22.407 -15.044  0.00  0.00    +0.001 C 
ENDBRANCH   6  20
TORSDOF 2
ENDMDL
MODEL 6
REMARK VINA RESULT:      -5.5     18.231     19.725
REMARK  Name = 19254
REMARK  2 active torsions:
REMARK  status: ('A' for Active; 'I' for Inactive)
REMARK    1  A    between atoms: C_6  and  C_18
REMARK    2  A    between atoms: C_6  and  C_20
REMARK                            x       y       z     vdW  Elec       q    Type
REMARK                         _______ _______ _______ _____ _____    ______ ____
ROOT
ATOM      1  O   UNL     1      30.994  -9.303 -22.507  0.00  0.00    -0.274 OA
ATOM      2  O   UNL     1      35.250  -7.171 -23.167  0.00  0.00    -0.274 OA
ATOM      3  O   UNL     1      34.338 -11.308 -24.914  0.00  0.00    -0.252 OA
ATOM      4  N   UNL     1      32.684 -10.273 -23.705  0.00  0.00    -0.239 N 
ATOM      5  N   UNL     1      34.760  -9.234 -24.025  0.00  0.00    -0.239 N 
ATOM      6  C   UNL     1      33.034  -8.034 -22.743  0.00  0.00    +0.153 C 
ATOM      7  C   UNL     1      32.140  -9.243 -22.957  0.00  0.00    +0.240 C 
ATOM      8  C   UNL     1      34.442  -8.091 -23.314  0.00  0.00    +0.240 C 
ATOM      9  C   UNL     1      33.953 -10.337 -24.260  0.00  0.00    +0.312 C 
ATOM     10  H   UNL     1      32.101 -11.050 -23.862  0.00  0.00    +0.159 HD
ATOM     11  H   UNL     1      35.665  -9.269 -24.411  0.00  0.00    +0.159 HD
ENDROOT
BRANCH   6  18
ATOM     12  C   UNL     1      30.867  -4.812 -23.387  0.00  0.00    +0.004 C 
ATOM     13  C   UNL     1      31.823  -5.478 -25.425  0.00  0.00    +0.021 C 
ATOM     14  C   UNL     1      30.446  -5.267 -24.786  0.00  0.00    +0.005 C 
ATOM     15  C   UNL     1      31.967  -3.776 -23.693  0.00  0.00    +0.001 C 
ATOM     16  C   UNL     1      32.536  -4.168 -25.069  0.00  0.00    +0.004 C 
ATOM     17  C   UNL     1      31.426  -6.031 -22.613  0.00  0.00    +0.023 C 
ATOM     18  C   UNL     1      32.350  -6.897 -23.446  0.00  0.00    -0.033 C 
ATOM     19  C   UNL     1      32.534  -6.632 -24.754  0.00  0.00    -0.034 C 
ENDBRANCH   6  18
BRANCH   6  20
ATOM     20  C   UNL     1      33.137  -7.763 -21.235  0.00  0.00    +0.021 C 
ATOM     21  C   UNL     1      32.485  -8.871 -20.439  0.00  0.00    +0.001 C 
ENDBRANCH   6  20
TORSDOF 2
ENDMDL
MODEL 7
REMARK VINA RESULT:      -5.5     20.209     21.777
REMARK  Name = 19254
REMARK  2 active torsions:
REMARK  status: ('A' for Active; 'I' for Inactive)
REMARK    1  A    between atoms: C_6  and  C_18
REMARK    2  A    between atoms: C_6  and  C_20
REMARK                            x       y       z     vdW  Elec       q    Type
REMARK                         _______ _______ _______ _____ _____    ______ ____
ROOT
ATOM      1  O   UNL     1      33.671  -6.803 -24.047  0.00  0.00    -0.274 OA
ATOM      2  O   UNL     1      29.485  -5.560 -22.042  0.00  0.00    -0.274 OA
ATOM      3  O   UNL     1      33.081  -6.832 -19.504  0.00  0.00    -0.252 OA
ATOM      4  N   UNL     1      33.343  -6.803 -21.784  0.00  0.00    -0.239 N 
ATOM      5  N   UNL     1      31.300  -6.199 -20.806  0.00  0.00    -0.239 N 
ATOM      6  C   UNL     1      31.499  -6.106 -23.258  0.00  0.00    +0.153 C 
ATOM      7  C   UNL     1      32.924  -6.602 -23.088  0.00  0.00    +0.240 C 
ATOM      8  C   UNL     1      30.660  -5.931 -22.003  0.00  0.00    +0.240 C 
ATOM      9  C   UNL     1      32.607  -6.624 -20.622  0.00  0.00    +0.312 C 
ATOM     10  H   UNL     1      34.272  -7.107 -21.668  0.00  0.00    +0.159 HD
ATOM     11  H   UNL     1      30.766  -6.072 -19.989  0.00  0.00    +0.159 HD
ENDROOT
BRANCH   6  18
ATOM     12  C   UNL     1      31.574  -3.198 -25.911  0.00  0.00    +0.004 C 
ATOM     13  C   UNL     1      31.879  -2.261 -23.780  0.00  0.00    +0.021 C 
ATOM     14  C   UNL     1      32.605  -2.387 -25.124  0.00  0.00    +0.005 C 
ATOM     15  C   UNL     1      30.256  -2.467 -25.581  0.00  0.00    +0.001 C 
ATOM     16  C   UNL     1      30.490  -1.786 -24.220  0.00  0.00    +0.004 C 
ATOM     17  C   UNL     1      31.572  -4.652 -25.379  0.00  0.00    +0.023 C 
ATOM     18  C   UNL     1      31.619  -4.737 -23.867  0.00  0.00    -0.033 C 
ATOM     19  C   UNL     1      31.758  -3.620 -23.128  0.00  0.00    -0.034 C 
ENDBRANCH   6  18
BRANCH   6  20
ATOM     20  C   UNL     1      30.757  -7.062 -24.204  0.00  0.00    +0.021 C 
ATOM     21  C   UNL     1      30.764  -8.474 -23.661  0.00  0.00    +0.001 C 
ENDBRANCH   6  20
TORSDOF 2
ENDMDL
MODEL 8
REMARK VINA RESULT:      -5.1      2.125      3.749
REMARK  Name = 19254
REMARK  2 active torsions:
REMARK  status: ('A' for Active; 'I' for Inactive)
REMARK    1  A    between atoms: C_6  and  C_18
REMARK    2  A    between atoms: C_6  and  C_20
REMARK                            x       y       z     vdW  Elec       q    Type
REMARK                         _______ _______ _______ _____ _____    ______ ____
ROOT
ATOM      1  O   UNL     1      36.468 -27.104 -14.787  0.00  0.00    -0.274 OA
ATOM      2  O   UNL     1      38.580 -23.612 -12.250  0.00  0.00    -0.274 OA
ATOM      3  O   UNL     1      41.017 -26.556 -14.777  0.00  0.00    -0.252 OA
ATOM      4  N   UNL     1      38.735 -26.800 -14.762  0.00  0.00    -0.239 N 
ATOM      5  N   UNL     1      39.765 -25.098 -13.523  0.00  0.00    -0.239 N 
ATOM      6  C   UNL     1      37.309 -25.262 -13.472  0.00  0.00    +0.153 C 
ATOM      7  C   UNL     1      37.445 -26.467 -14.387  0.00  0.00    +0.240 C 
ATOM      8  C   UNL     1      38.588 -24.579 -13.015  0.00  0.00    +0.240 C 
ATOM      9  C   UNL     1      39.914 -26.176 -14.382  0.00  0.00    +0.312 C 
ATOM     10  H   UNL     1      38.826 -27.568 -15.370  0.00  0.00    +0.159 HD
ATOM     11  H   UNL     1      40.595 -24.649 -13.243  0.00  0.00    +0.159 HD
ENDROOT
BRANCH   6  18
ATOM     12  C   UNL     1      36.375 -22.678 -16.291  0.00  0.00    +0.004 C 
ATOM     13  C   UNL     1      34.575 -22.816 -14.790  0.00  0.00    +0.021 C 
ATOM     14  C   UNL     1      35.575 -21.790 -15.336  0.00  0.00    +0.005 C 
ATOM     15  C   UNL     1      35.265 -23.447 -17.036  0.00  0.00    +0.001 C 
ATOM     16  C   UNL     1      34.059 -23.463 -16.081  0.00  0.00    +0.004 C 
ATOM     17  C   UNL     1      37.270 -23.628 -15.458  0.00  0.00    +0.023 C 
ATOM     18  C   UNL     1      36.555 -24.235 -14.268  0.00  0.00    -0.033 C 
ATOM     19  C   UNL     1      35.298 -23.856 -13.965  0.00  0.00    -0.034 C 
ENDBRANCH   6  18
BRANCH   6  20
ATOM     20  C   UNL     1      36.515 -25.681 -12.226  0.00  0.00    +0.021 C 
ATOM     21  C   UNL     1      36.155 -24.478 -11.383  0.00  0.00    +0.001 C 
ENDBRANCH   6  20
TORSDOF 2
ENDMDL
MODEL 9
REMARK VINA RESULT:      -5.1     17.958     19.372
REMARK  Name = 19254
REMARK  2 active torsions:
REMARK  status: ('A' for Active; 'I' for Inactive)
REMARK    1  A    between atoms: C_6  and  C_18
REMARK    2  A    between atoms: C_6  and  C_20
REMARK                            x       y       z     vdW  Elec       q    Type
REMARK                         _______ _______ _______ _____ _____    ______ ____
ROOT
ATOM      1  O   UNL     1      33.562  -6.991 -20.682  0.00  0.00    -0.274 OA
ATOM      2  O   UNL     1      32.501  -9.617 -24.564  0.00  0.00    -0.274 OA
ATOM      3  O   UNL     1      31.095 -10.840 -20.378  0.00  0.00    -0.252 OA
ATOM      4  N   UNL     1      32.331  -8.915 -20.567  0.00  0.00    -0.239 N 
ATOM      5  N   UNL     1      31.815 -10.197 -22.460  0.00  0.00    -0.239 N 
ATOM      6  C   UNL     1      33.117  -8.129 -22.764  0.00  0.00    +0.153 C 
ATOM      7  C   UNL     1      33.040  -7.947 -21.258  0.00  0.00    +0.240 C 
ATOM      8  C   UNL     1      32.466  -9.369 -23.357  0.00  0.00    +0.240 C 
ATOM      9  C   UNL     1      31.704 -10.037 -21.088  0.00  0.00    +0.312 C 
ATOM     10  H   UNL     1      32.262  -8.790 -19.594  0.00  0.00    +0.159 HD
ATOM     11  H   UNL     1      31.378 -10.992 -22.842  0.00  0.00    +0.159 HD
ENDROOT
BRANCH   6  18
ATOM     12  C   UNL     1      30.409  -5.327 -23.322  0.00  0.00    +0.004 C 
ATOM     13  C   UNL     1      32.102  -5.047 -24.924  0.00  0.00    +0.021 C 
ATOM     14  C   UNL     1      30.597  -5.324 -24.841  0.00  0.00    +0.005 C 
ATOM     15  C   UNL     1      31.193  -4.072 -22.888  0.00  0.00    +0.001 C 
ATOM     16  C   UNL     1      32.249  -3.844 -23.985  0.00  0.00    +0.004 C 
ATOM     17  C   UNL     1      31.033  -6.621 -22.745  0.00  0.00    +0.023 C 
ATOM     18  C   UNL     1      32.382  -6.957 -23.350  0.00  0.00    -0.033 C 
ATOM     19  C   UNL     1      32.876  -6.217 -24.361  0.00  0.00    -0.034 C 
ENDBRANCH   6  18
BRANCH   6  20
ATOM     20  C   UNL     1      34.594  -8.114 -23.184  0.00  0.00    +0.021 C 
ATOM     21  C   UNL     1      34.916  -9.292 -24.077  0.00  0.00    +0.001 C 
ENDBRANCH   6  20
TORSDOF 2
ENDMDL
