MODEL 1
REMARK VINA RESULT:      -8.0      0.000      0.000
REMARK  Name = 10400412
REMARK  8 active torsions:
REMARK  status: ('A' for Active; 'I' for Inactive)
REMARK    1  A    between atoms: C_1  and  C_10
REMARK    2  A    between atoms: C_2  and  C_12
REMARK    3  A    between atoms: N_11  and  C_12
REMARK    4  A    between atoms: N_11  and  O_13
REMARK    5  A    between atoms: O_13  and  C_14
REMARK    6  A    between atoms: C_14  and  C_15
REMARK    7  A    between atoms: C_15  and  C_17
REMARK    8  A    between atoms: C_17  and  O_18
REMARK                            x       y       z     vdW  Elec       q    Type
REMARK                         _______ _______ _______ _____ _____    ______ ____
ROOT
ATOM      1  C   UNL     1      34.980 -22.759 -16.995  0.00  0.00    +0.069 C 
ATOM      2  C   UNL     1      36.249 -22.192 -17.122  0.00  0.00    +0.002 C 
ATOM      3  C   UNL     1      34.088 -22.715 -18.066  0.00  0.00    +0.004 C 
ATOM      4  C   UNL     1      36.624 -21.582 -18.319  0.00  0.00    -0.003 C 
ATOM      5  C   UNL     1      34.463 -22.106 -19.263  0.00  0.00    -0.000 C 
ATOM      6  C   UNL     1      35.730 -21.540 -19.390  0.00  0.00    -0.000 C 
ENDROOT
BRANCH   1  10
ATOM      7  F   UNL     1      33.201 -23.570 -15.616  0.00  0.00    -0.166 F 
ATOM      8  F   UNL     1      35.067 -24.674 -15.564  0.00  0.00    -0.166 F 
ATOM      9  F   UNL     1      34.936 -22.720 -14.618  0.00  0.00    -0.166 F 
ATOM     10  C   UNL     1      34.554 -23.420 -15.725  0.00  0.00    +0.418 C 
ENDBRANCH   1  10
BRANCH   2  11
ATOM     11  C   UNL     1      37.201 -22.223 -16.020  0.00  0.00    +0.148 C 
BRANCH  11  12
ATOM     12  N   UNL     1      38.105 -23.151 -15.895  0.00  0.00    -0.079 NA
BRANCH  12  13
ATOM     13  O   UNL     1      38.141 -23.585 -14.563  0.00  0.00    -0.265 OA
BRANCH  13  14
ATOM     14  C   UNL     1      38.112 -25.004 -14.560  0.00  0.00    +0.180 C 
BRANCH  14  15
ATOM     15  C   UNL     1      39.273 -25.528 -13.732  0.00  0.00    +0.144 C 
BRANCH  15  17
ATOM     16  O   UNL     1      41.289 -26.768 -14.215  0.00  0.00    -0.250 OA
ATOM     17  C   UNL     1      40.381 -26.050 -14.612  0.00  0.00    +0.316 C 
BRANCH  17  18
ATOM     18  O   UNL     1      40.258 -25.646 -15.901  0.00  0.00    -0.480 OA
ATOM     19  H   UNL     1      40.820 -24.977 -16.239  0.00  0.00    +0.295 HD
ENDBRANCH  17  18
ENDBRANCH  15  17
ENDBRANCH  14  15
ENDBRANCH  13  14
ENDBRANCH  12  13
ENDBRANCH  11  12
ENDBRANCH   2  11
TORSDOF 8
ENDMDL
MODEL 2
REMARK VINA RESULT:      -7.9      6.777      8.594
REMARK  Name = 10400412
REMARK  8 active torsions:
REMARK  status: ('A' for Active; 'I' for Inactive)
REMARK    1  A    between atoms: C_1  and  C_10
REMARK    2  A    between atoms: C_2  and  C_12
REMARK    3  A    between atoms: N_11  and  C_12
REMARK    4  A    between atoms: N_11  and  O_13
REMARK    5  A    between atoms: O_13  and  C_14
REMARK    6  A    between atoms: C_14  and  C_15
REMARK    7  A    between atoms: C_15  and  C_17
REMARK    8  A    between atoms: C_17  and  O_18
REMARK                            x       y       z     vdW  Elec       q    Type
REMARK                         _______ _______ _______ _____ _____    ______ ____
ROOT
ATOM      1  C   UNL     1      34.757 -16.727 -23.103  0.00  0.00    +0.069 C 
ATOM      2  C   UNL     1      34.705 -17.069 -21.751  0.00  0.00    +0.002 C 
ATOM      3  C   UNL     1      34.613 -15.396 -23.492  0.00  0.00    +0.004 C 
ATOM      4  C   UNL     1      34.508 -16.078 -20.789  0.00  0.00    -0.003 C 
ATOM      5  C   UNL     1      34.416 -14.405 -22.530  0.00  0.00    -0.000 C 
ATOM      6  C   UNL     1      34.364 -14.746 -21.179  0.00  0.00    -0.000 C 
ENDROOT
BRANCH   1  10
ATOM      7  F   UNL     1      35.146 -17.251 -25.405  0.00  0.00    -0.166 F 
ATOM      8  F   UNL     1      36.063 -18.552 -23.932  0.00  0.00    -0.166 F 
ATOM      9  F   UNL     1      33.914 -18.628 -24.258  0.00  0.00    -0.166 F 
ATOM     10  C   UNL     1      34.968 -17.768 -24.154  0.00  0.00    +0.418 C 
ENDBRANCH   1  10
BRANCH   2  11
ATOM     11  C   UNL     1      34.853 -18.451 -21.317  0.00  0.00    +0.148 C 
BRANCH  11  12
ATOM     12  N   UNL     1      35.855 -18.860 -20.595  0.00  0.00    -0.079 NA
BRANCH  12  13
ATOM     13  O   UNL     1      35.515 -20.069 -19.975  0.00  0.00    -0.265 OA
BRANCH  13  14
ATOM     14  C   UNL     1      34.269 -20.500 -20.502  0.00  0.00    +0.180 C 
BRANCH  14  15
ATOM     15  C   UNL     1      33.532 -21.310 -19.450  0.00  0.00    +0.144 C 
BRANCH  15  17
ATOM     16  O   UNL     1      33.934 -23.690 -19.550  0.00  0.00    -0.250 OA
ATOM     17  C   UNL     1      34.265 -22.589 -19.131  0.00  0.00    +0.316 C 
BRANCH  17  18
ATOM     18  O   UNL     1      35.346 -22.387 -18.336  0.00  0.00    -0.480 OA
ATOM     19  H   UNL     1      36.079 -22.969 -18.384  0.00  0.00    +0.295 HD
ENDBRANCH  17  18
ENDBRANCH  15  17
ENDBRANCH  14  15
ENDBRANCH  13  14
ENDBRANCH  12  13
ENDBRANCH  11  12
ENDBRANCH   2  11
TORSDOF 8
ENDMDL
MODEL 3
REMARK VINA RESULT:      -7.8      4.821      6.229
REMARK  Name = 10400412
REMARK  8 active torsions:
REMARK  status: ('A' for Active; 'I' for Inactive)
REMARK    1  A    between atoms: C_1  and  C_10
REMARK    2  A    between atoms: C_2  and  C_12
REMARK    3  A    between atoms: N_11  and  C_12
REMARK    4  A    between atoms: N_11  and  O_13
REMARK    5  A    between atoms: O_13  and  C_14
REMARK    6  A    between atoms: C_14  and  C_15
REMARK    7  A    between atoms: C_15  and  C_17
REMARK    8  A    between atoms: C_17  and  O_18
REMARK                            x       y       z     vdW  Elec       q    Type
REMARK                         _______ _______ _______ _____ _____    ______ ____
ROOT
ATOM      1  C   UNL     1      35.267 -20.323 -20.241  0.00  0.00    +0.069 C 
ATOM      2  C   UNL     1      34.231 -21.123 -19.759  0.00  0.00    +0.002 C 
ATOM      3  C   UNL     1      34.977 -19.191 -21.001  0.00  0.00    +0.004 C 
ATOM      4  C   UNL     1      32.905 -20.790 -20.038  0.00  0.00    -0.003 C 
ATOM      5  C   UNL     1      33.652 -18.857 -21.280  0.00  0.00    -0.000 C 
ATOM      6  C   UNL     1      32.616 -19.657 -20.798  0.00  0.00    -0.000 C 
ENDROOT
BRANCH   1  10
ATOM      7  F   UNL     1      37.083 -21.866 -20.455  0.00  0.00    -0.166 F 
ATOM      8  F   UNL     1      37.579 -19.755 -20.475  0.00  0.00    -0.166 F 
ATOM      9  F   UNL     1      36.963 -20.707 -18.619  0.00  0.00    -0.166 F 
ATOM     10  C   UNL     1      36.696 -20.656 -19.955  0.00  0.00    +0.418 C 
ENDBRANCH   1  10
BRANCH   2  11
ATOM     11  C   UNL     1      34.504 -22.311 -18.962  0.00  0.00    +0.148 C 
BRANCH  11  12
ATOM     12  N   UNL     1      33.830 -23.417 -19.089  0.00  0.00    -0.079 NA
BRANCH  12  13
ATOM     13  O   UNL     1      33.809 -24.089 -17.860  0.00  0.00    -0.265 OA
BRANCH  13  14
ATOM     14  C   UNL     1      33.974 -23.128 -16.828  0.00  0.00    +0.180 C 
BRANCH  14  15
ATOM     15  C   UNL     1      32.969 -23.401 -15.723  0.00  0.00    +0.144 C 
BRANCH  15  17
ATOM     16  O   UNL     1      30.639 -24.037 -15.785  0.00  0.00    -0.250 OA
ATOM     17  C   UNL     1      31.555 -23.370 -16.247  0.00  0.00    +0.316 C 
BRANCH  17  18
ATOM     18  O   UNL     1      31.403 -22.509 -17.284  0.00  0.00    -0.480 OA
ATOM     19  H   UNL     1      30.894 -22.760 -18.030  0.00  0.00    +0.295 HD
ENDBRANCH  17  18
ENDBRANCH  15  17
ENDBRANCH  14  15
ENDBRANCH  13  14
ENDBRANCH  12  13
ENDBRANCH  11  12
ENDBRANCH   2  11
TORSDOF 8
ENDMDL
MODEL 4
REMARK VINA RESULT:      -7.8      6.423      8.135
REMARK  Name = 10400412
REMARK  8 active torsions:
REMARK  status: ('A' for Active; 'I' for Inactive)
REMARK    1  A    between atoms: C_1  and  C_10
REMARK    2  A    between atoms: C_2  and  C_12
REMARK    3  A    between atoms: N_11  and  C_12
REMARK    4  A    between atoms: N_11  and  O_13
REMARK    5  A    between atoms: O_13  and  C_14
REMARK    6  A    between atoms: C_14  and  C_15
REMARK    7  A    between atoms: C_15  and  C_17
REMARK    8  A    between atoms: C_17  and  O_18
REMARK                            x       y       z     vdW  Elec       q    Type
REMARK                         _______ _______ _______ _____ _____    ______ ____
ROOT
ATOM      1  C   UNL     1      34.487 -16.796 -22.626  0.00  0.00    +0.069 C 
ATOM      2  C   UNL     1      34.508 -18.190 -22.695  0.00  0.00    +0.002 C 
ATOM      3  C   UNL     1      34.550 -16.040 -23.795  0.00  0.00    +0.004 C 
ATOM      4  C   UNL     1      34.592 -18.825 -23.934  0.00  0.00    -0.003 C 
ATOM      5  C   UNL     1      34.634 -16.675 -25.034  0.00  0.00    -0.000 C 
ATOM      6  C   UNL     1      34.655 -18.067 -25.104  0.00  0.00    -0.000 C 
ENDROOT
BRANCH   1  10
ATOM      7  F   UNL     1      33.160 -16.168 -20.737  0.00  0.00    -0.166 F 
ATOM      8  F   UNL     1      35.259 -16.574 -20.372  0.00  0.00    -0.166 F 
ATOM      9  F   UNL     1      34.670 -14.758 -21.415  0.00  0.00    -0.166 F 
ATOM     10  C   UNL     1      34.395 -16.090 -21.312  0.00  0.00    +0.418 C 
ENDBRANCH   1  10
BRANCH   2  11
ATOM     11  C   UNL     1      34.443 -19.005 -21.490  0.00  0.00    +0.148 C 
BRANCH  11  12
ATOM     12  N   UNL     1      35.220 -20.029 -21.288  0.00  0.00    -0.079 NA
BRANCH  12  13
ATOM     13  O   UNL     1      35.567 -20.086 -19.932  0.00  0.00    -0.265 OA
BRANCH  13  14
ATOM     14  C   UNL     1      36.063 -21.388 -19.657  0.00  0.00    +0.180 C 
BRANCH  14  15
ATOM     15  C   UNL     1      35.194 -22.042 -18.598  0.00  0.00    +0.144 C 
BRANCH  15  17
ATOM     16  O   UNL     1      33.843 -23.952 -19.202  0.00  0.00    -0.250 OA
ATOM     17  C   UNL     1      34.009 -22.740 -19.217  0.00  0.00    +0.316 C 
BRANCH  17  18
ATOM     18  O   UNL     1      33.132 -21.874 -19.785  0.00  0.00    -0.480 OA
ATOM     19  H   UNL     1      32.375 -21.594 -19.310  0.00  0.00    +0.295 HD
ENDBRANCH  17  18
ENDBRANCH  15  17
ENDBRANCH  14  15
ENDBRANCH  13  14
ENDBRANCH  12  13
ENDBRANCH  11  12
ENDBRANCH   2  11
TORSDOF 8
ENDMDL
MODEL 5
REMARK VINA RESULT:      -7.6      3.519      4.786
REMARK  Name = 10400412
REMARK  8 active torsions:
REMARK  status: ('A' for Active; 'I' for Inactive)
REMARK    1  A    between atoms: C_1  and  C_10
REMARK    2  A    between atoms: C_2  and  C_12
REMARK    3  A    between atoms: N_11  and  C_12
REMARK    4  A    between atoms: N_11  and  O_13
REMARK    5  A    between atoms: O_13  and  C_14
REMARK    6  A    between atoms: C_14  and  C_15
REMARK    7  A    between atoms: C_15  and  C_17
REMARK    8  A    between atoms: C_17  and  O_18
REMARK                            x       y       z     vdW  Elec       q    Type
REMARK                         _______ _______ _______ _____ _____    ______ ____
ROOT
ATOM      1  C   UNL     1      35.307 -20.488 -20.130  0.00  0.00    +0.069 C 
ATOM      2  C   UNL     1      34.330 -21.300 -19.555  0.00  0.00    +0.002 C 
ATOM      3  C   UNL     1      34.937 -19.450 -20.985  0.00  0.00    +0.004 C 
ATOM      4  C   UNL     1      32.982 -21.074 -19.835  0.00  0.00    -0.003 C 
ATOM      5  C   UNL     1      33.589 -19.224 -21.266  0.00  0.00    -0.000 C 
ATOM      6  C   UNL     1      32.612 -20.036 -20.691  0.00  0.00    -0.000 C 
ENDROOT
BRANCH   1  10
ATOM      7  F   UNL     1      37.231 -21.898 -20.313  0.00  0.00    -0.166 F 
ATOM      8  F   UNL     1      37.570 -19.758 -20.396  0.00  0.00    -0.166 F 
ATOM      9  F   UNL     1      37.035 -20.699 -18.510  0.00  0.00    -0.166 F 
ATOM     10  C   UNL     1      36.758 -20.706 -19.845  0.00  0.00    +0.418 C 
ENDBRANCH   1  10
BRANCH   2  11
ATOM     11  C   UNL     1      34.688 -22.390 -18.658  0.00  0.00    +0.148 C 
BRANCH  11  12
ATOM     12  N   UNL     1      33.802 -23.143 -18.074  0.00  0.00    -0.079 NA
BRANCH  12  13
ATOM     13  O   UNL     1      34.382 -23.756 -16.955  0.00  0.00    -0.265 OA
BRANCH  13  14
ATOM     14  C   UNL     1      35.353 -22.869 -16.420  0.00  0.00    +0.180 C 
BRANCH  14  15
ATOM     15  C   UNL     1      36.114 -23.570 -15.309  0.00  0.00    +0.144 C 
BRANCH  15  17
ATOM     16  O   UNL     1      36.209 -25.971 -15.554  0.00  0.00    -0.250 OA
ATOM     17  C   UNL     1      35.629 -24.985 -15.121  0.00  0.00    +0.316 C 
BRANCH  17  18
ATOM     18  O   UNL     1      34.479 -25.051 -14.404  0.00  0.00    -0.480 OA
ATOM     19  H   UNL     1      34.011 -24.266 -14.195  0.00  0.00    +0.295 HD
ENDBRANCH  17  18
ENDBRANCH  15  17
ENDBRANCH  14  15
ENDBRANCH  13  14
ENDBRANCH  12  13
ENDBRANCH  11  12
ENDBRANCH   2  11
TORSDOF 8
ENDMDL
MODEL 6
REMARK VINA RESULT:      -7.4      1.707      2.591
REMARK  Name = 10400412
REMARK  8 active torsions:
REMARK  status: ('A' for Active; 'I' for Inactive)
REMARK    1  A    between atoms: C_1  and  C_10
REMARK    2  A    between atoms: C_2  and  C_12
REMARK    3  A    between atoms: N_11  and  C_12
REMARK    4  A    between atoms: N_11  and  O_13
REMARK    5  A    between atoms: O_13  and  C_14
REMARK    6  A    between atoms: C_14  and  C_15
REMARK    7  A    between atoms: C_15  and  C_17
REMARK    8  A    between atoms: C_17  and  O_18
REMARK                            x       y       z     vdW  Elec       q    Type
REMARK                         _______ _______ _______ _____ _____    ______ ____
ROOT
ATOM      1  C   UNL     1      34.551 -22.852 -16.945  0.00  0.00    +0.069 C 
ATOM      2  C   UNL     1      35.877 -22.535 -16.648  0.00  0.00    +0.002 C 
ATOM      3  C   UNL     1      34.028 -22.556 -18.203  0.00  0.00    +0.004 C 
ATOM      4  C   UNL     1      36.679 -21.923 -17.611  0.00  0.00    -0.003 C 
ATOM      5  C   UNL     1      34.831 -21.944 -19.166  0.00  0.00    -0.000 C 
ATOM      6  C   UNL     1      36.156 -21.627 -18.870  0.00  0.00    -0.000 C 
ENDROOT
BRANCH   1  10
ATOM      7  F   UNL     1      34.210 -24.641 -15.393  0.00  0.00    -0.166 F 
ATOM      8  F   UNL     1      33.374 -22.711 -14.867  0.00  0.00    -0.166 F 
ATOM      9  F   UNL     1      32.468 -23.890 -16.455  0.00  0.00    -0.166 F 
ATOM     10  C   UNL     1      33.669 -23.510 -15.933  0.00  0.00    +0.418 C 
ENDBRANCH   1  10
BRANCH   2  11
ATOM     11  C   UNL     1      36.448 -22.833 -15.342  0.00  0.00    +0.148 C 
BRANCH  11  12
ATOM     12  N   UNL     1      37.701 -22.628 -15.057  0.00  0.00    -0.079 NA
BRANCH  12  13
ATOM     13  O   UNL     1      38.299 -23.844 -14.700  0.00  0.00    -0.265 OA
BRANCH  13  14
ATOM     14  C   UNL     1      37.343 -24.613 -13.986  0.00  0.00    +0.180 C 
BRANCH  14  15
ATOM     15  C   UNL     1      37.881 -24.922 -12.600  0.00  0.00    +0.144 C 
BRANCH  15  17
ATOM     16  O   UNL     1      36.895 -23.907 -10.642  0.00  0.00    -0.250 OA
ATOM     17  C   UNL     1      37.597 -23.795 -11.639  0.00  0.00    +0.316 C 
BRANCH  17  18
ATOM     18  O   UNL     1      38.215 -22.640 -11.991  0.00  0.00    -0.480 OA
ATOM     19  H   UNL     1      39.151 -22.595 -12.006  0.00  0.00    +0.295 HD
ENDBRANCH  17  18
ENDBRANCH  15  17
ENDBRANCH  14  15
ENDBRANCH  13  14
ENDBRANCH  12  13
ENDBRANCH  11  12
ENDBRANCH   2  11
TORSDOF 8
ENDMDL
MODEL 7
REMARK VINA RESULT:      -7.3      7.229      9.600
REMARK  Name = 10400412
REMARK  8 active torsions:
REMARK  status: ('A' for Active; 'I' for Inactive)
REMARK    1  A    between atoms: C_1  and  C_10
REMARK    2  A    between atoms: C_2  and  C_12
REMARK    3  A    between atoms: N_11  and  C_12
REMARK    4  A    between atoms: N_11  and  O_13
REMARK    5  A    between atoms: O_13  and  C_14
REMARK    6  A    between atoms: C_14  and  C_15
REMARK    7  A    between atoms: C_15  and  C_17
REMARK    8  A    between atoms: C_17  and  O_18
REMARK                            x       y       z     vdW  Elec       q    Type
REMARK                         _______ _______ _______ _____ _____    ______ ____
ROOT
ATOM      1  C   UNL     1      34.504 -20.147 -20.438  0.00  0.00    +0.069 C 
ATOM      2  C   UNL     1      35.802 -19.658 -20.586  0.00  0.00    +0.002 C 
ATOM      3  C   UNL     1      34.274 -21.295 -19.680  0.00  0.00    +0.004 C 
ATOM      4  C   UNL     1      36.869 -20.318 -19.977  0.00  0.00    -0.003 C 
ATOM      5  C   UNL     1      35.341 -21.955 -19.071  0.00  0.00    -0.000 C 
ATOM      6  C   UNL     1      36.638 -21.466 -19.219  0.00  0.00    -0.000 C 
ENDROOT
BRANCH   1  10
ATOM      7  F   UNL     1      33.310 -18.115 -20.846  0.00  0.00    -0.166 F 
ATOM      8  F   UNL     1      33.314 -19.589 -22.437  0.00  0.00    -0.166 F 
ATOM      9  F   UNL     1      32.144 -19.938 -20.637  0.00  0.00    -0.166 F 
ATOM     10  C   UNL     1      33.342 -19.459 -21.079  0.00  0.00    +0.418 C 
ENDBRANCH   1  10
BRANCH   2  11
ATOM     11  C   UNL     1      36.071 -18.461 -21.371  0.00  0.00    +0.148 C 
BRANCH  11  12
ATOM     12  N   UNL     1      36.487 -18.505 -22.604  0.00  0.00    -0.079 NA
BRANCH  12  13
ATOM     13  O   UNL     1      35.478 -18.023 -23.449  0.00  0.00    -0.265 OA
BRANCH  13  14
ATOM     14  C   UNL     1      35.350 -16.626 -23.231  0.00  0.00    +0.180 C 
BRANCH  14  15
ATOM     15  C   UNL     1      34.058 -16.137 -23.861  0.00  0.00    +0.144 C 
BRANCH  15  17
ATOM     16  O   UNL     1      33.198 -15.891 -26.106  0.00  0.00    -0.250 OA
ATOM     17  C   UNL     1      34.107 -16.242 -25.365  0.00  0.00    +0.316 C 
BRANCH  17  18
ATOM     18  O   UNL     1      35.278 -16.760 -25.813  0.00  0.00    -0.480 OA
ATOM     19  H   UNL     1      35.308 -17.638 -26.139  0.00  0.00    +0.295 HD
ENDBRANCH  17  18
ENDBRANCH  15  17
ENDBRANCH  14  15
ENDBRANCH  13  14
ENDBRANCH  12  13
ENDBRANCH  11  12
ENDBRANCH   2  11
TORSDOF 8
ENDMDL
MODEL 8
REMARK VINA RESULT:      -7.3     10.423     12.906
REMARK  Name = 10400412
REMARK  8 active torsions:
REMARK  status: ('A' for Active; 'I' for Inactive)
REMARK    1  A    between atoms: C_1  and  C_10
REMARK    2  A    between atoms: C_2  and  C_12
REMARK    3  A    between atoms: N_11  and  C_12
REMARK    4  A    between atoms: N_11  and  O_13
REMARK    5  A    between atoms: O_13  and  C_14
REMARK    6  A    between atoms: C_14  and  C_15
REMARK    7  A    between atoms: C_15  and  C_17
REMARK    8  A    between atoms: C_17  and  O_18
REMARK                            x       y       z     vdW  Elec       q    Type
REMARK                         _______ _______ _______ _____ _____    ______ ____
ROOT
ATOM      1  C   UNL     1      34.367 -16.506 -22.328  0.00  0.00    +0.069 C 
ATOM      2  C   UNL     1      34.577 -16.925 -23.642  0.00  0.00    +0.002 C 
ATOM      3  C   UNL     1      34.582 -17.390 -21.271  0.00  0.00    +0.004 C 
ATOM      4  C   UNL     1      35.003 -18.229 -23.898  0.00  0.00    -0.003 C 
ATOM      5  C   UNL     1      35.007 -18.694 -21.527  0.00  0.00    -0.000 C 
ATOM      6  C   UNL     1      35.217 -19.113 -22.840  0.00  0.00    -0.000 C 
ENDROOT
BRANCH   1  10
ATOM      7  F   UNL     1      32.717 -14.795 -22.599  0.00  0.00    -0.166 F 
ATOM      8  F   UNL     1      33.747 -14.874 -20.692  0.00  0.00    -0.166 F 
ATOM      9  F   UNL     1      34.795 -14.171 -22.463  0.00  0.00    -0.166 F 
ATOM     10  C   UNL     1      33.913 -15.114 -22.025  0.00  0.00    +0.418 C 
ENDBRANCH   1  10
BRANCH   2  11
ATOM     11  C   UNL     1      34.361 -16.023 -24.764  0.00  0.00    +0.148 C 
BRANCH  11  12
ATOM     12  N   UNL     1      33.617 -16.333 -25.786  0.00  0.00    -0.079 NA
BRANCH  12  13
ATOM     13  O   UNL     1      33.647 -15.284 -26.714  0.00  0.00    -0.265 OA
BRANCH  13  14
ATOM     14  C   UNL     1      32.856 -14.221 -26.204  0.00  0.00    +0.180 C 
BRANCH  14  15
ATOM     15  C   UNL     1      33.414 -12.898 -26.699  0.00  0.00    +0.144 C 
BRANCH  15  17
ATOM     16  O   UNL     1      33.525 -12.199 -24.389  0.00  0.00    -0.250 OA
ATOM     17  C   UNL     1      33.871 -12.033 -25.551  0.00  0.00    +0.316 C 
BRANCH  17  18
ATOM     18  O   UNL     1      34.722 -11.053 -25.944  0.00  0.00    -0.480 OA
ATOM     19  H   UNL     1      34.826 -10.283 -25.418  0.00  0.00    +0.295 HD
ENDBRANCH  17  18
ENDBRANCH  15  17
ENDBRANCH  14  15
ENDBRANCH  13  14
ENDBRANCH  12  13
ENDBRANCH  11  12
ENDBRANCH   2  11
TORSDOF 8
ENDMDL
MODEL 9
REMARK VINA RESULT:      -7.3      4.734      7.048
REMARK  Name = 10400412
REMARK  8 active torsions:
REMARK  status: ('A' for Active; 'I' for Inactive)
REMARK    1  A    between atoms: C_1  and  C_10
REMARK    2  A    between atoms: C_2  and  C_12
REMARK    3  A    between atoms: N_11  and  C_12
REMARK    4  A    between atoms: N_11  and  O_13
REMARK    5  A    between atoms: O_13  and  C_14
REMARK    6  A    between atoms: C_14  and  C_15
REMARK    7  A    between atoms: C_15  and  C_17
REMARK    8  A    between atoms: C_17  and  O_18
REMARK                            x       y       z     vdW  Elec       q    Type
REMARK                         _______ _______ _______ _____ _____    ______ ____
ROOT
ATOM      1  C   UNL     1      34.921 -22.479 -17.632  0.00  0.00    +0.069 C 
ATOM      2  C   UNL     1      36.064 -21.842 -18.116  0.00  0.00    +0.002 C 
ATOM      3  C   UNL     1      34.911 -23.006 -16.340  0.00  0.00    +0.004 C 
ATOM      4  C   UNL     1      37.195 -21.731 -17.308  0.00  0.00    -0.003 C 
ATOM      5  C   UNL     1      36.043 -22.895 -15.533  0.00  0.00    -0.000 C 
ATOM      6  C   UNL     1      37.184 -22.259 -16.016  0.00  0.00    -0.000 C 
ENDROOT
BRANCH   1  10
ATOM      7  F   UNL     1      33.180 -21.410 -18.877  0.00  0.00    -0.166 F 
ATOM      8  F   UNL     1      33.896 -23.316 -19.625  0.00  0.00    -0.166 F 
ATOM      9  F   UNL     1      32.678 -23.246 -17.824  0.00  0.00    -0.166 F 
ATOM     10  C   UNL     1      33.694 -22.609 -18.475  0.00  0.00    +0.418 C 
ENDBRANCH   1  10
BRANCH   2  11
ATOM     11  C   UNL     1      36.102 -21.282 -19.460  0.00  0.00    +0.148 C 
BRANCH  11  12
ATOM     12  N   UNL     1      36.760 -20.199 -19.755  0.00  0.00    -0.079 NA
BRANCH  12  13
ATOM     13  O   UNL     1      35.880 -19.260 -20.310  0.00  0.00    -0.265 OA
BRANCH  13  14
ATOM     14  C   UNL     1      34.952 -19.957 -21.130  0.00  0.00    +0.180 C 
BRANCH  14  15
ATOM     15  C   UNL     1      34.297 -18.978 -22.088  0.00  0.00    +0.144 C 
BRANCH  15  17
ATOM     16  O   UNL     1      34.797 -19.046 -24.451  0.00  0.00    -0.250 OA
ATOM     17  C   UNL     1      35.147 -18.758 -23.314  0.00  0.00    +0.316 C 
BRANCH  17  18
ATOM     18  O   UNL     1      36.346 -18.193 -23.023  0.00  0.00    -0.480 OA
ATOM     19  H   UNL     1      37.118 -18.723 -22.986  0.00  0.00    +0.295 HD
ENDBRANCH  17  18
ENDBRANCH  15  17
ENDBRANCH  14  15
ENDBRANCH  13  14
ENDBRANCH  12  13
ENDBRANCH  11  12
ENDBRANCH   2  11
TORSDOF 8
ENDMDL
