MODEL 1
REMARK VINA RESULT:      -8.1      0.000      0.000
REMARK  Name = 101543
REMARK  8 active torsions:
REMARK  status: ('A' for Active; 'I' for Inactive)
REMARK    1  A    between atoms: C_2  and  O_17
REMARK    2  A    between atoms: C_3  and  O_15
REMARK    3  A    between atoms: C_4  and  C_24
REMARK    4  A    between atoms: C_5  and  N_8
REMARK    5  A    between atoms: O_17  and  P_18
REMARK    6  A    between atoms: P_18  and  O_20
REMARK    7  A    between atoms: P_18  and  O_22
REMARK    8  A    between atoms: C_24  and  O_25
REMARK                            x       y       z     vdW  Elec       q    Type
REMARK                         _______ _______ _______ _____ _____    ______ ____
ROOT
ATOM      1  O   UNL     1      35.999 -23.718 -13.703  0.00  0.00    -0.333 OA
ATOM      2  C   UNL     1      37.974 -24.896 -14.222  0.00  0.00    +0.186 C 
ATOM      3  C   UNL     1      36.851 -25.497 -15.042  0.00  0.00    +0.188 C 
ATOM      4  C   UNL     1      37.217 -24.196 -13.107  0.00  0.00    +0.176 C 
ATOM      5  C   UNL     1      35.771 -24.427 -14.935  0.00  0.00    +0.229 C 
ENDROOT
BRANCH   5   8
ATOM      6  O   UNL     1      33.609 -23.848 -16.661  0.00  0.00    -0.252 OA
ATOM      7  O   UNL     1      36.093 -20.788 -19.051  0.00  0.00    -0.270 OA
ATOM      8  N   UNL     1      35.825 -23.481 -16.018  0.00  0.00    -0.217 N 
ATOM      9  N   UNL     1      34.847 -22.325 -17.850  0.00  0.00    -0.236 N 
ATOM     10  C   UNL     1      34.683 -23.266 -16.824  0.00  0.00    +0.315 C 
ATOM     11  C   UNL     1      36.999 -22.782 -16.270  0.00  0.00    +0.076 C 
ATOM     12  C   UNL     1      37.141 -21.887 -17.251  0.00  0.00    +0.074 C 
ATOM     13  C   UNL     1      35.995 -21.605 -18.139  0.00  0.00    +0.254 C 
ATOM     14  H   UNL     1      34.067 -22.159 -18.425  0.00  0.00    +0.159 HD
ENDBRANCH   5   8
BRANCH   3  15
ATOM     15  O   UNL     1      36.377 -26.710 -14.463  0.00  0.00    -0.378 OA
ATOM     16  H   UNL     1      37.034 -27.411 -14.596  0.00  0.00    +0.211 HD
ENDBRANCH   3  15
BRANCH   2  17
ATOM     17  O   UNL     1      38.882 -25.855 -13.726  0.00  0.00    -0.271 OA
BRANCH  17  18
ATOM     18  P   UNL     1      40.381 -25.869 -14.327  0.00  0.00    +0.473 P 
ATOM     19  O   UNL     1      41.262 -26.971 -13.817  0.00  0.00    -0.227 OA
BRANCH  18  20
ATOM     20  O   UNL     1      40.921 -24.369 -14.053  0.00  0.00    -0.303 OA
ATOM     21  H   UNL     1      41.745 -24.411 -13.541  0.00  0.00    +0.222 HD
ENDBRANCH  18  20
BRANCH  18  22
ATOM     22  O   UNL     1      40.121 -25.884 -15.923  0.00  0.00    -0.303 OA
ATOM     23  H   UNL     1      40.845 -25.421 -16.372  0.00  0.00    +0.222 HD
ENDBRANCH  18  22
ENDBRANCH  17  18
ENDBRANCH   2  17
BRANCH   4  24
ATOM     24  C   UNL     1      37.979 -23.032 -12.500  0.00  0.00    +0.169 C 
BRANCH  24  25
ATOM     25  O   UNL     1      39.031 -23.544 -11.701  0.00  0.00    -0.379 OA
ATOM     26  H   UNL     1      39.186 -22.951 -10.949  0.00  0.00    +0.211 HD
ENDBRANCH  24  25
ENDBRANCH   4  24
TORSDOF 8
ENDMDL
MODEL 2
REMARK VINA RESULT:      -7.9      2.634      4.378
REMARK  Name = 101543
REMARK  8 active torsions:
REMARK  status: ('A' for Active; 'I' for Inactive)
REMARK    1  A    between atoms: C_2  and  O_17
REMARK    2  A    between atoms: C_3  and  O_15
REMARK    3  A    between atoms: C_4  and  C_24
REMARK    4  A    between atoms: C_5  and  N_8
REMARK    5  A    between atoms: O_17  and  P_18
REMARK    6  A    between atoms: P_18  and  O_20
REMARK    7  A    between atoms: P_18  and  O_22
REMARK    8  A    between atoms: C_24  and  O_25
REMARK                            x       y       z     vdW  Elec       q    Type
REMARK                         _______ _______ _______ _____ _____    ______ ____
ROOT
ATOM      1  O   UNL     1      35.670 -24.997 -15.916  0.00  0.00    -0.333 OA
ATOM      2  C   UNL     1      36.493 -23.836 -14.036  0.00  0.00    +0.186 C 
ATOM      3  C   UNL     1      35.832 -22.823 -14.950  0.00  0.00    +0.188 C 
ATOM      4  C   UNL     1      36.764 -24.992 -14.982  0.00  0.00    +0.176 C 
ATOM      5  C   UNL     1      35.015 -23.716 -15.875  0.00  0.00    +0.229 C 
ENDROOT
BRANCH   5   8
ATOM      6  O   UNL     1      32.696 -22.944 -17.295  0.00  0.00    -0.252 OA
ATOM      7  O   UNL     1      29.913 -24.508 -13.970  0.00  0.00    -0.270 OA
ATOM      8  N   UNL     1      33.670 -23.910 -15.403  0.00  0.00    -0.217 N 
ATOM      9  N   UNL     1      31.312 -23.723 -15.638  0.00  0.00    -0.236 N 
ATOM     10  C   UNL     1      32.576 -23.486 -16.194  0.00  0.00    +0.315 C 
ATOM     11  C   UNL     1      33.447 -24.514 -14.172  0.00  0.00    +0.076 C 
ATOM     12  C   UNL     1      32.236 -24.735 -13.655  0.00  0.00    +0.074 C 
ATOM     13  C   UNL     1      31.041 -24.320 -14.417  0.00  0.00    +0.254 C 
ATOM     14  H   UNL     1      30.536 -23.436 -16.170  0.00  0.00    +0.159 HD
ENDBRANCH   5   8
BRANCH   3  15
ATOM     15  O   UNL     1      36.800 -22.106 -15.714  0.00  0.00    -0.378 OA
ATOM     16  H   UNL     1      36.909 -21.216 -15.344  0.00  0.00    +0.211 HD
ENDBRANCH   3  15
BRANCH   2  17
ATOM     17  O   UNL     1      37.674 -23.358 -13.429  0.00  0.00    -0.271 OA
BRANCH  17  18
ATOM     18  P   UNL     1      37.832 -23.526 -11.831  0.00  0.00    +0.473 P 
ATOM     19  O   UNL     1      37.366 -24.842 -11.280  0.00  0.00    -0.227 OA
BRANCH  18  20
ATOM     20  O   UNL     1      37.088 -22.223 -11.229  0.00  0.00    -0.303 OA
ATOM     21  H   UNL     1      37.573 -21.424 -11.489  0.00  0.00    +0.222 HD
ENDBRANCH  18  20
BRANCH  18  22
ATOM     22  O   UNL     1      39.399 -23.202 -11.595  0.00  0.00    -0.303 OA
ATOM     23  H   UNL     1      39.938 -23.844 -12.082  0.00  0.00    +0.222 HD
ENDBRANCH  18  22
ENDBRANCH  17  18
ENDBRANCH   2  17
BRANCH   4  24
ATOM     24  C   UNL     1      36.844 -26.337 -14.282  0.00  0.00    +0.169 C 
BRANCH  24  25
ATOM     25  O   UNL     1      38.143 -26.490 -13.739  0.00  0.00    -0.379 OA
ATOM     26  H   UNL     1      38.112 -26.353 -12.779  0.00  0.00    +0.211 HD
ENDBRANCH  24  25
ENDBRANCH   4  24
TORSDOF 8
ENDMDL
MODEL 3
REMARK VINA RESULT:      -7.9      2.015      2.380
REMARK  Name = 101543
REMARK  8 active torsions:
REMARK  status: ('A' for Active; 'I' for Inactive)
REMARK    1  A    between atoms: C_2  and  O_17
REMARK    2  A    between atoms: C_3  and  O_15
REMARK    3  A    between atoms: C_4  and  C_24
REMARK    4  A    between atoms: C_5  and  N_8
REMARK    5  A    between atoms: O_17  and  P_18
REMARK    6  A    between atoms: P_18  and  O_20
REMARK    7  A    between atoms: P_18  and  O_22
REMARK    8  A    between atoms: C_24  and  O_25
REMARK                            x       y       z     vdW  Elec       q    Type
REMARK                         _______ _______ _______ _____ _____    ______ ____
ROOT
ATOM      1  O   UNL     1      35.469 -24.214 -12.140  0.00  0.00    -0.333 OA
ATOM      2  C   UNL     1      37.475 -24.628 -13.307  0.00  0.00    +0.186 C 
ATOM      3  C   UNL     1      36.517 -25.759 -13.622  0.00  0.00    +0.188 C 
ATOM      4  C   UNL     1      36.895 -24.066 -12.021  0.00  0.00    +0.176 C 
ATOM      5  C   UNL     1      35.183 -25.182 -13.166  0.00  0.00    +0.229 C 
ENDROOT
BRANCH   5   8
ATOM      6  O   UNL     1      32.381 -24.816 -13.243  0.00  0.00    -0.252 OA
ATOM      7  O   UNL     1      32.591 -22.627 -17.294  0.00  0.00    -0.270 OA
ATOM      8  N   UNL     1      34.478 -24.519 -14.230  0.00  0.00    -0.217 N 
ATOM      9  N   UNL     1      32.487 -23.727 -15.260  0.00  0.00    -0.236 N 
ATOM     10  C   UNL     1      33.070 -24.389 -14.171  0.00  0.00    +0.315 C 
ATOM     11  C   UNL     1      35.181 -24.007 -15.314  0.00  0.00    +0.076 C 
ATOM     12  C   UNL     1      34.612 -23.378 -16.345  0.00  0.00    +0.074 C 
ATOM     13  C   UNL     1      33.146 -23.201 -16.361  0.00  0.00    +0.254 C 
ATOM     14  H   UNL     1      31.509 -23.625 -15.242  0.00  0.00    +0.159 HD
ENDBRANCH   5   8
BRANCH   3  15
ATOM     15  O   UNL     1      36.819 -26.923 -12.856  0.00  0.00    -0.378 OA
ATOM     16  H   UNL     1      36.925 -27.683 -13.449  0.00  0.00    +0.211 HD
ENDBRANCH   3  15
BRANCH   2  17
ATOM     17  O   UNL     1      38.811 -25.053 -13.146  0.00  0.00    -0.271 OA
BRANCH  17  18
ATOM     18  P   UNL     1      39.699 -25.297 -14.472  0.00  0.00    +0.473 P 
ATOM     19  O   UNL     1      39.843 -26.731 -14.888  0.00  0.00    -0.227 OA
BRANCH  18  20
ATOM     20  O   UNL     1      41.086 -24.526 -14.156  0.00  0.00    -0.303 OA
ATOM     21  H   UNL     1      41.783 -24.861 -14.742  0.00  0.00    +0.222 HD
ENDBRANCH  18  20
BRANCH  18  22
ATOM     22  O   UNL     1      38.981 -24.339 -15.559  0.00  0.00    -0.303 OA
ATOM     23  H   UNL     1      38.947 -24.792 -16.416  0.00  0.00    +0.222 HD
ENDBRANCH  18  22
ENDBRANCH  17  18
ENDBRANCH   2  17
BRANCH   4  24
ATOM     24  C   UNL     1      37.239 -22.605 -11.794  0.00  0.00    +0.169 C 
BRANCH  24  25
ATOM     25  O   UNL     1      38.648 -22.475 -11.727  0.00  0.00    -0.379 OA
ATOM     26  H   UNL     1      38.947 -21.834 -12.392  0.00  0.00    +0.211 HD
ENDBRANCH  24  25
ENDBRANCH   4  24
TORSDOF 8
ENDMDL
MODEL 4
REMARK VINA RESULT:      -7.3      7.282     11.032
REMARK  Name = 101543
REMARK  8 active torsions:
REMARK  status: ('A' for Active; 'I' for Inactive)
REMARK    1  A    between atoms: C_2  and  O_17
REMARK    2  A    between atoms: C_3  and  O_15
REMARK    3  A    between atoms: C_4  and  C_24
REMARK    4  A    between atoms: C_5  and  N_8
REMARK    5  A    between atoms: O_17  and  P_18
REMARK    6  A    between atoms: P_18  and  O_20
REMARK    7  A    between atoms: P_18  and  O_22
REMARK    8  A    between atoms: C_24  and  O_25
REMARK                            x       y       z     vdW  Elec       q    Type
REMARK                         _______ _______ _______ _____ _____    ______ ____
ROOT
ATOM      1  O   UNL     1      35.031 -16.840 -20.515  0.00  0.00    -0.333 OA
ATOM      2  C   UNL     1      34.151 -16.836 -22.702  0.00  0.00    +0.186 C 
ATOM      3  C   UNL     1      35.365 -17.742 -22.696  0.00  0.00    +0.188 C 
ATOM      4  C   UNL     1      34.384 -15.980 -21.469  0.00  0.00    +0.176 C 
ATOM      5  C   UNL     1      35.579 -17.978 -21.206  0.00  0.00    +0.229 C 
ENDROOT
BRANCH   5   8
ATOM      6  O   UNL     1      36.873 -20.163 -19.966  0.00  0.00    -0.252 OA
ATOM      7  O   UNL     1      32.909 -22.455 -19.443  0.00  0.00    -0.270 OA
ATOM      8  N   UNL     1      34.908 -19.160 -20.735  0.00  0.00    -0.217 N 
ATOM      9  N   UNL     1      34.899 -21.303 -19.707  0.00  0.00    -0.236 N 
ATOM     10  C   UNL     1      35.652 -20.199 -20.127  0.00  0.00    +0.315 C 
ATOM     11  C   UNL     1      33.531 -19.279 -20.878  0.00  0.00    +0.076 C 
ATOM     12  C   UNL     1      32.826 -20.338 -20.471  0.00  0.00    +0.074 C 
ATOM     13  C   UNL     1      33.528 -21.467 -19.828  0.00  0.00    +0.254 C 
ATOM     14  H   UNL     1      35.394 -22.039 -19.282  0.00  0.00    +0.159 HD
ENDBRANCH   5   8
BRANCH   3  15
ATOM     15  O   UNL     1      36.506 -17.084 -23.242  0.00  0.00    -0.378 OA
ATOM     16  H   UNL     1      36.227 -16.271 -23.691  0.00  0.00    +0.211 HD
ENDBRANCH   3  15
BRANCH   2  17
ATOM     17  O   UNL     1      34.037 -16.058 -23.874  0.00  0.00    -0.271 OA
BRANCH  17  18
ATOM     18  P   UNL     1      34.045 -16.819 -25.298  0.00  0.00    +0.473 P 
ATOM     19  O   UNL     1      33.671 -18.272 -25.246  0.00  0.00    -0.227 OA
BRANCH  18  20
ATOM     20  O   UNL     1      35.514 -16.504 -25.897  0.00  0.00    -0.303 OA
ATOM     21  H   UNL     1      36.125 -16.310 -25.169  0.00  0.00    +0.222 HD
ENDBRANCH  18  20
BRANCH  18  22
ATOM     22  O   UNL     1      33.070 -15.894 -26.198  0.00  0.00    -0.303 OA
ATOM     23  H   UNL     1      33.494 -15.036 -26.355  0.00  0.00    +0.222 HD
ENDBRANCH  18  22
ENDBRANCH  17  18
ENDBRANCH   2  17
BRANCH   4  24
ATOM     24  C   UNL     1      33.104 -15.425 -20.870  0.00  0.00    +0.169 C 
BRANCH  24  25
ATOM     25  O   UNL     1      32.279 -14.952 -21.920  0.00  0.00    -0.379 OA
ATOM     26  H   UNL     1      32.021 -14.034 -21.740  0.00  0.00    +0.211 HD
ENDBRANCH  24  25
ENDBRANCH   4  24
TORSDOF 8
ENDMDL
MODEL 5
REMARK VINA RESULT:      -7.1      3.315      4.830
REMARK  Name = 101543
REMARK  8 active torsions:
REMARK  status: ('A' for Active; 'I' for Inactive)
REMARK    1  A    between atoms: C_2  and  O_17
REMARK    2  A    between atoms: C_3  and  O_15
REMARK    3  A    between atoms: C_4  and  C_24
REMARK    4  A    between atoms: C_5  and  N_8
REMARK    5  A    between atoms: O_17  and  P_18
REMARK    6  A    between atoms: P_18  and  O_20
REMARK    7  A    between atoms: P_18  and  O_22
REMARK    8  A    between atoms: C_24  and  O_25
REMARK                            x       y       z     vdW  Elec       q    Type
REMARK                         _______ _______ _______ _____ _____    ______ ____
ROOT
ATOM      1  O   UNL     1      34.000 -22.359 -14.759  0.00  0.00    -0.333 OA
ATOM      2  C   UNL     1      35.106 -24.421 -14.472  0.00  0.00    +0.186 C 
ATOM      3  C   UNL     1      34.129 -24.259 -13.325  0.00  0.00    +0.188 C 
ATOM      4  C   UNL     1      35.278 -22.990 -14.950  0.00  0.00    +0.176 C 
ATOM      5  C   UNL     1      33.225 -23.142 -13.832  0.00  0.00    +0.229 C 
ENDROOT
BRANCH   5   8
ATOM      6  O   UNL     1      31.639 -25.301 -12.931  0.00  0.00    -0.252 OA
ATOM      7  O   UNL     1      28.812 -24.981 -16.557  0.00  0.00    -0.270 OA
ATOM      8  N   UNL     1      32.067 -23.644 -14.522  0.00  0.00    -0.217 N 
ATOM      9  N   UNL     1      30.233 -25.141 -14.737  0.00  0.00    -0.236 N 
ATOM     10  C   UNL     1      31.341 -24.733 -13.983  0.00  0.00    +0.315 C 
ATOM     11  C   UNL     1      31.663 -23.059 -15.716  0.00  0.00    +0.076 C 
ATOM     12  C   UNL     1      30.603 -23.458 -16.424  0.00  0.00    +0.074 C 
ATOM     13  C   UNL     1      29.792 -24.590 -15.930  0.00  0.00    +0.254 C 
ATOM     14  H   UNL     1      29.713 -25.897 -14.383  0.00  0.00    +0.159 HD
ENDBRANCH   5   8
BRANCH   3  15
ATOM     15  O   UNL     1      34.791 -23.832 -12.136  0.00  0.00    -0.378 OA
ATOM     16  H   UNL     1      35.173 -22.952 -12.276  0.00  0.00    +0.211 HD
ENDBRANCH   3  15
BRANCH   2  17
ATOM     17  O   UNL     1      36.333 -25.002 -14.087  0.00  0.00    -0.271 OA
BRANCH  17  18
ATOM     18  P   UNL     1      36.857 -26.291 -14.907  0.00  0.00    +0.473 P 
ATOM     19  O   UNL     1      35.962 -26.744 -16.023  0.00  0.00    -0.227 OA
BRANCH  18  20
ATOM     20  O   UNL     1      37.139 -27.393 -13.757  0.00  0.00    -0.303 OA
ATOM     21  H   UNL     1      37.356 -26.944 -12.925  0.00  0.00    +0.222 HD
ENDBRANCH  18  20
BRANCH  18  22
ATOM     22  O   UNL     1      38.342 -25.840 -15.362  0.00  0.00    -0.303 OA
ATOM     23  H   UNL     1      38.659 -25.135 -14.776  0.00  0.00    +0.222 HD
ENDBRANCH  18  22
ENDBRANCH  17  18
ENDBRANCH   2  17
BRANCH   4  24
ATOM     24  C   UNL     1      35.684 -22.888 -16.410  0.00  0.00    +0.169 C 
BRANCH  24  25
ATOM     25  O   UNL     1      37.077 -23.127 -16.512  0.00  0.00    -0.379 OA
ATOM     26  H   UNL     1      37.389 -22.854 -17.389  0.00  0.00    +0.211 HD
ENDBRANCH  24  25
ENDBRANCH   4  24
TORSDOF 8
ENDMDL
MODEL 6
REMARK VINA RESULT:      -6.8      8.325     10.725
REMARK  Name = 101543
REMARK  8 active torsions:
REMARK  status: ('A' for Active; 'I' for Inactive)
REMARK    1  A    between atoms: C_2  and  O_17
REMARK    2  A    between atoms: C_3  and  O_15
REMARK    3  A    between atoms: C_4  and  C_24
REMARK    4  A    between atoms: C_5  and  N_8
REMARK    5  A    between atoms: O_17  and  P_18
REMARK    6  A    between atoms: P_18  and  O_20
REMARK    7  A    between atoms: P_18  and  O_22
REMARK    8  A    between atoms: C_24  and  O_25
REMARK                            x       y       z     vdW  Elec       q    Type
REMARK                         _______ _______ _______ _____ _____    ______ ____
ROOT
ATOM      1  O   UNL     1      35.607 -17.577 -23.492  0.00  0.00    -0.333 OA
ATOM      2  C   UNL     1      34.339 -19.022 -22.128  0.00  0.00    +0.186 C 
ATOM      3  C   UNL     1      35.120 -18.097 -21.217  0.00  0.00    +0.188 C 
ATOM      4  C   UNL     1      35.121 -18.928 -23.426  0.00  0.00    +0.176 C 
ATOM      5  C   UNL     1      35.551 -16.995 -22.176  0.00  0.00    +0.229 C 
ENDROOT
BRANCH   5   8
ATOM      6  O   UNL     1      34.867 -15.418 -19.932  0.00  0.00    -0.252 OA
ATOM      7  O   UNL     1      31.972 -12.821 -22.405  0.00  0.00    -0.270 OA
ATOM      8  N   UNL     1      34.620 -15.898 -22.206  0.00  0.00    -0.217 N 
ATOM      9  N   UNL     1      33.426 -14.126 -21.165  0.00  0.00    -0.236 N 
ATOM     10  C   UNL     1      34.348 -15.172 -21.022  0.00  0.00    +0.315 C 
ATOM     11  C   UNL     1      33.991 -15.555 -23.396  0.00  0.00    +0.076 C 
ATOM     12  C   UNL     1      33.115 -14.554 -23.517  0.00  0.00    +0.074 C 
ATOM     13  C   UNL     1      32.774 -13.747 -22.328  0.00  0.00    +0.254 C 
ATOM     14  H   UNL     1      33.219 -13.607 -20.355  0.00  0.00    +0.159 HD
ENDBRANCH   5   8
BRANCH   3  15
ATOM     15  O   UNL     1      36.275 -18.745 -20.688  0.00  0.00    -0.378 OA
ATOM     16  H   UNL     1      36.987 -18.727 -21.346  0.00  0.00    +0.211 HD
ENDBRANCH   3  15
BRANCH   2  17
ATOM     17  O   UNL     1      34.261 -20.347 -21.650  0.00  0.00    -0.271 OA
BRANCH  17  18
ATOM     18  P   UNL     1      33.444 -20.618 -20.283  0.00  0.00    +0.473 P 
ATOM     19  O   UNL     1      32.334 -19.648 -20.001  0.00  0.00    -0.227 OA
BRANCH  18  20
ATOM     20  O   UNL     1      34.598 -20.696 -19.152  0.00  0.00    -0.303 OA
ATOM     21  H   UNL     1      34.474 -19.976 -18.514  0.00  0.00    +0.222 HD
ENDBRANCH  18  20
BRANCH  18  22
ATOM     22  O   UNL     1      32.980 -22.159 -20.448  0.00  0.00    -0.303 OA
ATOM     23  H   UNL     1      33.154 -22.452 -21.356  0.00  0.00    +0.222 HD
ENDBRANCH  18  22
ENDBRANCH  17  18
ENDBRANCH   2  17
BRANCH   4  24
ATOM     24  C   UNL     1      34.284 -19.230 -24.657  0.00  0.00    +0.169 C 
BRANCH  24  25
ATOM     25  O   UNL     1      34.390 -18.140 -25.556  0.00  0.00    -0.379 OA
ATOM     26  H   UNL     1      35.324 -17.908 -25.676  0.00  0.00    +0.211 HD
ENDBRANCH  24  25
ENDBRANCH   4  24
TORSDOF 8
ENDMDL
MODEL 7
REMARK VINA RESULT:      -6.7      6.999     10.749
REMARK  Name = 101543
REMARK  8 active torsions:
REMARK  status: ('A' for Active; 'I' for Inactive)
REMARK    1  A    between atoms: C_2  and  O_17
REMARK    2  A    between atoms: C_3  and  O_15
REMARK    3  A    between atoms: C_4  and  C_24
REMARK    4  A    between atoms: C_5  and  N_8
REMARK    5  A    between atoms: O_17  and  P_18
REMARK    6  A    between atoms: P_18  and  O_20
REMARK    7  A    between atoms: P_18  and  O_22
REMARK    8  A    between atoms: C_24  and  O_25
REMARK                            x       y       z     vdW  Elec       q    Type
REMARK                         _______ _______ _______ _____ _____    ______ ____
ROOT
ATOM      1  O   UNL     1      35.854 -17.661 -20.633  0.00  0.00    -0.333 OA
ATOM      2  C   UNL     1      34.322 -17.179 -22.359  0.00  0.00    +0.186 C 
ATOM      3  C   UNL     1      35.090 -18.423 -22.759  0.00  0.00    +0.188 C 
ATOM      4  C   UNL     1      35.238 -16.558 -21.320  0.00  0.00    +0.176 C 
ATOM      5  C   UNL     1      35.719 -18.847 -21.438  0.00  0.00    +0.229 C 
ENDROOT
BRANCH   5   8
ATOM      6  O   UNL     1      36.733 -20.991 -19.902  0.00  0.00    -0.252 OA
ATOM      7  O   UNL     1      32.504 -22.401 -18.733  0.00  0.00    -0.270 OA
ATOM      8  N   UNL     1      34.904 -19.791 -20.720  0.00  0.00    -0.217 N 
ATOM      9  N   UNL     1      34.627 -21.692 -19.321  0.00  0.00    -0.236 N 
ATOM     10  C   UNL     1      35.514 -20.831 -19.980  0.00  0.00    +0.315 C 
ATOM     11  C   UNL     1      33.519 -19.679 -20.756  0.00  0.00    +0.076 C 
ATOM     12  C   UNL     1      32.686 -20.508 -20.122  0.00  0.00    +0.074 C 
ATOM     13  C   UNL     1      33.243 -21.621 -19.328  0.00  0.00    +0.254 C 
ATOM     14  H   UNL     1      35.028 -22.424 -18.800  0.00  0.00    +0.159 HD
ENDBRANCH   5   8
BRANCH   3  15
ATOM     15  O   UNL     1      36.119 -18.117 -23.699  0.00  0.00    -0.378 OA
ATOM     16  H   UNL     1      35.720 -17.821 -24.532  0.00  0.00    +0.211 HD
ENDBRANCH   3  15
BRANCH   2  17
ATOM     17  O   UNL     1      34.071 -16.303 -23.437  0.00  0.00    -0.271 OA
BRANCH  17  18
ATOM     18  P   UNL     1      33.312 -14.912 -23.128  0.00  0.00    +0.473 P 
ATOM     19  O   UNL     1      32.338 -14.957 -21.987  0.00  0.00    -0.227 OA
BRANCH  18  20
ATOM     20  O   UNL     1      32.683 -14.489 -24.556  0.00  0.00    -0.303 OA
ATOM     21  H   UNL     1      31.721 -14.395 -24.472  0.00  0.00    +0.222 HD
ENDBRANCH  18  20
BRANCH  18  22
ATOM     22  O   UNL     1      34.538 -13.875 -22.939  0.00  0.00    -0.303 OA
ATOM     23  H   UNL     1      35.095 -14.165 -22.200  0.00  0.00    +0.222 HD
ENDBRANCH  18  22
ENDBRANCH  17  18
ENDBRANCH   2  17
BRANCH   4  24
ATOM     24  C   UNL     1      34.506 -15.680 -20.320  0.00  0.00    +0.169 C 
BRANCH  24  25
ATOM     25  O   UNL     1      35.142 -14.414 -20.277  0.00  0.00    -0.379 OA
ATOM     26  H   UNL     1      35.226 -14.125 -19.354  0.00  0.00    +0.211 HD
ENDBRANCH  24  25
ENDBRANCH   4  24
TORSDOF 8
ENDMDL
MODEL 8
REMARK VINA RESULT:      -6.7      1.988      3.374
REMARK  Name = 101543
REMARK  8 active torsions:
REMARK  status: ('A' for Active; 'I' for Inactive)
REMARK    1  A    between atoms: C_2  and  O_17
REMARK    2  A    between atoms: C_3  and  O_15
REMARK    3  A    between atoms: C_4  and  C_24
REMARK    4  A    between atoms: C_5  and  N_8
REMARK    5  A    between atoms: O_17  and  P_18
REMARK    6  A    between atoms: P_18  and  O_20
REMARK    7  A    between atoms: P_18  and  O_22
REMARK    8  A    between atoms: C_24  and  O_25
REMARK                            x       y       z     vdW  Elec       q    Type
REMARK                         _______ _______ _______ _____ _____    ______ ____
ROOT
ATOM      1  O   UNL     1      36.402 -25.692 -15.679  0.00  0.00    -0.333 OA
ATOM      2  C   UNL     1      37.771 -24.780 -13.990  0.00  0.00    +0.186 C 
ATOM      3  C   UNL     1      37.367 -23.650 -14.915  0.00  0.00    +0.188 C 
ATOM      4  C   UNL     1      37.543 -26.004 -14.860  0.00  0.00    +0.176 C 
ATOM      5  C   UNL     1      36.202 -24.267 -15.680  0.00  0.00    +0.229 C 
ENDROOT
BRANCH   5   8
ATOM      6  O   UNL     1      33.916 -23.361 -17.073  0.00  0.00    -0.252 OA
ATOM      7  O   UNL     1      31.390 -23.229 -13.220  0.00  0.00    -0.270 OA
ATOM      8  N   UNL     1      34.932 -23.988 -15.065  0.00  0.00    -0.217 N 
ATOM      9  N   UNL     1      32.660 -23.295 -15.154  0.00  0.00    -0.236 N 
ATOM     10  C   UNL     1      33.848 -23.537 -15.856  0.00  0.00    +0.315 C 
ATOM     11  C   UNL     1      34.772 -24.162 -13.695  0.00  0.00    +0.076 C 
ATOM     12  C   UNL     1      33.632 -23.928 -13.040  0.00  0.00    +0.074 C 
ATOM     13  C   UNL     1      32.453 -23.453 -13.793  0.00  0.00    +0.254 C 
ATOM     14  H   UNL     1      31.893 -22.980 -15.683  0.00  0.00    +0.159 HD
ENDBRANCH   5   8
BRANCH   3  15
ATOM     15  O   UNL     1      38.415 -23.325 -15.826  0.00  0.00    -0.378 OA
ATOM     16  H   UNL     1      39.036 -22.714 -15.401  0.00  0.00    +0.211 HD
ENDBRANCH   3  15
BRANCH   2  17
ATOM     17  O   UNL     1      39.107 -24.688 -13.543  0.00  0.00    -0.271 OA
BRANCH  17  18
ATOM     18  P   UNL     1      40.246 -25.469 -14.380  0.00  0.00    +0.473 P 
ATOM     19  O   UNL     1      40.847 -26.655 -13.685  0.00  0.00    -0.227 OA
BRANCH  18  20
ATOM     20  O   UNL     1      41.292 -24.305 -14.788  0.00  0.00    -0.303 OA
ATOM     21  H   UNL     1      41.853 -24.615 -15.516  0.00  0.00    +0.222 HD
ENDBRANCH  18  20
BRANCH  18  22
ATOM     22  O   UNL     1      39.496 -25.801 -15.773  0.00  0.00    -0.303 OA
ATOM     23  H   UNL     1      39.883 -26.598 -16.166  0.00  0.00    +0.222 HD
ENDBRANCH  18  22
ENDBRANCH  17  18
ENDBRANCH   2  17
BRANCH   4  24
ATOM     24  C   UNL     1      37.270 -27.267 -14.064  0.00  0.00    +0.169 C 
BRANCH  24  25
ATOM     25  O   UNL     1      36.908 -26.902 -12.743  0.00  0.00    -0.379 OA
ATOM     26  H   UNL     1      37.583 -26.312 -12.373  0.00  0.00    +0.211 HD
ENDBRANCH  24  25
ENDBRANCH   4  24
TORSDOF 8
ENDMDL
MODEL 9
REMARK VINA RESULT:      -6.5      8.276     10.771
REMARK  Name = 101543
REMARK  8 active torsions:
REMARK  status: ('A' for Active; 'I' for Inactive)
REMARK    1  A    between atoms: C_2  and  O_17
REMARK    2  A    between atoms: C_3  and  O_15
REMARK    3  A    between atoms: C_4  and  C_24
REMARK    4  A    between atoms: C_5  and  N_8
REMARK    5  A    between atoms: O_17  and  P_18
REMARK    6  A    between atoms: P_18  and  O_20
REMARK    7  A    between atoms: P_18  and  O_22
REMARK    8  A    between atoms: C_24  and  O_25
REMARK                            x       y       z     vdW  Elec       q    Type
REMARK                         _______ _______ _______ _____ _____    ______ ____
ROOT
ATOM      1  O   UNL     1      35.487 -17.425 -23.307  0.00  0.00    -0.333 OA
ATOM      2  C   UNL     1      34.251 -18.958 -22.012  0.00  0.00    +0.186 C 
ATOM      3  C   UNL     1      35.010 -18.057 -21.058  0.00  0.00    +0.188 C 
ATOM      4  C   UNL     1      35.032 -18.789 -23.303  0.00  0.00    +0.176 C 
ATOM      5  C   UNL     1      35.416 -16.904 -21.967  0.00  0.00    +0.229 C 
ENDROOT
BRANCH   5   8
ATOM      6  O   UNL     1      34.726 -15.342 -24.219  0.00  0.00    -0.252 OA
ATOM      7  O   UNL     1      31.744 -12.809 -21.784  0.00  0.00    -0.270 OA
ATOM      8  N   UNL     1      34.460 -15.828 -21.949  0.00  0.00    -0.217 N 
ATOM      9  N   UNL     1      33.242 -14.081 -23.005  0.00  0.00    -0.236 N 
ATOM     10  C   UNL     1      34.188 -15.108 -23.136  0.00  0.00    +0.315 C 
ATOM     11  C   UNL     1      33.807 -15.500 -20.768  0.00  0.00    +0.076 C 
ATOM     12  C   UNL     1      32.908 -14.519 -20.658  0.00  0.00    +0.074 C 
ATOM     13  C   UNL     1      32.567 -13.718 -21.851  0.00  0.00    +0.254 C 
ATOM     14  H   UNL     1      33.037 -13.565 -23.817  0.00  0.00    +0.159 HD
ENDBRANCH   5   8
BRANCH   3  15
ATOM     15  O   UNL     1      36.179 -18.702 -20.557  0.00  0.00    -0.378 OA
ATOM     16  H   UNL     1      36.212 -18.608 -19.592  0.00  0.00    +0.211 HD
ENDBRANCH   3  15
BRANCH   2  17
ATOM     17  O   UNL     1      34.203 -20.305 -21.593  0.00  0.00    -0.271 OA
BRANCH  17  18
ATOM     18  P   UNL     1      33.384 -20.656 -20.246  0.00  0.00    +0.473 P 
ATOM     19  O   UNL     1      32.264 -19.714 -19.917  0.00  0.00    -0.227 OA
BRANCH  18  20
ATOM     20  O   UNL     1      34.534 -20.784 -19.116  0.00  0.00    -0.303 OA
ATOM     21  H   UNL     1      34.130 -20.728 -18.236  0.00  0.00    +0.222 HD
ENDBRANCH  18  20
BRANCH  18  22
ATOM     22  O   UNL     1      32.936 -22.190 -20.495  0.00  0.00    -0.303 OA
ATOM     23  H   UNL     1      33.220 -22.470 -21.379  0.00  0.00    +0.222 HD
ENDBRANCH  18  22
ENDBRANCH  17  18
ENDBRANCH   2  17
BRANCH   4  24
ATOM     24  C   UNL     1      34.203 -19.054 -24.547  0.00  0.00    +0.169 C 
BRANCH  24  25
ATOM     25  O   UNL     1      34.406 -17.992 -25.463  0.00  0.00    -0.379 OA
ATOM     26  H   UNL     1      34.188 -18.291 -26.359  0.00  0.00    +0.211 HD
ENDBRANCH  24  25
ENDBRANCH   4  24
TORSDOF 8
ENDMDL
