MODEL 1
REMARK VINA RESULT:      -8.0      0.000      0.000
REMARK  Name = 3845
REMARK  2 active torsions:
REMARK  status: ('A' for Active; 'I' for Inactive)
REMARK    1  A    between atoms: CA_5  and  C_14
REMARK    2  A    between atoms: C_14  and  O_15
REMARK                            x       y       z     vdW  Elec       q    Type
REMARK                         _______ _______ _______ _____ _____    ______ ____
ROOT
ATOM      1  O   UNL     1      36.547 -25.819 -11.666  0.00  0.00    -0.286 OA
ATOM      2  N   UNL     1      38.139 -24.756 -15.234  0.00  0.00    -0.307 N 
ATOM      3  C   UNL     1      36.841 -24.317 -14.943  0.00  0.00    +0.052 C 
ATOM      4  C   UNL     1      36.245 -24.661 -13.716  0.00  0.00    +0.052 C 
ATOM      5  CA  UNL     1      38.843 -25.521 -14.343  0.00  0.00    +0.128 C 
ATOM      6  C   UNL     1      37.014 -25.491 -12.750  0.00  0.00    +0.198 C 
ATOM      7  C   UNL     1      36.121 -23.536 -15.852  0.00  0.00    +0.015 C 
ATOM      8  C   UNL     1      38.387 -25.913 -13.146  0.00  0.00    +0.063 C 
ATOM      9  C   UNL     1      34.951 -24.233 -13.404  0.00  0.00    +0.004 C 
ATOM     10  C   UNL     1      34.829 -23.108 -15.542  0.00  0.00    +0.001 C 
ATOM     11  C   UNL     1      34.247 -23.456 -14.322  0.00  0.00    +0.000 C 
ATOM     12  H   UNL     1      38.551 -24.510 -16.094  0.00  0.00    +0.152 HD
ENDROOT
BRANCH   5  14
ATOM     13  OXT UNL     1      41.023 -26.375 -13.934  0.00  0.00    -0.244 OA
ATOM     14  C   UNL     1      40.195 -25.946 -14.715  0.00  0.00    +0.352 C 
BRANCH  14  15
ATOM     15  O   UNL     1      40.368 -25.787 -16.044  0.00  0.00    -0.476 OA
ATOM     16  H   UNL     1      40.137 -24.976 -16.454  0.00  0.00    +0.295 HD
ENDBRANCH  14  15
ENDBRANCH   5  14
TORSDOF 2
ENDMDL
MODEL 2
REMARK VINA RESULT:      -8.0      5.858      8.254
REMARK  Name = 3845
REMARK  2 active torsions:
REMARK  status: ('A' for Active; 'I' for Inactive)
REMARK    1  A    between atoms: CA_5  and  C_14
REMARK    2  A    between atoms: C_14  and  O_15
REMARK                            x       y       z     vdW  Elec       q    Type
REMARK                         _______ _______ _______ _____ _____    ______ ____
ROOT
ATOM      1  O   UNL     1      30.839 -23.597 -13.101  0.00  0.00    -0.286 OA
ATOM      2  N   UNL     1      30.543 -22.842 -17.069  0.00  0.00    -0.307 N 
ATOM      3  C   UNL     1      31.823 -23.042 -16.537  0.00  0.00    +0.052 C 
ATOM      4  C   UNL     1      31.977 -23.307 -15.164  0.00  0.00    +0.052 C 
ATOM      5  CA  UNL     1      29.431 -22.898 -16.272  0.00  0.00    +0.128 C 
ATOM      6  C   UNL     1      30.765 -23.368 -14.302  0.00  0.00    +0.198 C 
ATOM      7  C   UNL     1      32.961 -22.984 -17.349  0.00  0.00    +0.015 C 
ATOM      8  C   UNL     1      29.445 -23.142 -14.955  0.00  0.00    +0.063 C 
ATOM      9  C   UNL     1      33.245 -23.510 -14.612  0.00  0.00    +0.004 C 
ATOM     10  C   UNL     1      34.228 -23.188 -16.798  0.00  0.00    +0.001 C 
ATOM     11  C   UNL     1      34.369 -23.449 -15.435  0.00  0.00    +0.000 C 
ATOM     12  H   UNL     1      30.442 -22.659 -18.031  0.00  0.00    +0.152 HD
ENDROOT
BRANCH   5  14
ATOM     13  OXT UNL     1      27.537 -21.612 -16.913  0.00  0.00    -0.244 OA
ATOM     14  C   UNL     1      28.124 -22.678 -16.897  0.00  0.00    +0.352 C 
BRANCH  14  15
ATOM     15  O   UNL     1      27.684 -23.831 -17.443  0.00  0.00    -0.476 OA
ATOM     16  H   UNL     1      28.000 -24.653 -17.122  0.00  0.00    +0.295 HD
ENDBRANCH  14  15
ENDBRANCH   5  14
TORSDOF 2
ENDMDL
MODEL 3
REMARK VINA RESULT:      -7.7     11.933     13.776
REMARK  Name = 3845
REMARK  2 active torsions:
REMARK  status: ('A' for Active; 'I' for Inactive)
REMARK    1  A    between atoms: CA_5  and  C_14
REMARK    2  A    between atoms: C_14  and  O_15
REMARK                            x       y       z     vdW  Elec       q    Type
REMARK                         _______ _______ _______ _____ _____    ______ ____
ROOT
ATOM      1  O   UNL     1      35.059 -16.267 -20.404  0.00  0.00    -0.286 OA
ATOM      2  N   UNL     1      33.883 -15.094 -24.097  0.00  0.00    -0.307 N 
ATOM      3  C   UNL     1      34.286 -16.425 -23.934  0.00  0.00    +0.052 C 
ATOM      4  C   UNL     1      34.704 -16.880 -22.670  0.00  0.00    +0.052 C 
ATOM      5  CA  UNL     1      33.889 -14.219 -23.043  0.00  0.00    +0.128 C 
ATOM      6  C   UNL     1      34.708 -15.927 -21.527  0.00  0.00    +0.198 C 
ATOM      7  C   UNL     1      34.282 -17.319 -25.009  0.00  0.00    +0.015 C 
ATOM      8  C   UNL     1      34.263 -14.530 -21.795  0.00  0.00    +0.063 C 
ATOM      9  C   UNL     1      35.110 -18.204 -22.484  0.00  0.00    +0.004 C 
ATOM     10  C   UNL     1      34.687 -18.643 -24.825  0.00  0.00    +0.001 C 
ATOM     11  C   UNL     1      35.100 -19.083 -23.566  0.00  0.00    +0.000 C 
ATOM     12  H   UNL     1      33.590 -14.782 -24.984  0.00  0.00    +0.152 HD
ENDROOT
BRANCH   5  14
ATOM     13  OXT UNL     1      32.475 -12.327 -22.782  0.00  0.00    -0.244 OA
ATOM     14  C   UNL     1      33.455 -12.842 -23.288  0.00  0.00    +0.352 C 
BRANCH  14  15
ATOM     15  O   UNL     1      34.306 -12.246 -24.149  0.00  0.00    -0.476 OA
ATOM     16  H   UNL     1      34.030 -12.055 -25.024  0.00  0.00    +0.295 HD
ENDBRANCH  14  15
ENDBRANCH   5  14
TORSDOF 2
ENDMDL
MODEL 4
REMARK VINA RESULT:      -7.7      8.445     10.390
REMARK  Name = 3845
REMARK  2 active torsions:
REMARK  status: ('A' for Active; 'I' for Inactive)
REMARK    1  A    between atoms: CA_5  and  C_14
REMARK    2  A    between atoms: C_14  and  O_15
REMARK                            x       y       z     vdW  Elec       q    Type
REMARK                         _______ _______ _______ _____ _____    ______ ____
ROOT
ATOM      1  O   UNL     1      37.720 -19.417 -20.926  0.00  0.00    -0.286 OA
ATOM      2  N   UNL     1      33.876 -18.332 -21.591  0.00  0.00    -0.307 N 
ATOM      3  C   UNL     1      34.105 -19.497 -20.849  0.00  0.00    +0.052 C 
ATOM      4  C   UNL     1      35.424 -19.916 -20.592  0.00  0.00    +0.052 C 
ATOM      5  CA  UNL     1      34.918 -17.587 -22.077  0.00  0.00    +0.128 C 
ATOM      6  C   UNL     1      36.553 -19.103 -21.121  0.00  0.00    +0.198 C 
ATOM      7  C   UNL     1      33.043 -20.259 -20.354  0.00  0.00    +0.015 C 
ATOM      8  C   UNL     1      36.213 -17.879 -21.900  0.00  0.00    +0.063 C 
ATOM      9  C   UNL     1      35.675 -21.076 -19.854  0.00  0.00    +0.004 C 
ATOM     10  C   UNL     1      33.293 -21.418 -19.615  0.00  0.00    +0.001 C 
ATOM     11  C   UNL     1      34.605 -21.824 -19.367  0.00  0.00    +0.000 C 
ATOM     12  H   UNL     1      32.952 -18.043 -21.766  0.00  0.00    +0.152 HD
ENDROOT
BRANCH   5  14
ATOM     13  OXT UNL     1      33.571 -15.745 -22.741  0.00  0.00    -0.244 OA
ATOM     14  C   UNL     1      34.604 -16.380 -22.846  0.00  0.00    +0.352 C 
BRANCH  14  15
ATOM     15  O   UNL     1      35.630 -16.092 -23.674  0.00  0.00    -0.476 OA
ATOM     16  H   UNL     1      35.876 -16.699 -24.344  0.00  0.00    +0.295 HD
ENDBRANCH  14  15
ENDBRANCH   5  14
TORSDOF 2
ENDMDL
MODEL 5
REMARK VINA RESULT:      -7.6     11.977     14.019
REMARK  Name = 3845
REMARK  2 active torsions:
REMARK  status: ('A' for Active; 'I' for Inactive)
REMARK    1  A    between atoms: CA_5  and  C_14
REMARK    2  A    between atoms: C_14  and  O_15
REMARK                            x       y       z     vdW  Elec       q    Type
REMARK                         _______ _______ _______ _____ _____    ______ ____
ROOT
ATOM      1  O   UNL     1      34.352 -16.920 -25.898  0.00  0.00    -0.286 OA
ATOM      2  N   UNL     1      34.171 -14.981 -22.347  0.00  0.00    -0.307 N 
ATOM      3  C   UNL     1      34.605 -16.313 -22.341  0.00  0.00    +0.052 C 
ATOM      4  C   UNL     1      34.684 -17.028 -23.550  0.00  0.00    +0.052 C 
ATOM      5  CA  UNL     1      33.818 -14.358 -23.514  0.00  0.00    +0.128 C 
ATOM      6  C   UNL     1      34.301 -16.347 -24.816  0.00  0.00    +0.198 C 
ATOM      7  C   UNL     1      34.965 -16.950 -21.150  0.00  0.00    +0.015 C 
ATOM      8  C   UNL     1      33.850 -14.930 -24.725  0.00  0.00    +0.063 C 
ATOM      9  C   UNL     1      35.115 -18.358 -23.567  0.00  0.00    +0.004 C 
ATOM     10  C   UNL     1      35.396 -18.278 -21.167  0.00  0.00    +0.001 C 
ATOM     11  C   UNL     1      35.470 -18.979 -22.371  0.00  0.00    +0.000 C 
ATOM     12  H   UNL     1      34.119 -14.485 -21.498  0.00  0.00    +0.152 HD
ENDROOT
BRANCH   5  14
ATOM     13  OXT UNL     1      32.362 -12.591 -22.878  0.00  0.00    -0.244 OA
ATOM     14  C   UNL     1      33.372 -12.964 -23.445  0.00  0.00    +0.352 C 
BRANCH  14  15
ATOM     15  O   UNL     1      34.250 -12.176 -24.099  0.00  0.00    -0.476 OA
ATOM     16  H   UNL     1      34.327 -11.270 -23.871  0.00  0.00    +0.295 HD
ENDBRANCH  14  15
ENDBRANCH   5  14
TORSDOF 2
ENDMDL
MODEL 6
REMARK VINA RESULT:      -7.5      9.579     11.473
REMARK  Name = 3845
REMARK  2 active torsions:
REMARK  status: ('A' for Active; 'I' for Inactive)
REMARK    1  A    between atoms: CA_5  and  C_14
REMARK    2  A    between atoms: C_14  and  O_15
REMARK                            x       y       z     vdW  Elec       q    Type
REMARK                         _______ _______ _______ _____ _____    ______ ____
ROOT
ATOM      1  O   UNL     1      34.640 -18.315 -24.844  0.00  0.00    -0.286 OA
ATOM      2  N   UNL     1      35.016 -17.721 -20.855  0.00  0.00    -0.307 N 
ATOM      3  C   UNL     1      34.741 -16.606 -21.657  0.00  0.00    +0.052 C 
ATOM      4  C   UNL     1      34.602 -16.762 -23.049  0.00  0.00    +0.052 C 
ATOM      5  CA  UNL     1      35.154 -18.969 -21.404  0.00  0.00    +0.128 C 
ATOM      6  C   UNL     1      34.752 -18.119 -23.640  0.00  0.00    +0.198 C 
ATOM      7  C   UNL     1      34.600 -15.332 -21.099  0.00  0.00    +0.015 C 
ATOM      8  C   UNL     1      35.045 -19.246 -22.709  0.00  0.00    +0.063 C 
ATOM      9  C   UNL     1      34.328 -15.663 -23.868  0.00  0.00    +0.004 C 
ATOM     10  C   UNL     1      34.325 -14.233 -21.917  0.00  0.00    +0.001 C 
ATOM     11  C   UNL     1      34.190 -14.399 -23.296  0.00  0.00    +0.000 C 
ATOM     12  H   UNL     1      35.110 -17.606 -19.883  0.00  0.00    +0.152 HD
ENDROOT
BRANCH   5  14
ATOM     13  OXT UNL     1      34.671 -21.001 -20.269  0.00  0.00    -0.244 OA
ATOM     14  C   UNL     1      35.442 -20.089 -20.504  0.00  0.00    +0.352 C 
BRANCH  14  15
ATOM     15  O   UNL     1      36.682 -19.948 -19.990  0.00  0.00    -0.476 OA
ATOM     16  H   UNL     1      37.088 -19.104 -19.969  0.00  0.00    +0.295 HD
ENDBRANCH  14  15
ENDBRANCH   5  14
TORSDOF 2
ENDMDL
MODEL 7
REMARK VINA RESULT:      -7.5      5.100      7.294
REMARK  Name = 3845
REMARK  2 active torsions:
REMARK  status: ('A' for Active; 'I' for Inactive)
REMARK    1  A    between atoms: CA_5  and  C_14
REMARK    2  A    between atoms: C_14  and  O_15
REMARK                            x       y       z     vdW  Elec       q    Type
REMARK                         _______ _______ _______ _____ _____    ______ ____
ROOT
ATOM      1  O   UNL     1      35.877 -23.240 -16.647  0.00  0.00    -0.286 OA
ATOM      2  N   UNL     1      32.392 -22.061 -18.339  0.00  0.00    -0.307 N 
ATOM      3  C   UNL     1      33.584 -21.645 -18.945  0.00  0.00    +0.052 C 
ATOM      4  C   UNL     1      34.820 -22.029 -18.394  0.00  0.00    +0.052 C 
ATOM      5  CA  UNL     1      32.406 -22.839 -17.211  0.00  0.00    +0.128 C 
ATOM      6  C   UNL     1      34.831 -22.874 -17.169  0.00  0.00    +0.198 C 
ATOM      7  C   UNL     1      33.571 -20.850 -20.095  0.00  0.00    +0.015 C 
ATOM      8  C   UNL     1      33.514 -23.268 -16.594  0.00  0.00    +0.063 C 
ATOM      9  C   UNL     1      36.022 -21.625 -18.982  0.00  0.00    +0.004 C 
ATOM     10  C   UNL     1      34.771 -20.447 -20.684  0.00  0.00    +0.001 C 
ATOM     11  C   UNL     1      35.992 -20.833 -20.129  0.00  0.00    +0.000 C 
ATOM     12  H   UNL     1      31.530 -21.791 -18.730  0.00  0.00    +0.152 HD
ENDROOT
BRANCH   5  14
ATOM     13  OXT UNL     1      30.976 -24.137 -15.826  0.00  0.00    -0.244 OA
ATOM     14  C   UNL     1      31.121 -23.236 -16.631  0.00  0.00    +0.352 C 
BRANCH  14  15
ATOM     15  O   UNL     1      30.140 -22.453 -17.127  0.00  0.00    -0.476 OA
ATOM     16  H   UNL     1      29.606 -21.946 -16.546  0.00  0.00    +0.295 HD
ENDBRANCH  14  15
ENDBRANCH   5  14
TORSDOF 2
ENDMDL
MODEL 8
REMARK VINA RESULT:      -7.4     11.706     13.595
REMARK  Name = 3845
REMARK  2 active torsions:
REMARK  status: ('A' for Active; 'I' for Inactive)
REMARK    1  A    between atoms: CA_5  and  C_14
REMARK    2  A    between atoms: C_14  and  O_15
REMARK                            x       y       z     vdW  Elec       q    Type
REMARK                         _______ _______ _______ _____ _____    ______ ____
ROOT
ATOM      1  O   UNL     1      34.570 -14.652 -21.080  0.00  0.00    -0.286 OA
ATOM      2  N   UNL     1      34.111 -16.647 -24.574  0.00  0.00    -0.307 N 
ATOM      3  C   UNL     1      34.533 -17.378 -23.457  0.00  0.00    +0.052 C 
ATOM      4  C   UNL     1      34.707 -16.730 -22.220  0.00  0.00    +0.052 C 
ATOM      5  CA  UNL     1      33.864 -15.303 -24.487  0.00  0.00    +0.128 C 
ATOM      6  C   UNL     1      34.438 -15.269 -22.130  0.00  0.00    +0.198 C 
ATOM      7  C   UNL     1      34.786 -18.751 -23.544  0.00  0.00    +0.015 C 
ATOM      8  C   UNL     1      33.993 -14.574 -23.371  0.00  0.00    +0.063 C 
ATOM      9  C   UNL     1      35.128 -17.440 -21.093  0.00  0.00    +0.004 C 
ATOM     10  C   UNL     1      35.205 -19.462 -22.418  0.00  0.00    +0.001 C 
ATOM     11  C   UNL     1      35.376 -18.807 -21.197  0.00  0.00    +0.000 C 
ATOM     12  H   UNL     1      33.989 -17.107 -25.436  0.00  0.00    +0.152 HD
ENDROOT
BRANCH   5  14
ATOM     13  OXT UNL     1      33.175 -13.412 -25.752  0.00  0.00    -0.244 OA
ATOM     14  C   UNL     1      33.427 -14.602 -25.696  0.00  0.00    +0.352 C 
BRANCH  14  15
ATOM     15  O   UNL     1      33.351 -15.475 -26.722  0.00  0.00    -0.476 OA
ATOM     16  H   UNL     1      33.946 -16.198 -26.768  0.00  0.00    +0.295 HD
ENDBRANCH  14  15
ENDBRANCH   5  14
TORSDOF 2
ENDMDL
MODEL 9
REMARK VINA RESULT:      -7.3      4.781      6.288
REMARK  Name = 3845
REMARK  2 active torsions:
REMARK  status: ('A' for Active; 'I' for Inactive)
REMARK    1  A    between atoms: CA_5  and  C_14
REMARK    2  A    between atoms: C_14  and  O_15
REMARK                            x       y       z     vdW  Elec       q    Type
REMARK                         _______ _______ _______ _____ _____    ______ ____
ROOT
ATOM      1  O   UNL     1      34.613 -23.790 -14.720  0.00  0.00    -0.286 OA
ATOM      2  N   UNL     1      32.087 -22.718 -17.699  0.00  0.00    -0.307 N 
ATOM      3  C   UNL     1      31.529 -23.042 -16.456  0.00  0.00    +0.052 C 
ATOM      4  C   UNL     1      32.365 -23.421 -15.390  0.00  0.00    +0.052 C 
ATOM      5  CA  UNL     1      33.441 -22.765 -17.899  0.00  0.00    +0.128 C 
ATOM      6  C   UNL     1      33.836 -23.469 -15.611  0.00  0.00    +0.198 C 
ATOM      7  C   UNL     1      30.146 -22.996 -16.250  0.00  0.00    +0.015 C 
ATOM      8  C   UNL     1      34.339 -23.109 -16.967  0.00  0.00    +0.063 C 
ATOM      9  C   UNL     1      31.829 -23.748 -14.141  0.00  0.00    +0.004 C 
ATOM     10  C   UNL     1      29.610 -23.322 -15.003  0.00  0.00    +0.001 C 
ATOM     11  C   UNL     1      30.450 -23.697 -13.953  0.00  0.00    +0.000 C 
ATOM     12  H   UNL     1      31.497 -22.452 -18.440  0.00  0.00    +0.152 HD
ENDROOT
BRANCH   5  14
ATOM     13  OXT UNL     1      35.116 -22.533 -19.569  0.00  0.00    -0.244 OA
ATOM     14  C   UNL     1      33.955 -22.415 -19.225  0.00  0.00    +0.352 C 
BRANCH  14  15
ATOM     15  O   UNL     1      32.947 -21.948 -19.992  0.00  0.00    -0.476 OA
ATOM     16  H   UNL     1      32.103 -21.794 -19.614  0.00  0.00    +0.295 HD
ENDBRANCH  14  15
ENDBRANCH   5  14
TORSDOF 2
ENDMDL
