MODEL 1
REMARK VINA RESULT:      -6.5      0.000      0.000
REMARK  Name = 24788740
REMARK  6 active torsions:
REMARK  status: ('A' for Active; 'I' for Inactive)
REMARK    1  A    between atoms: C_9  and  O_19
REMARK    2  A    between atoms: C_17  and  C_21
REMARK    3  A    between atoms: C_21  and  C_23
REMARK    4  A    between atoms: C_21  and  C_29
REMARK    5  A    between atoms: C_29  and  N_30
REMARK    6  A    between atoms: N_30  and  C_33
REMARK                            x       y       z     vdW  Elec       q    Type
REMARK                         _______ _______ _______ _____ _____    ______ ____
ROOT
ATOM      1  O   UNL     1      31.977 -14.497 -22.790  0.00  0.00    -0.275 OA
ATOM      2  N   UNL     1      32.499  -9.681 -22.248  0.00  0.00    -0.293 N 
ATOM      3  N   UNL     1      32.614 -12.313 -23.256  0.00  0.00    -0.276 N 
ATOM      4  N   UNL     1      32.337  -5.878 -20.554  0.00  0.00    -0.250 NA
ATOM      5  N   UNL     1      33.130  -8.171 -20.534  0.00  0.00    -0.234 NA
ATOM      6  C   UNL     1      30.891  -7.465 -23.542  0.00  0.00    +0.015 C 
ATOM      7  C   UNL     1      31.697  -7.434 -22.285  0.00  0.00    +0.092 C 
ATOM      8  C   UNL     1      30.037  -6.190 -23.358  0.00  0.00    +0.036 C 
ATOM      9  C   UNL     1      30.861  -5.221 -22.491  0.00  0.00    +0.146 C 
ATOM     10  C   UNL     1      31.674  -6.189 -21.677  0.00  0.00    +0.067 C 
ATOM     11  C   UNL     1      32.446  -8.405 -21.675  0.00  0.00    +0.111 C 
ATOM     12  C   UNL     1      31.487 -10.663 -21.825  0.00  0.00    +0.113 C 
ATOM     13  C   UNL     1      33.793 -10.233 -22.673  0.00  0.00    +0.113 C 
ATOM     14  C   UNL     1      31.320 -11.744 -22.890  0.00  0.00    +0.115 C 
ATOM     15  C   UNL     1      33.587 -11.325 -23.722  0.00  0.00    +0.115 C 
ATOM     16  C   UNL     1      31.766  -7.407 -24.788  0.00  0.00    +0.001 C 
ATOM     17  C   UNL     1      32.827 -13.687 -23.168  0.00  0.00    +0.227 C 
ATOM     18  C   UNL     1      33.033  -6.912 -20.039  0.00  0.00    +0.251 C 
ENDROOT
BRANCH   9  19
ATOM     19  O   UNL     1      30.027  -4.425 -21.675  0.00  0.00    -0.379 OA
ATOM     20  H   UNL     1      30.280  -4.540 -20.746  0.00  0.00    +0.211 HD
ENDBRANCH   9  19
BRANCH  17  21
ATOM     21  C   UNL     1      34.195 -14.183 -23.565  0.00  0.00    +0.078 C 
BRANCH  21  23
ATOM     22 CL   UNL     1      35.418 -19.365 -20.747  0.00  0.00    -0.082 Cl
ATOM     23  C   UNL     1      34.501 -15.486 -22.857  0.00  0.00    -0.016 C 
ATOM     24  C   UNL     1      34.682 -16.655 -23.595  0.00  0.00    -0.003 C 
ATOM     25  C   UNL     1      34.603 -15.515 -21.465  0.00  0.00    -0.003 C 
ATOM     26  C   UNL     1      34.967 -17.854 -22.943  0.00  0.00    +0.011 C 
ATOM     27  C   UNL     1      34.888 -16.715 -20.814  0.00  0.00    +0.011 C 
ATOM     28  C   UNL     1      35.069 -17.885 -21.552  0.00  0.00    +0.058 C 
ENDBRANCH  21  23
BRANCH  21  29
ATOM     29  C   UNL     1      34.259 -14.268 -25.095  0.00  0.00    -0.068 C 
BRANCH  29  30
ATOM     30  N   UNL     1      32.922 -14.263 -25.682  0.00  0.00    +0.386 N 
ATOM     31  H   UNL     1      32.322 -13.639 -25.143  0.00  0.00    -0.084 HD
ATOM     32  H   UNL     1      32.553 -15.214 -25.665  0.00  0.00    -0.084 HD
BRANCH  30  33
ATOM     33  C   UNL     1      32.966 -13.807 -27.063  0.00  0.00    -0.062 C 
ATOM     34  C   UNL     1      34.230 -12.988 -27.312  0.00  0.00    -0.023 C 
ATOM     35  C   UNL     1      31.715 -12.987 -27.368  0.00  0.00    -0.023 C 
ENDBRANCH  30  33
ENDBRANCH  29  30
ENDBRANCH  21  29
ENDBRANCH  17  21
TORSDOF 6
ENDMDL
MODEL 2
REMARK VINA RESULT:      -6.3      3.039      8.339
REMARK  Name = 24788740
REMARK  6 active torsions:
REMARK  status: ('A' for Active; 'I' for Inactive)
REMARK    1  A    between atoms: C_9  and  O_19
REMARK    2  A    between atoms: C_17  and  C_21
REMARK    3  A    between atoms: C_21  and  C_23
REMARK    4  A    between atoms: C_21  and  C_29
REMARK    5  A    between atoms: C_29  and  N_30
REMARK    6  A    between atoms: N_30  and  C_33
REMARK                            x       y       z     vdW  Elec       q    Type
REMARK                         _______ _______ _______ _____ _____    ______ ____
ROOT
ATOM      1  O   UNL     1      33.861  -8.810 -23.767  0.00  0.00    -0.275 OA
ATOM      2  N   UNL     1      33.779 -13.632 -23.058  0.00  0.00    -0.293 N 
ATOM      3  N   UNL     1      33.053 -10.986 -23.716  0.00  0.00    -0.276 N 
ATOM      4  N   UNL     1      34.981 -17.458 -21.927  0.00  0.00    -0.250 NA
ATOM      5  N   UNL     1      34.422 -15.164 -21.368  0.00  0.00    -0.234 NA
ATOM      6  C   UNL     1      34.111 -15.833 -25.112  0.00  0.00    +0.015 C 
ATOM      7  C   UNL     1      34.335 -15.879 -23.636  0.00  0.00    +0.092 C 
ATOM      8  C   UNL     1      34.861 -17.111 -25.548  0.00  0.00    +0.036 C 
ATOM      9  C   UNL     1      34.805 -18.091 -24.362  0.00  0.00    +0.146 C 
ATOM     10  C   UNL     1      34.741 -17.132 -23.205  0.00  0.00    +0.067 C 
ATOM     11  C   UNL     1      34.185 -14.916 -22.674  0.00  0.00    +0.111 C 
ATOM     12  C   UNL     1      34.828 -12.658 -23.400  0.00  0.00    +0.113 C 
ATOM     13  C   UNL     1      32.532 -13.073 -22.518  0.00  0.00    +0.113 C 
ATOM     14  C   UNL     1      34.261 -11.562 -24.301  0.00  0.00    +0.115 C 
ATOM     15  C   UNL     1      32.005 -11.967 -23.432  0.00  0.00    +0.115 C 
ATOM     16  C   UNL     1      32.631 -15.873 -25.470  0.00  0.00    +0.001 C 
ATOM     17  C   UNL     1      32.965  -9.614 -23.497  0.00  0.00    +0.227 C 
ATOM     18  C   UNL     1      34.809 -16.429 -21.071  0.00  0.00    +0.251 C 
ENDROOT
BRANCH   9  19
ATOM     19  O   UNL     1      35.962 -18.898 -24.307  0.00  0.00    -0.379 OA
ATOM     20  H   UNL     1      36.262 -18.971 -23.388  0.00  0.00    +0.211 HD
ENDBRANCH   9  19
BRANCH  17  21
ATOM     21  C   UNL     1      31.681  -9.110 -22.888  0.00  0.00    +0.078 C 
BRANCH  21  23
ATOM     22 CL   UNL     1      31.187 -11.055 -17.208  0.00  0.00    -0.082 Cl
ATOM     23  C   UNL     1      31.556  -9.598 -21.460  0.00  0.00    -0.016 C 
ATOM     24  C   UNL     1      30.658 -10.618 -21.148  0.00  0.00    -0.003 C 
ATOM     25  C   UNL     1      32.341  -9.028 -20.457  0.00  0.00    -0.003 C 
ATOM     26  C   UNL     1      30.544 -11.070 -19.834  0.00  0.00    +0.011 C 
ATOM     27  C   UNL     1      32.227  -9.479 -19.143  0.00  0.00    +0.011 C 
ATOM     28  C   UNL     1      31.328 -10.500 -18.830  0.00  0.00    +0.058 C 
ENDBRANCH  21  23
BRANCH  21  29
ATOM     29  C   UNL     1      31.634  -7.583 -23.038  0.00  0.00    -0.068 C 
BRANCH  29  30
ATOM     30  N   UNL     1      31.227  -7.196 -24.385  0.00  0.00    +0.386 N 
ATOM     31  H   UNL     1      30.245  -7.439 -24.520  0.00  0.00    -0.084 HD
ATOM     32  H   UNL     1      31.810  -7.691 -25.059  0.00  0.00    -0.084 HD
BRANCH  30  33
ATOM     33  C   UNL     1      31.396  -5.765 -24.585  0.00  0.00    -0.062 C 
ATOM     34  C   UNL     1      32.735  -5.479 -25.260  0.00  0.00    -0.023 C 
ATOM     35  C   UNL     1      31.296  -5.048 -23.242  0.00  0.00    -0.023 C 
ENDBRANCH  30  33
ENDBRANCH  29  30
ENDBRANCH  21  29
ENDBRANCH  17  21
TORSDOF 6
ENDMDL
MODEL 3
REMARK VINA RESULT:      -6.1      4.037      9.483
REMARK  Name = 24788740
REMARK  6 active torsions:
REMARK  status: ('A' for Active; 'I' for Inactive)
REMARK    1  A    between atoms: C_9  and  O_19
REMARK    2  A    between atoms: C_17  and  C_21
REMARK    3  A    between atoms: C_21  and  C_23
REMARK    4  A    between atoms: C_21  and  C_29
REMARK    5  A    between atoms: C_29  and  N_30
REMARK    6  A    between atoms: N_30  and  C_33
REMARK                            x       y       z     vdW  Elec       q    Type
REMARK                         _______ _______ _______ _____ _____    ______ ____
ROOT
ATOM      1  O   UNL     1      35.073  -6.777 -23.827  0.00  0.00    -0.275 OA
ATOM      2  N   UNL     1      33.509 -11.391 -23.982  0.00  0.00    -0.293 N 
ATOM      3  N   UNL     1      33.671  -8.585 -24.223  0.00  0.00    -0.276 N 
ATOM      4  N   UNL     1      33.396 -15.521 -23.446  0.00  0.00    -0.250 NA
ATOM      5  N   UNL     1      33.457 -13.271 -22.540  0.00  0.00    -0.234 NA
ATOM      6  C   UNL     1      33.452 -13.271 -26.356  0.00  0.00    +0.015 C 
ATOM      7  C   UNL     1      33.461 -13.594 -24.898  0.00  0.00    +0.092 C 
ATOM      8  C   UNL     1      33.851 -14.642 -26.948  0.00  0.00    +0.036 C 
ATOM      9  C   UNL     1      33.361 -15.715 -25.960  0.00  0.00    +0.146 C 
ATOM     10  C   UNL     1      33.428 -14.959 -24.662  0.00  0.00    +0.067 C 
ATOM     11  C   UNL     1      33.473 -12.779 -23.798  0.00  0.00    +0.111 C 
ATOM     12  C   UNL     1      34.830 -10.747 -24.063  0.00  0.00    +0.113 C 
ATOM     13  C   UNL     1      32.419 -10.560 -23.455  0.00  0.00    +0.113 C 
ATOM     14  C   UNL     1      34.726  -9.413 -24.800  0.00  0.00    +0.115 C 
ATOM     15  C   UNL     1      32.357  -9.227 -24.200  0.00  0.00    +0.115 C 
ATOM     16  C   UNL     1      32.083 -12.804 -26.833  0.00  0.00    +0.001 C 
ATOM     17  C   UNL     1      33.956  -7.297 -23.774  0.00  0.00    +0.227 C 
ATOM     18  C   UNL     1      33.420 -14.623 -22.439  0.00  0.00    +0.251 C 
ENDROOT
BRANCH   9  19
ATOM     19  O   UNL     1      34.218 -16.838 -25.954  0.00  0.00    -0.379 OA
ATOM     20  H   UNL     1      34.041 -17.383 -26.736  0.00  0.00    +0.211 HD
ENDBRANCH   9  19
BRANCH  17  21
ATOM     21  C   UNL     1      32.805  -6.517 -23.191  0.00  0.00    +0.078 C 
BRANCH  21  23
ATOM     22 CL   UNL     1      31.156  -2.129 -26.974  0.00  0.00    -0.082 Cl
ATOM     23  C   UNL     1      32.389  -5.415 -24.142  0.00  0.00    -0.016 C 
ATOM     24  C   UNL     1      31.569  -4.380 -23.694  0.00  0.00    -0.003 C 
ATOM     25  C   UNL     1      32.829  -5.434 -25.466  0.00  0.00    -0.003 C 
ATOM     26  C   UNL     1      31.189  -3.363 -24.570  0.00  0.00    +0.011 C 
ATOM     27  C   UNL     1      32.449  -4.417 -26.341  0.00  0.00    +0.011 C 
ATOM     28  C   UNL     1      31.627  -3.382 -25.894  0.00  0.00    +0.058 C 
ENDBRANCH  21  23
BRANCH  21  29
ATOM     29  C   UNL     1      31.680  -7.497 -22.834  0.00  0.00    -0.068 C 
BRANCH  29  30
ATOM     30  N   UNL     1      31.328  -7.406 -21.419  0.00  0.00    +0.386 N 
ATOM     31  H   UNL     1      30.508  -7.985 -21.241  0.00  0.00    -0.084 HD
ATOM     32  H   UNL     1      31.131  -6.431 -21.193  0.00  0.00    -0.084 HD
BRANCH  30  33
ATOM     33  C   UNL     1      32.427  -7.866 -20.583  0.00  0.00    -0.062 C 
ATOM     34  C   UNL     1      32.032  -9.141 -19.844  0.00  0.00    -0.023 C 
ATOM     35  C   UNL     1      32.815  -6.763 -19.602  0.00  0.00    -0.023 C 
ENDBRANCH  30  33
ENDBRANCH  29  30
ENDBRANCH  21  29
ENDBRANCH  17  21
TORSDOF 6
ENDMDL
MODEL 4
REMARK VINA RESULT:      -5.8      3.742      9.212
REMARK  Name = 24788740
REMARK  6 active torsions:
REMARK  status: ('A' for Active; 'I' for Inactive)
REMARK    1  A    between atoms: C_9  and  O_19
REMARK    2  A    between atoms: C_17  and  C_21
REMARK    3  A    between atoms: C_21  and  C_23
REMARK    4  A    between atoms: C_21  and  C_29
REMARK    5  A    between atoms: C_29  and  N_30
REMARK    6  A    between atoms: N_30  and  C_33
REMARK                            x       y       z     vdW  Elec       q    Type
REMARK                         _______ _______ _______ _____ _____    ______ ____
ROOT
ATOM      1  O   UNL     1      30.494  -9.067 -22.737  0.00  0.00    -0.275 OA
ATOM      2  N   UNL     1      33.134 -13.095 -23.490  0.00  0.00    -0.293 N 
ATOM      3  N   UNL     1      32.322 -10.499 -22.741  0.00  0.00    -0.276 N 
ATOM      4  N   UNL     1      34.190 -16.918 -24.765  0.00  0.00    -0.250 NA
ATOM      5  N   UNL     1      33.505 -14.641 -25.247  0.00  0.00    -0.234 NA
ATOM      6  C   UNL     1      33.860 -15.258 -21.498  0.00  0.00    +0.015 C 
ATOM      7  C   UNL     1      33.796 -15.332 -22.988  0.00  0.00    +0.092 C 
ATOM      8  C   UNL     1      33.860 -16.762 -21.144  0.00  0.00    +0.036 C 
ATOM      9  C   UNL     1      34.502 -17.502 -22.331  0.00  0.00    +0.146 C 
ATOM     10  C   UNL     1      34.136 -16.587 -23.467  0.00  0.00    +0.067 C 
ATOM     11  C   UNL     1      33.486 -14.379 -23.922  0.00  0.00    +0.111 C 
ATOM     12  C   UNL     1      31.709 -12.829 -23.231  0.00  0.00    +0.113 C 
ATOM     13  C   UNL     1      33.938 -11.940 -23.911  0.00  0.00    +0.113 C 
ATOM     14  C   UNL     1      31.556 -11.650 -22.272  0.00  0.00    +0.115 C 
ATOM     15  C   UNL     1      33.745 -10.775 -22.942  0.00  0.00    +0.115 C 
ATOM     16  C   UNL     1      35.113 -14.543 -21.011  0.00  0.00    +0.001 C 
ATOM     17  C   UNL     1      31.695  -9.271 -22.936  0.00  0.00    +0.227 C 
ATOM     18  C   UNL     1      33.858 -15.904 -25.591  0.00  0.00    +0.251 C 
ENDROOT
BRANCH   9  19
ATOM     19  O   UNL     1      33.944 -18.789 -22.497  0.00  0.00    -0.379 OA
ATOM     20  H   UNL     1      32.991 -18.710 -22.655  0.00  0.00    +0.211 HD
ENDBRANCH   9  19
BRANCH  17  21
ATOM     21  C   UNL     1      32.565  -8.140 -23.424  0.00  0.00    +0.078 C 
BRANCH  21  23
ATOM     22 CL   UNL     1      29.881  -2.852 -22.368  0.00  0.00    -0.082 Cl
ATOM     23  C   UNL     1      31.889  -6.812 -23.159  0.00  0.00    -0.016 C 
ATOM     24  C   UNL     1      31.601  -6.425 -21.851  0.00  0.00    -0.003 C 
ATOM     25  C   UNL     1      31.557  -5.974 -24.224  0.00  0.00    -0.003 C 
ATOM     26  C   UNL     1      30.981  -5.200 -21.606  0.00  0.00    +0.011 C 
ATOM     27  C   UNL     1      30.937  -4.749 -23.979  0.00  0.00    +0.011 C 
ATOM     28  C   UNL     1      30.648  -4.362 -22.670  0.00  0.00    +0.058 C 
ENDBRANCH  21  23
BRANCH  21  29
ATOM     29  C   UNL     1      33.953  -8.280 -22.785  0.00  0.00    -0.068 C 
BRANCH  29  30
ATOM     30  N   UNL     1      34.977  -7.625 -23.594  0.00  0.00    +0.386 N 
ATOM     31  H   UNL     1      35.874  -8.084 -23.433  0.00  0.00    -0.084 HD
ATOM     32  H   UNL     1      35.027  -6.642 -23.326  0.00  0.00    -0.084 HD
BRANCH  30  33
ATOM     33  C   UNL     1      34.647  -7.705 -25.009  0.00  0.00    -0.062 C 
ATOM     34  C   UNL     1      35.375  -8.880 -25.657  0.00  0.00    -0.023 C 
ATOM     35  C   UNL     1      35.012  -6.391 -25.692  0.00  0.00    -0.023 C 
ENDBRANCH  30  33
ENDBRANCH  29  30
ENDBRANCH  21  29
ENDBRANCH  17  21
TORSDOF 6
ENDMDL
MODEL 5
REMARK VINA RESULT:      -5.3      6.936     11.289
REMARK  Name = 24788740
REMARK  6 active torsions:
REMARK  status: ('A' for Active; 'I' for Inactive)
REMARK    1  A    between atoms: C_9  and  O_19
REMARK    2  A    between atoms: C_17  and  C_21
REMARK    3  A    between atoms: C_21  and  C_23
REMARK    4  A    between atoms: C_21  and  C_29
REMARK    5  A    between atoms: C_29  and  N_30
REMARK    6  A    between atoms: N_30  and  C_33
REMARK                            x       y       z     vdW  Elec       q    Type
REMARK                         _______ _______ _______ _____ _____    ______ ____
ROOT
ATOM      1  O   UNL     1      37.075 -22.154 -17.882  0.00  0.00    -0.275 OA
ATOM      2  N   UNL     1      34.913 -19.655 -21.465  0.00  0.00    -0.293 N 
ATOM      3  N   UNL     1      35.438 -20.968 -19.024  0.00  0.00    -0.276 N 
ATOM      4  N   UNL     1      34.269 -17.862 -25.171  0.00  0.00    -0.250 NA
ATOM      5  N   UNL     1      34.647 -19.837 -23.813  0.00  0.00    -0.234 NA
ATOM      6  C   UNL     1      34.554 -16.657 -21.706  0.00  0.00    +0.015 C 
ATOM      7  C   UNL     1      34.554 -17.695 -22.779  0.00  0.00    +0.092 C 
ATOM      8  C   UNL     1      34.755 -15.380 -22.553  0.00  0.00    +0.036 C 
ATOM      9  C   UNL     1      34.150 -15.664 -23.940  0.00  0.00    +0.146 C 
ATOM     10  C   UNL     1      34.346 -17.152 -24.037  0.00  0.00    +0.067 C 
ATOM     11  C   UNL     1      34.699 -19.056 -22.713  0.00  0.00    +0.111 C 
ATOM     12  C   UNL     1      36.305 -19.817 -21.016  0.00  0.00    +0.113 C 
ATOM     13  C   UNL     1      33.954 -20.647 -20.962  0.00  0.00    +0.113 C 
ATOM     14  C   UNL     1      36.361 -19.938 -19.494  0.00  0.00    +0.115 C 
ATOM     15  C   UNL     1      34.051 -20.758 -19.441  0.00  0.00    +0.115 C 
ATOM     16  C   UNL     1      33.248 -16.640 -20.923  0.00  0.00    +0.001 C 
ATOM     17  C   UNL     1      35.900 -22.017 -18.233  0.00  0.00    +0.227 C 
ATOM     18  C   UNL     1      34.434 -19.188 -24.984  0.00  0.00    +0.251 C 
ENDROOT
BRANCH   9  19
ATOM     19  O   UNL     1      34.852 -14.978 -24.956  0.00  0.00    -0.379 OA
ATOM     20  H   UNL     1      34.753 -15.455 -25.795  0.00  0.00    +0.211 HD
ENDBRANCH   9  19
BRANCH  17  21
ATOM     21  C   UNL     1      34.876 -23.034 -17.797  0.00  0.00    +0.078 C 
BRANCH  21  23
ATOM     22 CL   UNL     1      36.141 -24.984 -12.239  0.00  0.00    -0.082 Cl
ATOM     23  C   UNL     1      35.193 -23.524 -16.400  0.00  0.00    -0.016 C 
ATOM     24  C   UNL     1      35.264 -24.892 -16.141  0.00  0.00    -0.003 C 
ATOM     25  C   UNL     1      35.415 -22.606 -15.373  0.00  0.00    -0.003 C 
ATOM     26  C   UNL     1      35.558 -25.344 -14.854  0.00  0.00    +0.011 C 
ATOM     27  C   UNL     1      35.709 -23.058 -14.087  0.00  0.00    +0.011 C 
ATOM     28  C   UNL     1      35.780 -24.427 -13.826  0.00  0.00    +0.058 C 
ENDBRANCH  21  23
BRANCH  21  29
ATOM     29  C   UNL     1      33.480 -22.417 -17.946  0.00  0.00    -0.068 C 
BRANCH  29  30
ATOM     30  N   UNL     1      32.440 -23.351 -17.523  0.00  0.00    +0.386 N 
ATOM     31  H   UNL     1      32.874 -24.235 -17.255  0.00  0.00    -0.084 HD
ATOM     32  H   UNL     1      31.792 -23.493 -18.297  0.00  0.00    -0.084 HD
BRANCH  30  33
ATOM     33  C   UNL     1      31.700 -22.821 -16.387  0.00  0.00    -0.062 C 
ATOM     34  C   UNL     1      31.949 -23.675 -15.147  0.00  0.00    -0.023 C 
ATOM     35  C   UNL     1      30.214 -22.770 -16.728  0.00  0.00    -0.023 C 
ENDBRANCH  30  33
ENDBRANCH  29  30
ENDBRANCH  21  29
ENDBRANCH  17  21
TORSDOF 6
ENDMDL
MODEL 6
REMARK VINA RESULT:      -5.3      2.912      8.826
REMARK  Name = 24788740
REMARK  6 active torsions:
REMARK  status: ('A' for Active; 'I' for Inactive)
REMARK    1  A    between atoms: C_9  and  O_19
REMARK    2  A    between atoms: C_17  and  C_21
REMARK    3  A    between atoms: C_21  and  C_23
REMARK    4  A    between atoms: C_21  and  C_29
REMARK    5  A    between atoms: C_29  and  N_30
REMARK    6  A    between atoms: N_30  and  C_33
REMARK                            x       y       z     vdW  Elec       q    Type
REMARK                         _______ _______ _______ _____ _____    ______ ____
ROOT
ATOM      1  O   UNL     1      30.627 -10.895 -22.388  0.00  0.00    -0.275 OA
ATOM      2  N   UNL     1      33.576 -14.727 -23.003  0.00  0.00    -0.293 N 
ATOM      3  N   UNL     1      32.521 -12.229 -22.226  0.00  0.00    -0.276 N 
ATOM      4  N   UNL     1      35.014 -18.404 -24.335  0.00  0.00    -0.250 NA
ATOM      5  N   UNL     1      34.264 -16.139 -24.778  0.00  0.00    -0.234 NA
ATOM      6  C   UNL     1      34.163 -16.971 -21.055  0.00  0.00    +0.015 C 
ATOM      7  C   UNL     1      34.298 -16.955 -22.542  0.00  0.00    +0.092 C 
ATOM      8  C   UNL     1      34.205 -18.492 -20.787  0.00  0.00    +0.036 C 
ATOM      9  C   UNL     1      35.039 -19.122 -21.918  0.00  0.00    +0.146 C 
ATOM     10  C   UNL     1      34.771 -18.158 -23.040  0.00  0.00    +0.067 C 
ATOM     11  C   UNL     1      34.057 -15.962 -23.454  0.00  0.00    +0.111 C 
ATOM     12  C   UNL     1      32.116 -14.551 -22.923  0.00  0.00    +0.113 C 
ATOM     13  C   UNL     1      34.359 -13.509 -23.248  0.00  0.00    +0.113 C 
ATOM     14  C   UNL     1      31.770 -13.445 -21.929  0.00  0.00    +0.115 C 
ATOM     15  C   UNL     1      33.972 -12.418 -22.251  0.00  0.00    +0.115 C 
ATOM     16  C   UNL     1      35.297 -16.224 -20.366  0.00  0.00    +0.001 C 
ATOM     17  C   UNL     1      31.853 -11.024 -22.436  0.00  0.00    +0.227 C 
ATOM     18  C   UNL     1      34.734 -17.358 -25.140  0.00  0.00    +0.251 C 
ENDROOT
BRANCH   9  19
ATOM     19  O   UNL     1      34.585 -20.423 -22.227  0.00  0.00    -0.379 OA
ATOM     20  H   UNL     1      35.102 -21.073 -21.726  0.00  0.00    +0.211 HD
ENDBRANCH   9  19
BRANCH  17  21
ATOM     21  C   UNL     1      32.711  -9.822 -22.739  0.00  0.00    +0.078 C 
BRANCH  21  23
ATOM     22 CL   UNL     1      36.125 -10.889 -27.586  0.00  0.00    -0.082 Cl
ATOM     23  C   UNL     1      33.568 -10.089 -23.958  0.00  0.00    -0.016 C 
ATOM     24  C   UNL     1      34.768  -9.400 -24.131  0.00  0.00    -0.003 C 
ATOM     25  C   UNL     1      33.158 -11.026 -24.907  0.00  0.00    -0.003 C 
ATOM     26  C   UNL     1      35.559  -9.648 -25.252  0.00  0.00    +0.011 C 
ATOM     27  C   UNL     1      33.949 -11.274 -26.028  0.00  0.00    +0.011 C 
ATOM     28  C   UNL     1      35.150 -10.585 -26.202  0.00  0.00    +0.058 C 
ENDBRANCH  21  23
BRANCH  21  29
ATOM     29  C   UNL     1      31.802  -8.592 -22.866  0.00  0.00    -0.068 C 
BRANCH  29  30
ATOM     30  N   UNL     1      31.808  -7.802 -21.638  0.00  0.00    +0.386 N 
ATOM     31  H   UNL     1      32.560  -8.131 -21.032  0.00  0.00    -0.084 HD
ATOM     32  H   UNL     1      30.906  -7.909 -21.175  0.00  0.00    -0.084 HD
BRANCH  30  33
ATOM     33  C   UNL     1      32.015  -6.392 -21.933  0.00  0.00    -0.062 C 
ATOM     34  C   UNL     1      30.749  -5.595 -21.631  0.00  0.00    -0.023 C 
ATOM     35  C   UNL     1      32.427  -6.232 -23.393  0.00  0.00    -0.023 C 
ENDBRANCH  30  33
ENDBRANCH  29  30
ENDBRANCH  21  29
ENDBRANCH  17  21
TORSDOF 6
ENDMDL
MODEL 7
REMARK VINA RESULT:      -5.1      3.025      5.254
REMARK  Name = 24788740
REMARK  6 active torsions:
REMARK  status: ('A' for Active; 'I' for Inactive)
REMARK    1  A    between atoms: C_9  and  O_19
REMARK    2  A    between atoms: C_17  and  C_21
REMARK    3  A    between atoms: C_21  and  C_23
REMARK    4  A    between atoms: C_21  and  C_29
REMARK    5  A    between atoms: C_29  and  N_30
REMARK    6  A    between atoms: N_30  and  C_33
REMARK                            x       y       z     vdW  Elec       q    Type
REMARK                         _______ _______ _______ _____ _____    ______ ____
ROOT
ATOM      1  O   UNL     1      36.080 -17.538 -20.219  0.00  0.00    -0.275 OA
ATOM      2  N   UNL     1      33.786 -13.837 -22.409  0.00  0.00    -0.293 N 
ATOM      3  N   UNL     1      34.359 -16.311 -21.180  0.00  0.00    -0.276 N 
ATOM      4  N   UNL     1      33.145 -10.183 -24.305  0.00  0.00    -0.250 NA
ATOM      5  N   UNL     1      34.161 -12.385 -24.244  0.00  0.00    -0.234 NA
ATOM      6  C   UNL     1      32.031 -11.713 -21.150  0.00  0.00    +0.015 C 
ATOM      7  C   UNL     1      32.784 -11.671 -22.439  0.00  0.00    +0.092 C 
ATOM      8  C   UNL     1      31.741 -10.209 -20.948  0.00  0.00    +0.036 C 
ATOM      9  C   UNL     1      31.676  -9.574 -22.349  0.00  0.00    +0.146 C 
ATOM     10  C   UNL     1      32.608 -10.473 -23.112  0.00  0.00    +0.067 C 
ATOM     11  C   UNL     1      33.575 -12.609 -23.048  0.00  0.00    +0.111 C 
ATOM     12  C   UNL     1      34.937 -13.942 -21.497  0.00  0.00    +0.113 C 
ATOM     13  C   UNL     1      33.374 -15.082 -23.071  0.00  0.00    +0.113 C 
ATOM     14  C   UNL     1      34.716 -15.072 -20.493  0.00  0.00    +0.115 C 
ATOM     15  C   UNL     1      33.182 -16.194 -22.041  0.00  0.00    +0.115 C 
ATOM     16  C   UNL     1      30.760 -12.546 -21.254  0.00  0.00    +0.001 C 
ATOM     17  C   UNL     1      35.103 -17.469 -20.970  0.00  0.00    +0.227 C 
ATOM     18  C   UNL     1      33.909 -11.177 -24.804  0.00  0.00    +0.251 C 
ENDROOT
BRANCH   9  19
ATOM     19  O   UNL     1      32.138  -8.239 -22.329  0.00  0.00    -0.379 OA
ATOM     20  H   UNL     1      33.069  -8.223 -22.058  0.00  0.00    +0.211 HD
ENDBRANCH   9  19
BRANCH  17  21
ATOM     21  C   UNL     1      34.663 -18.699 -21.723  0.00  0.00    +0.078 C 
BRANCH  21  23
ATOM     22 CL   UNL     1      33.529 -23.194 -17.876  0.00  0.00    -0.082 Cl
ATOM     23  C   UNL     1      34.378 -19.828 -20.755  0.00  0.00    -0.016 C 
ATOM     24  C   UNL     1      33.071 -20.072 -20.334  0.00  0.00    -0.003 C 
ATOM     25  C   UNL     1      35.423 -20.624 -20.287  0.00  0.00    -0.003 C 
ATOM     26  C   UNL     1      32.808 -21.114 -19.445  0.00  0.00    +0.011 C 
ATOM     27  C   UNL     1      35.160 -21.666 -19.397  0.00  0.00    +0.011 C 
ATOM     28  C   UNL     1      33.853 -21.911 -18.975  0.00  0.00    +0.058 C 
ENDBRANCH  21  23
BRANCH  21  29
ATOM     29  C   UNL     1      33.476 -18.324 -22.620  0.00  0.00    -0.068 C 
BRANCH  29  30
ATOM     30  N   UNL     1      33.477 -19.106 -23.853  0.00  0.00    +0.386 N 
ATOM     31  H   UNL     1      32.725 -18.775 -24.459  0.00  0.00    -0.084 HD
ATOM     32  H   UNL     1      33.337 -20.088 -23.619  0.00  0.00    -0.084 HD
BRANCH  30  33
ATOM     33  C   UNL     1      34.746 -18.969 -24.551  0.00  0.00    -0.062 C 
ATOM     34  C   UNL     1      34.743 -17.711 -25.416  0.00  0.00    -0.023 C 
ATOM     35  C   UNL     1      34.999 -20.214 -25.396  0.00  0.00    -0.023 C 
ENDBRANCH  30  33
ENDBRANCH  29  30
ENDBRANCH  21  29
ENDBRANCH  17  21
TORSDOF 6
ENDMDL
MODEL 8
REMARK VINA RESULT:      -5.0      6.643     10.907
REMARK  Name = 24788740
REMARK  6 active torsions:
REMARK  status: ('A' for Active; 'I' for Inactive)
REMARK    1  A    between atoms: C_9  and  O_19
REMARK    2  A    between atoms: C_17  and  C_21
REMARK    3  A    between atoms: C_21  and  C_23
REMARK    4  A    between atoms: C_21  and  C_29
REMARK    5  A    between atoms: C_29  and  N_30
REMARK    6  A    between atoms: N_30  and  C_33
REMARK                            x       y       z     vdW  Elec       q    Type
REMARK                         _______ _______ _______ _____ _____    ______ ____
ROOT
ATOM      1  O   UNL     1      31.949 -22.197 -18.327  0.00  0.00    -0.275 OA
ATOM      2  N   UNL     1      34.158 -18.889 -21.145  0.00  0.00    -0.293 N 
ATOM      3  N   UNL     1      33.584 -21.211 -19.649  0.00  0.00    -0.276 N 
ATOM      4  N   UNL     1      34.885 -15.344 -23.210  0.00  0.00    -0.250 NA
ATOM      5  N   UNL     1      34.531 -16.549 -21.134  0.00  0.00    -0.234 NA
ATOM      6  C   UNL     1      34.405 -18.865 -24.163  0.00  0.00    +0.015 C 
ATOM      7  C   UNL     1      34.493 -17.727 -23.202  0.00  0.00    +0.092 C 
ATOM      8  C   UNL     1      34.188 -18.097 -25.487  0.00  0.00    +0.036 C 
ATOM      9  C   UNL     1      34.862 -16.723 -25.321  0.00  0.00    +0.146 C 
ATOM     10  C   UNL     1      34.731 -16.519 -23.838  0.00  0.00    +0.067 C 
ATOM     11  C   UNL     1      34.401 -17.696 -21.835  0.00  0.00    +0.111 C 
ATOM     12  C   UNL     1      32.756 -19.264 -20.900  0.00  0.00    +0.113 C 
ATOM     13  C   UNL     1      35.134 -19.368 -20.157  0.00  0.00    +0.113 C 
ATOM     14  C   UNL     1      32.640 -20.770 -20.673  0.00  0.00    +0.115 C 
ATOM     15  C   UNL     1      34.977 -20.872 -19.939  0.00  0.00    +0.115 C 
ATOM     16  C   UNL     1      35.674 -19.706 -24.177  0.00  0.00    +0.001 C 
ATOM     17  C   UNL     1      33.131 -21.909 -18.531  0.00  0.00    +0.227 C 
ATOM     18  C   UNL     1      34.767 -15.435 -21.869  0.00  0.00    +0.251 C 
ENDROOT
BRANCH   9  19
ATOM     19  O   UNL     1      34.177 -15.724 -26.048  0.00  0.00    -0.379 OA
ATOM     20  H   UNL     1      34.402 -15.798 -26.989  0.00  0.00    +0.211 HD
ENDBRANCH   9  19
BRANCH  17  21
ATOM     21  C   UNL     1      34.176 -22.322 -17.527  0.00  0.00    +0.078 C 
BRANCH  21  23
ATOM     22 CL   UNL     1      31.609 -25.354 -12.998  0.00  0.00    -0.082 Cl
ATOM     23  C   UNL     1      33.531 -23.085 -16.389  0.00  0.00    -0.016 C 
ATOM     24  C   UNL     1      34.326 -23.746 -15.454  0.00  0.00    -0.003 C 
ATOM     25  C   UNL     1      32.141 -23.125 -16.277  0.00  0.00    -0.003 C 
ATOM     26  C   UNL     1      33.732 -24.447 -14.404  0.00  0.00    +0.011 C 
ATOM     27  C   UNL     1      31.547 -23.825 -15.227  0.00  0.00    +0.011 C 
ATOM     28  C   UNL     1      32.342 -24.488 -14.291  0.00  0.00    +0.058 C 
ENDBRANCH  21  23
BRANCH  21  29
ATOM     29  C   UNL     1      35.279 -23.098 -18.259  0.00  0.00    -0.068 C 
BRANCH  29  30
ATOM     30  N   UNL     1      36.551 -22.382 -18.209  0.00  0.00    +0.386 N 
ATOM     31  H   UNL     1      36.510 -21.583 -18.843  0.00  0.00    -0.084 HD
ATOM     32  H   UNL     1      37.297 -23.018 -18.489  0.00  0.00    -0.084 HD
BRANCH  30  33
ATOM     33  C   UNL     1      36.825 -21.907 -16.861  0.00  0.00    -0.062 C 
ATOM     34  C   UNL     1      37.574 -20.577 -16.910  0.00  0.00    -0.023 C 
ATOM     35  C   UNL     1      37.628 -22.960 -16.104  0.00  0.00    -0.023 C 
ENDBRANCH  30  33
ENDBRANCH  29  30
ENDBRANCH  21  29
ENDBRANCH  17  21
TORSDOF 6
ENDMDL
MODEL 9
REMARK VINA RESULT:      -5.0     13.792     16.393
REMARK  Name = 24788740
REMARK  6 active torsions:
REMARK  status: ('A' for Active; 'I' for Inactive)
REMARK    1  A    between atoms: C_9  and  O_19
REMARK    2  A    between atoms: C_17  and  C_21
REMARK    3  A    between atoms: C_21  and  C_23
REMARK    4  A    between atoms: C_21  and  C_29
REMARK    5  A    between atoms: C_29  and  N_30
REMARK    6  A    between atoms: N_30  and  C_33
REMARK                            x       y       z     vdW  Elec       q    Type
REMARK                         _______ _______ _______ _____ _____    ______ ____
ROOT
ATOM      1  O   UNL     1      31.984 -22.245 -17.821  0.00  0.00    -0.275 OA
ATOM      2  N   UNL     1      35.325 -23.840 -14.651  0.00  0.00    -0.293 N 
ATOM      3  N   UNL     1      33.161 -23.708 -16.456  0.00  0.00    -0.276 N 
ATOM      4  N   UNL     1      38.476 -23.827 -11.924  0.00  0.00    -0.250 NA
ATOM      5  N   UNL     1      36.238 -23.151 -12.575  0.00  0.00    -0.234 NA
ATOM      6  C   UNL     1      37.897 -25.331 -15.231  0.00  0.00    +0.015 C 
ATOM      7  C   UNL     1      37.533 -24.509 -14.040  0.00  0.00    +0.092 C 
ATOM      8  C   UNL     1      39.430 -25.408 -15.060  0.00  0.00    +0.036 C 
ATOM      9  C   UNL     1      39.718 -25.299 -13.551  0.00  0.00    +0.146 C 
ATOM     10  C   UNL     1      38.550 -24.467 -13.099  0.00  0.00    +0.067 C 
ATOM     11  C   UNL     1      36.382 -23.832 -13.733  0.00  0.00    +0.111 C 
ATOM     12  C   UNL     1      35.291 -22.771 -15.663  0.00  0.00    +0.113 C 
ATOM     13  C   UNL     1      34.023 -24.393 -14.255  0.00  0.00    +0.113 C 
ATOM     14  C   UNL     1      34.470 -23.213 -16.873  0.00  0.00    +0.115 C 
ATOM     15  C   UNL     1      33.222 -24.804 -15.489  0.00  0.00    +0.115 C 
ATOM     16  C   UNL     1      37.236 -26.703 -15.206  0.00  0.00    +0.001 C 
ATOM     17  C   UNL     1      31.999 -23.156 -16.990  0.00  0.00    +0.227 C 
ATOM     18  C   UNL     1      37.301 -23.190 -11.735  0.00  0.00    +0.251 C 
ENDROOT
BRANCH   9  19
ATOM     19  O   UNL     1      40.947 -24.647 -13.309  0.00  0.00    -0.379 OA
ATOM     20  H   UNL     1      40.892 -24.152 -12.477  0.00  0.00    +0.211 HD
ENDBRANCH   9  19
BRANCH  17  21
ATOM     21  C   UNL     1      30.694 -23.730 -16.499  0.00  0.00    +0.078 C 
BRANCH  21  23
ATOM     22 CL   UNL     1      30.332 -23.214 -10.509  0.00  0.00    -0.082 Cl
ATOM     23  C   UNL     1      30.602 -23.600 -14.994  0.00  0.00    -0.016 C 
ATOM     24  C   UNL     1      30.141 -24.671 -14.229  0.00  0.00    -0.003 C 
ATOM     25  C   UNL     1      30.980 -22.409 -14.373  0.00  0.00    -0.003 C 
ATOM     26  C   UNL     1      30.058 -24.552 -12.842  0.00  0.00    +0.011 C 
ATOM     27  C   UNL     1      30.897 -22.291 -12.986  0.00  0.00    +0.011 C 
ATOM     28  C   UNL     1      30.436 -23.362 -12.219  0.00  0.00    +0.058 C 
ENDBRANCH  21  23
BRANCH  21  29
ATOM     29  C   UNL     1      29.546 -23.055 -17.261  0.00  0.00    -0.068 C 
BRANCH  29  30
ATOM     30  N   UNL     1      28.262 -23.298 -16.609  0.00  0.00    +0.386 N 
ATOM     31  H   UNL     1      28.428 -23.611 -15.652  0.00  0.00    -0.084 HD
ATOM     32  H   UNL     1      27.758 -24.012 -17.134  0.00  0.00    -0.084 HD
BRANCH  30  33
ATOM     33  C   UNL     1      27.458 -22.086 -16.582  0.00  0.00    -0.062 C 
ATOM     34  C   UNL     1      26.507 -22.108 -15.387  0.00  0.00    -0.023 C 
ATOM     35  C   UNL     1      26.687 -21.957 -17.892  0.00  0.00    -0.023 C 
ENDBRANCH  30  33
ENDBRANCH  29  30
ENDBRANCH  21  29
ENDBRANCH  17  21
TORSDOF 6
ENDMDL
