MODEL 1
REMARK VINA RESULT:      -7.7      0.000      0.000
REMARK  Name = 65013
REMARK  6 active torsions:
REMARK  status: ('A' for Active; 'I' for Inactive)
REMARK    1  A    between atoms: N_3  and  C_20
REMARK    2  A    between atoms: C_5  and  C_10
REMARK    3  A    between atoms: C_6  and  C_13
REMARK    4  A    between atoms: C_13  and  C_14
REMARK    5  A    between atoms: C_20  and  O_21
REMARK    6  A    between atoms: O_21  and  C_22
REMARK                            x       y       z     vdW  Elec       q    Type
REMARK                         _______ _______ _______ _____ _____    ______ ____
ROOT
ATOM      1  O   UNL     1      35.375 -16.708 -21.463  0.00  0.00    -0.267 OA
ATOM      2  O   UNL     1      34.853 -17.149 -25.980  0.00  0.00    -0.246 OA
ATOM      3  N   UNL     1      33.595 -15.510 -24.889  0.00  0.00    -0.259 N 
ATOM      4  N   UNL     1      35.106 -16.896 -23.731  0.00  0.00    -0.275 N 
ATOM      5  C   UNL     1      33.851 -15.211 -22.518  0.00  0.00    +0.046 A 
ATOM      6  C   UNL     1      33.265 -14.867 -23.686  0.00  0.00    +0.048 A 
ATOM      7  C   UNL     1      34.842 -16.327 -22.503  0.00  0.00    +0.258 A 
ATOM      8  C   UNL     1      34.533 -16.553 -24.950  0.00  0.00    +0.332 A 
ATOM      9  H   UNL     1      35.770 -17.622 -23.746  0.00  0.00    +0.173 HD
ENDROOT
BRANCH   5  10
ATOM     10  C   UNL     1      33.623 -14.551 -21.186  0.00  0.00    +0.028 C 
ATOM     11  C   UNL     1      32.552 -15.304 -20.406  0.00  0.00    +0.005 C 
ATOM     12  C   UNL     1      34.924 -14.473 -20.396  0.00  0.00    +0.005 C 
ENDBRANCH   5  10
BRANCH   6  13
ATOM     13  C   UNL     1      32.210 -13.784 -23.756  0.00  0.00    +0.070 C 
BRANCH  13  14
ATOM     14  C   UNL     1      32.813 -12.413 -23.722  0.00  0.00    -0.016 C 
ATOM     15  C   UNL     1      32.249 -11.430 -22.915  0.00  0.00    -0.004 C 
ATOM     16  C   UNL     1      33.935 -12.131 -24.497  0.00  0.00    -0.004 C 
ATOM     17  C   UNL     1      32.810 -10.153 -22.882  0.00  0.00    -0.000 C 
ATOM     18  C   UNL     1      34.495 -10.855 -24.465  0.00  0.00    -0.000 C 
ATOM     19  C   UNL     1      33.933  -9.866 -23.657  0.00  0.00    -0.000 C 
ENDBRANCH  13  14
ENDBRANCH   6  13
BRANCH   3  20
ATOM     20  C   UNL     1      32.939 -15.077 -26.125  0.00  0.00    +0.259 C 
BRANCH  20  21
ATOM     21  O   UNL     1      33.935 -14.659 -27.047  0.00  0.00    -0.332 OA
BRANCH  21  22
ATOM     22  C   UNL     1      33.694 -13.339 -27.511  0.00  0.00    +0.145 C 
ATOM     23  C   UNL     1      32.208 -13.057 -27.447  0.00  0.00    +0.035 C 
ENDBRANCH  21  22
ENDBRANCH  20  21
ENDBRANCH   3  20
TORSDOF 6
ENDMDL
MODEL 2
REMARK VINA RESULT:      -7.5      9.896     13.007
REMARK  Name = 65013
REMARK  6 active torsions:
REMARK  status: ('A' for Active; 'I' for Inactive)
REMARK    1  A    between atoms: N_3  and  C_20
REMARK    2  A    between atoms: C_5  and  C_10
REMARK    3  A    between atoms: C_6  and  C_13
REMARK    4  A    between atoms: C_13  and  C_14
REMARK    5  A    between atoms: C_20  and  O_21
REMARK    6  A    between atoms: O_21  and  C_22
REMARK                            x       y       z     vdW  Elec       q    Type
REMARK                         _______ _______ _______ _____ _____    ______ ____
ROOT
ATOM      1  O   UNL     1      30.823 -23.722 -16.013  0.00  0.00    -0.267 OA
ATOM      2  O   UNL     1      33.691 -22.790 -19.445  0.00  0.00    -0.246 OA
ATOM      3  N   UNL     1      34.555 -22.811 -17.274  0.00  0.00    -0.259 N 
ATOM      4  N   UNL     1      32.287 -23.269 -17.717  0.00  0.00    -0.275 N 
ATOM      5  C   UNL     1      33.099 -23.326 -15.432  0.00  0.00    +0.046 A 
ATOM      6  C   UNL     1      34.322 -22.993 -15.902  0.00  0.00    +0.048 A 
ATOM      7  C   UNL     1      31.963 -23.462 -16.390  0.00  0.00    +0.258 A 
ATOM      8  C   UNL     1      33.536 -22.944 -18.231  0.00  0.00    +0.332 A 
ATOM      9  H   UNL     1      31.556 -23.371 -18.368  0.00  0.00    +0.173 HD
ENDROOT
BRANCH   5  10
ATOM     10  C   UNL     1      32.751 -23.607 -13.995  0.00  0.00    +0.028 C 
ATOM     11  C   UNL     1      31.560 -22.757 -13.570  0.00  0.00    +0.005 C 
ATOM     12  C   UNL     1      32.466 -25.091 -13.794  0.00  0.00    +0.005 C 
ENDBRANCH   5  10
BRANCH   6  13
ATOM     13  C   UNL     1      35.499 -22.784 -14.974  0.00  0.00    +0.070 C 
BRANCH  13  14
ATOM     14  C   UNL     1      36.037 -24.080 -14.452  0.00  0.00    -0.016 C 
ATOM     15  C   UNL     1      36.296 -24.224 -13.092  0.00  0.00    -0.004 C 
ATOM     16  C   UNL     1      36.276 -25.134 -15.329  0.00  0.00    -0.004 C 
ATOM     17  C   UNL     1      36.797 -25.430 -12.604  0.00  0.00    -0.000 C 
ATOM     18  C   UNL     1      36.777 -26.341 -14.842  0.00  0.00    -0.000 C 
ATOM     19  C   UNL     1      37.037 -26.489 -13.480  0.00  0.00    -0.000 C 
ENDBRANCH  13  14
ENDBRANCH   6  13
BRANCH   3  20
ATOM     20  C   UNL     1      35.907 -22.471 -17.722  0.00  0.00    +0.259 C 
BRANCH  20  21
ATOM     21  O   UNL     1      35.883 -21.170 -18.291  0.00  0.00    -0.332 OA
BRANCH  21  22
ATOM     22  C   UNL     1      36.586 -21.128 -19.525  0.00  0.00    +0.145 C 
ATOM     23  C   UNL     1      35.841 -20.225 -20.486  0.00  0.00    +0.035 C 
ENDBRANCH  21  22
ENDBRANCH  20  21
ENDBRANCH   3  20
TORSDOF 6
ENDMDL
MODEL 3
REMARK VINA RESULT:      -7.5      2.330      5.420
REMARK  Name = 65013
REMARK  6 active torsions:
REMARK  status: ('A' for Active; 'I' for Inactive)
REMARK    1  A    between atoms: N_3  and  C_20
REMARK    2  A    between atoms: C_5  and  C_10
REMARK    3  A    between atoms: C_6  and  C_13
REMARK    4  A    between atoms: C_13  and  C_14
REMARK    5  A    between atoms: C_20  and  O_21
REMARK    6  A    between atoms: O_21  and  C_22
REMARK                            x       y       z     vdW  Elec       q    Type
REMARK                         _______ _______ _______ _____ _____    ______ ____
ROOT
ATOM      1  O   UNL     1      31.978 -13.051 -22.882  0.00  0.00    -0.267 OA
ATOM      2  O   UNL     1      33.431 -15.547 -26.421  0.00  0.00    -0.246 OA
ATOM      3  N   UNL     1      34.341 -16.001 -24.317  0.00  0.00    -0.259 N 
ATOM      4  N   UNL     1      32.712 -14.329 -24.636  0.00  0.00    -0.275 N 
ATOM      5  C   UNL     1      33.591 -14.740 -22.413  0.00  0.00    +0.046 A 
ATOM      6  C   UNL     1      34.381 -15.698 -22.947  0.00  0.00    +0.048 A 
ATOM      7  C   UNL     1      32.687 -13.959 -23.308  0.00  0.00    +0.258 A 
ATOM      8  C   UNL     1      33.498 -15.320 -25.211  0.00  0.00    +0.332 A 
ATOM      9  H   UNL     1      32.109 -13.839 -25.241  0.00  0.00    +0.173 HD
ENDROOT
BRANCH   5  10
ATOM     10  C   UNL     1      33.505 -14.377 -20.955  0.00  0.00    +0.028 C 
ATOM     11  C   UNL     1      32.399 -15.180 -20.281  0.00  0.00    +0.005 C 
ATOM     12  C   UNL     1      34.846 -14.603 -20.267  0.00  0.00    +0.005 C 
ENDBRANCH   5  10
BRANCH   6  13
ATOM     13  C   UNL     1      35.360 -16.482 -22.101  0.00  0.00    +0.070 C 
BRANCH  13  14
ATOM     14  C   UNL     1      34.777 -17.777 -21.625  0.00  0.00    -0.016 C 
ATOM     15  C   UNL     1      33.407 -17.879 -21.408  0.00  0.00    -0.004 C 
ATOM     16  C   UNL     1      35.609 -18.870 -21.403  0.00  0.00    -0.004 C 
ATOM     17  C   UNL     1      32.862 -19.084 -20.966  0.00  0.00    -0.000 C 
ATOM     18  C   UNL     1      35.066 -20.075 -20.960  0.00  0.00    -0.000 C 
ATOM     19  C   UNL     1      33.692 -20.183 -20.742  0.00  0.00    -0.000 C 
ENDBRANCH  13  14
ENDBRANCH   6  13
BRANCH   3  20
ATOM     20  C   UNL     1      35.206 -17.063 -24.832  0.00  0.00    +0.259 C 
BRANCH  20  21
ATOM     21  O   UNL     1      34.425 -17.939 -25.631  0.00  0.00    -0.332 OA
BRANCH  21  22
ATOM     22  C   UNL     1      33.942 -19.041 -24.876  0.00  0.00    +0.145 C 
ATOM     23  C   UNL     1      35.010 -20.114 -24.830  0.00  0.00    +0.035 C 
ENDBRANCH  21  22
ENDBRANCH  20  21
ENDBRANCH   3  20
TORSDOF 6
ENDMDL
MODEL 4
REMARK VINA RESULT:      -7.5      8.598     11.523
REMARK  Name = 65013
REMARK  6 active torsions:
REMARK  status: ('A' for Active; 'I' for Inactive)
REMARK    1  A    between atoms: N_3  and  C_20
REMARK    2  A    between atoms: C_5  and  C_10
REMARK    3  A    between atoms: C_6  and  C_13
REMARK    4  A    between atoms: C_13  and  C_14
REMARK    5  A    between atoms: C_20  and  O_21
REMARK    6  A    between atoms: O_21  and  C_22
REMARK                            x       y       z     vdW  Elec       q    Type
REMARK                         _______ _______ _______ _____ _____    ______ ____
ROOT
ATOM      1  O   UNL     1      37.643 -22.578 -15.151  0.00  0.00    -0.267 OA
ATOM      2  O   UNL     1      36.444 -20.735 -19.156  0.00  0.00    -0.246 OA
ATOM      3  N   UNL     1      35.003 -22.308 -18.202  0.00  0.00    -0.259 N 
ATOM      4  N   UNL     1      37.009 -21.657 -17.151  0.00  0.00    -0.275 N 
ATOM      5  C   UNL     1      35.567 -23.288 -16.081  0.00  0.00    +0.046 A 
ATOM      6  C   UNL     1      34.731 -23.182 -17.137  0.00  0.00    +0.048 A 
ATOM      7  C   UNL     1      36.828 -22.490 -16.066  0.00  0.00    +0.258 A 
ATOM      8  C   UNL     1      36.160 -21.513 -18.242  0.00  0.00    +0.332 A 
ATOM      9  H   UNL     1      37.826 -21.108 -17.153  0.00  0.00    +0.173 HD
ENDROOT
BRANCH   5  10
ATOM     10  C   UNL     1      35.345 -24.140 -14.860  0.00  0.00    +0.028 C 
ATOM     11  C   UNL     1      36.141 -25.434 -14.974  0.00  0.00    +0.005 C 
ATOM     12  C   UNL     1      35.720 -23.374 -13.597  0.00  0.00    +0.005 C 
ENDBRANCH   5  10
BRANCH   6  13
ATOM     13  C   UNL     1      33.468 -24.009 -17.236  0.00  0.00    +0.070 C 
BRANCH  13  14
ATOM     14  C   UNL     1      32.386 -23.488 -16.340  0.00  0.00    -0.016 C 
ATOM     15  C   UNL     1      32.500 -23.638 -14.962  0.00  0.00    -0.004 C 
ATOM     16  C   UNL     1      31.275 -22.857 -16.891  0.00  0.00    -0.004 C 
ATOM     17  C   UNL     1      31.494 -23.154 -14.126  0.00  0.00    -0.000 C 
ATOM     18  C   UNL     1      30.269 -22.372 -16.056  0.00  0.00    -0.000 C 
ATOM     19  C   UNL     1      30.378 -22.521 -14.673  0.00  0.00    -0.000 C 
ENDBRANCH  13  14
ENDBRANCH   6  13
BRANCH   3  20
ATOM     20  C   UNL     1      34.048 -22.223 -19.308  0.00  0.00    +0.259 C 
BRANCH  20  21
ATOM     21  O   UNL     1      33.304 -21.021 -19.175  0.00  0.00    -0.332 OA
BRANCH  21  22
ATOM     22  C   UNL     1      32.888 -20.523 -20.438  0.00  0.00    +0.145 C 
ATOM     23  C   UNL     1      33.930 -19.552 -20.954  0.00  0.00    +0.035 C 
ENDBRANCH  21  22
ENDBRANCH  20  21
ENDBRANCH   3  20
TORSDOF 6
ENDMDL
MODEL 5
REMARK VINA RESULT:      -7.4      3.091      5.402
REMARK  Name = 65013
REMARK  6 active torsions:
REMARK  status: ('A' for Active; 'I' for Inactive)
REMARK    1  A    between atoms: N_3  and  C_20
REMARK    2  A    between atoms: C_5  and  C_10
REMARK    3  A    between atoms: C_6  and  C_13
REMARK    4  A    between atoms: C_13  and  C_14
REMARK    5  A    between atoms: C_20  and  O_21
REMARK    6  A    between atoms: O_21  and  C_22
REMARK                            x       y       z     vdW  Elec       q    Type
REMARK                         _______ _______ _______ _____ _____    ______ ____
ROOT
ATOM      1  O   UNL     1      34.126  -7.378 -22.665  0.00  0.00    -0.267 OA
ATOM      2  O   UNL     1      35.931 -10.395 -25.583  0.00  0.00    -0.246 OA
ATOM      3  N   UNL     1      33.919 -10.956 -24.535  0.00  0.00    -0.259 N 
ATOM      4  N   UNL     1      35.000  -8.902 -24.136  0.00  0.00    -0.275 N 
ATOM      5  C   UNL     1      32.907  -9.394 -23.014  0.00  0.00    +0.046 A 
ATOM      6  C   UNL     1      32.898 -10.590 -23.643  0.00  0.00    +0.048 A 
ATOM      7  C   UNL     1      34.048  -8.459 -23.242  0.00  0.00    +0.258 A 
ATOM      8  C   UNL     1      35.010 -10.117 -24.811  0.00  0.00    +0.332 A 
ATOM      9  H   UNL     1      35.752  -8.293 -24.315  0.00  0.00    +0.173 HD
ENDROOT
BRANCH   5  10
ATOM     10  C   UNL     1      31.838  -8.873 -22.092  0.00  0.00    +0.028 C 
ATOM     11  C   UNL     1      32.411  -8.661 -20.696  0.00  0.00    +0.005 C 
ATOM     12  C   UNL     1      31.237  -7.585 -22.641  0.00  0.00    +0.005 C 
ENDBRANCH   5  10
BRANCH   6  13
ATOM     13  C   UNL     1      31.800 -11.604 -23.407  0.00  0.00    +0.070 C 
BRANCH  13  14
ATOM     14  C   UNL     1      32.175 -12.600 -22.354  0.00  0.00    -0.016 C 
ATOM     15  C   UNL     1      31.984 -12.291 -21.011  0.00  0.00    -0.004 C 
ATOM     16  C   UNL     1      32.710 -13.831 -22.724  0.00  0.00    -0.004 C 
ATOM     17  C   UNL     1      32.332 -13.217 -20.029  0.00  0.00    -0.000 C 
ATOM     18  C   UNL     1      33.059 -14.757 -21.743  0.00  0.00    -0.000 C 
ATOM     19  C   UNL     1      32.870 -14.452 -20.395  0.00  0.00    -0.000 C 
ENDBRANCH  13  14
ENDBRANCH   6  13
BRANCH   3  20
ATOM     20  C   UNL     1      33.842 -12.258 -25.201  0.00  0.00    +0.259 C 
BRANCH  20  21
ATOM     21  O   UNL     1      33.459 -12.055 -26.553  0.00  0.00    -0.332 OA
BRANCH  21  22
ATOM     22  C   UNL     1      33.312 -13.288 -27.244  0.00  0.00    +0.145 C 
ATOM     23  C   UNL     1      32.936 -14.368 -26.251  0.00  0.00    +0.035 C 
ENDBRANCH  21  22
ENDBRANCH  20  21
ENDBRANCH   3  20
TORSDOF 6
ENDMDL
MODEL 6
REMARK VINA RESULT:      -7.3      3.993      6.653
REMARK  Name = 65013
REMARK  6 active torsions:
REMARK  status: ('A' for Active; 'I' for Inactive)
REMARK    1  A    between atoms: N_3  and  C_20
REMARK    2  A    between atoms: C_5  and  C_10
REMARK    3  A    between atoms: C_6  and  C_13
REMARK    4  A    between atoms: C_13  and  C_14
REMARK    5  A    between atoms: C_20  and  O_21
REMARK    6  A    between atoms: O_21  and  C_22
REMARK                            x       y       z     vdW  Elec       q    Type
REMARK                         _______ _______ _______ _____ _____    ______ ____
ROOT
ATOM      1  O   UNL     1      33.787  -5.963 -24.375  0.00  0.00    -0.267 OA
ATOM      2  O   UNL     1      35.801 -10.047 -24.747  0.00  0.00    -0.246 OA
ATOM      3  N   UNL     1      33.635  -9.972 -23.874  0.00  0.00    -0.259 N 
ATOM      4  N   UNL     1      34.767  -8.026 -24.566  0.00  0.00    -0.275 N 
ATOM      5  C   UNL     1      32.514  -7.854 -23.684  0.00  0.00    +0.046 A 
ATOM      6  C   UNL     1      32.524  -9.195 -23.511  0.00  0.00    +0.048 A 
ATOM      7  C   UNL     1      33.727  -7.182 -24.235  0.00  0.00    +0.258 A 
ATOM      8  C   UNL     1      34.800  -9.407 -24.417  0.00  0.00    +0.332 A 
ATOM      9  H   UNL     1      35.570  -7.605 -24.948  0.00  0.00    +0.173 HD
ENDROOT
BRANCH   5  10
ATOM     10  C   UNL     1      31.360  -6.934 -23.392  0.00  0.00    +0.028 C 
ATOM     11  C   UNL     1      31.703  -6.020 -22.222  0.00  0.00    +0.005 C 
ATOM     12  C   UNL     1      30.992  -6.126 -24.631  0.00  0.00    +0.005 C 
ENDBRANCH   5  10
BRANCH   6  13
ATOM     13  C   UNL     1      31.346  -9.925 -22.902  0.00  0.00    +0.070 C 
BRANCH  13  14
ATOM     14  C   UNL     1      31.532 -10.159 -21.434  0.00  0.00    -0.016 C 
ATOM     15  C   UNL     1      31.973  -9.122 -20.620  0.00  0.00    -0.004 C 
ATOM     16  C   UNL     1      31.261 -11.414 -20.894  0.00  0.00    -0.004 C 
ATOM     17  C   UNL     1      32.145  -9.338 -19.253  0.00  0.00    -0.000 C 
ATOM     18  C   UNL     1      31.433 -11.630 -19.528  0.00  0.00    -0.000 C 
ATOM     19  C   UNL     1      31.875 -10.593 -18.707  0.00  0.00    -0.000 C 
ENDBRANCH  13  14
ENDBRANCH   6  13
BRANCH   3  20
ATOM     20  C   UNL     1      33.576 -11.422 -23.680  0.00  0.00    +0.259 C 
BRANCH  20  21
ATOM     21  O   UNL     1      33.471 -12.047 -24.951  0.00  0.00    -0.332 OA
BRANCH  21  22
ATOM     22  C   UNL     1      33.330 -13.455 -24.830  0.00  0.00    +0.145 C 
ATOM     23  C   UNL     1      32.757 -13.778 -23.466  0.00  0.00    +0.035 C 
ENDBRANCH  21  22
ENDBRANCH  20  21
ENDBRANCH   3  20
TORSDOF 6
ENDMDL
MODEL 7
REMARK VINA RESULT:      -7.2      5.562      8.498
REMARK  Name = 65013
REMARK  6 active torsions:
REMARK  status: ('A' for Active; 'I' for Inactive)
REMARK    1  A    between atoms: N_3  and  C_20
REMARK    2  A    between atoms: C_5  and  C_10
REMARK    3  A    between atoms: C_6  and  C_13
REMARK    4  A    between atoms: C_13  and  C_14
REMARK    5  A    between atoms: C_20  and  O_21
REMARK    6  A    between atoms: O_21  and  C_22
REMARK                            x       y       z     vdW  Elec       q    Type
REMARK                         _______ _______ _______ _____ _____    ______ ____
ROOT
ATOM      1  O   UNL     1      31.813  -4.278 -22.809  0.00  0.00    -0.267 OA
ATOM      2  O   UNL     1      32.687  -6.721 -19.049  0.00  0.00    -0.246 OA
ATOM      3  N   UNL     1      32.247  -7.882 -21.029  0.00  0.00    -0.259 N 
ATOM      4  N   UNL     1      32.265  -5.528 -20.942  0.00  0.00    -0.275 N 
ATOM      5  C   UNL     1      31.811  -6.649 -23.045  0.00  0.00    +0.046 A 
ATOM      6  C   UNL     1      31.940  -7.828 -22.397  0.00  0.00    +0.048 A 
ATOM      7  C   UNL     1      31.960  -5.377 -22.279  0.00  0.00    +0.258 A 
ATOM      8  C   UNL     1      32.420  -6.724 -20.252  0.00  0.00    +0.332 A 
ATOM      9  H   UNL     1      32.385  -4.701 -20.422  0.00  0.00    +0.173 HD
ENDROOT
BRANCH   5  10
ATOM     10  C   UNL     1      31.548  -6.473 -24.516  0.00  0.00    +0.028 C 
ATOM     11  C   UNL     1      30.411  -5.480 -24.728  0.00  0.00    +0.005 C 
ATOM     12  C   UNL     1      32.813  -6.021 -25.236  0.00  0.00    +0.005 C 
ENDBRANCH   5  10
BRANCH   6  13
ATOM     13  C   UNL     1      31.742  -9.149 -23.107  0.00  0.00    +0.070 C 
BRANCH  13  14
ATOM     14  C   UNL     1      32.990  -9.603 -23.802  0.00  0.00    -0.016 C 
ATOM     15  C   UNL     1      33.010 -10.832 -24.453  0.00  0.00    -0.004 C 
ATOM     16  C   UNL     1      34.121  -8.792 -23.792  0.00  0.00    -0.004 C 
ATOM     17  C   UNL     1      34.170 -11.255 -25.101  0.00  0.00    -0.000 C 
ATOM     18  C   UNL     1      35.282  -9.214 -24.439  0.00  0.00    -0.000 C 
ATOM     19  C   UNL     1      35.307 -10.446 -25.093  0.00  0.00    -0.000 C 
ENDBRANCH  13  14
ENDBRANCH   6  13
BRANCH   3  20
ATOM     20  C   UNL     1      32.393  -9.191 -20.388  0.00  0.00    +0.259 C 
BRANCH  20  21
ATOM     21  O   UNL     1      31.264  -9.418 -19.557  0.00  0.00    -0.332 OA
BRANCH  21  22
ATOM     22  C   UNL     1      31.209 -10.766 -19.112  0.00  0.00    +0.145 C 
ATOM     23  C   UNL     1      31.572 -11.681 -20.262  0.00  0.00    +0.035 C 
ENDBRANCH  21  22
ENDBRANCH  20  21
ENDBRANCH   3  20
TORSDOF 6
ENDMDL
MODEL 8
REMARK VINA RESULT:      -7.0      5.148      7.167
REMARK  Name = 65013
REMARK  6 active torsions:
REMARK  status: ('A' for Active; 'I' for Inactive)
REMARK    1  A    between atoms: N_3  and  C_20
REMARK    2  A    between atoms: C_5  and  C_10
REMARK    3  A    between atoms: C_6  and  C_13
REMARK    4  A    between atoms: C_13  and  C_14
REMARK    5  A    between atoms: C_20  and  O_21
REMARK    6  A    between atoms: O_21  and  C_22
REMARK                            x       y       z     vdW  Elec       q    Type
REMARK                         _______ _______ _______ _____ _____    ______ ____
ROOT
ATOM      1  O   UNL     1      31.904 -10.712 -18.829  0.00  0.00    -0.267 OA
ATOM      2  O   UNL     1      32.894  -6.297 -19.459  0.00  0.00    -0.246 OA
ATOM      3  N   UNL     1      32.348  -7.574 -21.338  0.00  0.00    -0.259 N 
ATOM      4  N   UNL     1      32.380  -8.497 -19.171  0.00  0.00    -0.275 N 
ATOM      5  C   UNL     1      31.787  -9.895 -21.063  0.00  0.00    +0.046 A 
ATOM      6  C   UNL     1      31.975  -8.821 -21.862  0.00  0.00    +0.048 A 
ATOM      7  C   UNL     1      32.021  -9.759 -19.595  0.00  0.00    +0.258 A 
ATOM      8  C   UNL     1      32.563  -7.371 -19.965  0.00  0.00    +0.332 A 
ATOM      9  H   UNL     1      32.521  -8.381 -18.204  0.00  0.00    +0.173 HD
ENDROOT
BRANCH   5  10
ATOM     10  C   UNL     1      31.328 -11.258 -21.507  0.00  0.00    +0.028 C 
ATOM     11  C   UNL     1      32.370 -12.306 -21.135  0.00  0.00    +0.005 C 
ATOM     12  C   UNL     1      29.972 -11.590 -20.897  0.00  0.00    +0.005 C 
ENDBRANCH   5  10
BRANCH   6  13
ATOM     13  C   UNL     1      31.812  -8.912 -23.364  0.00  0.00    +0.070 C 
BRANCH  13  14
ATOM     14  C   UNL     1      33.020  -9.501 -24.024  0.00  0.00    -0.016 C 
ATOM     15  C   UNL     1      34.182  -8.744 -24.141  0.00  0.00    -0.004 C 
ATOM     16  C   UNL     1      32.975 -10.802 -24.517  0.00  0.00    -0.004 C 
ATOM     17  C   UNL     1      35.308  -9.291 -24.755  0.00  0.00    -0.000 C 
ATOM     18  C   UNL     1      34.100 -11.349 -25.131  0.00  0.00    -0.000 C 
ATOM     19  C   UNL     1      35.267 -10.594 -25.250  0.00  0.00    -0.000 C 
ENDBRANCH  13  14
ENDBRANCH   6  13
BRANCH   3  20
ATOM     20  C   UNL     1      32.516  -6.444 -22.254  0.00  0.00    +0.259 C 
BRANCH  20  21
ATOM     21  O   UNL     1      31.324  -5.672 -22.249  0.00  0.00    -0.332 OA
BRANCH  21  22
ATOM     22  C   UNL     1      31.259  -4.805 -23.372  0.00  0.00    +0.145 C 
ATOM     23  C   UNL     1      32.067  -5.404 -24.504  0.00  0.00    +0.035 C 
ENDBRANCH  21  22
ENDBRANCH  20  21
ENDBRANCH   3  20
TORSDOF 6
ENDMDL
MODEL 9
REMARK VINA RESULT:      -6.9     10.591     13.686
REMARK  Name = 65013
REMARK  6 active torsions:
REMARK  status: ('A' for Active; 'I' for Inactive)
REMARK    1  A    between atoms: N_3  and  C_20
REMARK    2  A    between atoms: C_5  and  C_10
REMARK    3  A    between atoms: C_6  and  C_13
REMARK    4  A    between atoms: C_13  and  C_14
REMARK    5  A    between atoms: C_20  and  O_21
REMARK    6  A    between atoms: O_21  and  C_22
REMARK                            x       y       z     vdW  Elec       q    Type
REMARK                         _______ _______ _______ _____ _____    ______ ____
ROOT
ATOM      1  O   UNL     1      36.297 -21.783 -18.633  0.00  0.00    -0.267 OA
ATOM      2  O   UNL     1      32.039 -23.253 -17.868  0.00  0.00    -0.246 OA
ATOM      3  N   UNL     1      33.536 -23.257 -16.074  0.00  0.00    -0.259 N 
ATOM      4  N   UNL     1      34.163 -22.509 -18.218  0.00  0.00    -0.275 N 
ATOM      5  C   UNL     1      35.781 -22.465 -16.410  0.00  0.00    +0.046 A 
ATOM      6  C   UNL     1      34.829 -22.985 -15.602  0.00  0.00    +0.048 A 
ATOM      7  C   UNL     1      35.459 -22.215 -17.846  0.00  0.00    +0.258 A 
ATOM      8  C   UNL     1      33.160 -23.026 -17.407  0.00  0.00    +0.332 A 
ATOM      9  H   UNL     1      33.925 -22.334 -19.156  0.00  0.00    +0.173 HD
ENDROOT
BRANCH   5  10
ATOM     10  C   UNL     1      37.174 -22.076 -15.998  0.00  0.00    +0.028 C 
ATOM     11  C   UNL     1      38.129 -23.243 -16.216  0.00  0.00    +0.005 C 
ATOM     12  C   UNL     1      37.633 -20.840 -16.762  0.00  0.00    +0.005 C 
ENDBRANCH   5  10
BRANCH   6  13
ATOM     13  C   UNL     1      35.113 -23.315 -14.153  0.00  0.00    +0.070 C 
BRANCH  13  14
ATOM     14  C   UNL     1      35.914 -24.573 -14.012  0.00  0.00    -0.016 C 
ATOM     15  C   UNL     1      36.680 -24.780 -12.869  0.00  0.00    -0.004 C 
ATOM     16  C   UNL     1      35.886 -25.528 -15.025  0.00  0.00    -0.004 C 
ATOM     17  C   UNL     1      37.426 -25.951 -12.737  0.00  0.00    -0.000 C 
ATOM     18  C   UNL     1      36.631 -26.699 -14.893  0.00  0.00    -0.000 C 
ATOM     19  C   UNL     1      37.401 -26.911 -13.749  0.00  0.00    -0.000 C 
ENDBRANCH  13  14
ENDBRANCH   6  13
BRANCH   3  20
ATOM     20  C   UNL     1      32.544 -23.801 -15.144  0.00  0.00    +0.259 C 
BRANCH  20  21
ATOM     21  O   UNL     1      31.736 -22.734 -14.667  0.00  0.00    -0.332 OA
BRANCH  21  22
ATOM     22  C   UNL     1      30.358 -23.077 -14.684  0.00  0.00    +0.145 C 
ATOM     23  C   UNL     1      30.223 -24.568 -14.914  0.00  0.00    +0.035 C 
ENDBRANCH  21  22
ENDBRANCH  20  21
ENDBRANCH   3  20
TORSDOF 6
ENDMDL
