MODEL 1
REMARK VINA RESULT:      -6.8      0.000      0.000
REMARK  Name = 32798
REMARK  6 active torsions:
REMARK  status: ('A' for Active; 'I' for Inactive)
REMARK    1  A    between atoms: C_7  and  C_26
REMARK    2  A    between atoms: C_7  and  O_29
REMARK    3  A    between atoms: C_11  and  O_23
REMARK    4  A    between atoms: C_26  and  C_28
REMARK    5  A    between atoms: O_29  and  C_31
REMARK    6  A    between atoms: C_31  and  C_32
REMARK                            x       y       z     vdW  Elec       q    Type
REMARK                         _______ _______ _______ _____ _____    ______ ____
ROOT
ATOM      1  F   UNL     1      31.797  -9.687 -24.232  0.00  0.00    -0.237 F 
ATOM      2  O   UNL     1      30.574  -4.965 -24.327  0.00  0.00    -0.287 OA
ATOM      3  C   UNL     1      33.593 -12.563 -23.312  0.00  0.00    +0.043 C 
ATOM      4  C   UNL     1      32.413 -11.895 -22.571  0.00  0.00    +0.007 C 
ATOM      5  C   UNL     1      32.685 -10.433 -22.183  0.00  0.00    +0.033 C 
ATOM      6  C   UNL     1      32.959  -9.600 -23.481  0.00  0.00    +0.164 C 
ATOM      7  C   UNL     1      33.025 -14.006 -23.483  0.00  0.00    +0.187 C 
ATOM      8  C   UNL     1      32.086 -12.901 -21.472  0.00  0.00    +0.004 C 
ATOM      9  C   UNL     1      33.824 -11.768 -24.615  0.00  0.00    +0.036 C 
ATOM     10  C   UNL     1      32.190 -14.271 -22.191  0.00  0.00    +0.044 C 
ATOM     11  C   UNL     1      34.051 -10.257 -24.379  0.00  0.00    +0.141 C 
ATOM     12  C   UNL     1      33.149  -8.064 -23.171  0.00  0.00    +0.064 C 
ATOM     13  C   UNL     1      31.494  -9.860 -21.394  0.00  0.00    +0.007 C 
ATOM     14  C   UNL     1      34.898 -12.608 -22.472  0.00  0.00    +0.004 C 
ATOM     15  C   UNL     1      31.664  -8.377 -21.087  0.00  0.00    +0.023 C 
ATOM     16  C   UNL     1      31.935  -7.606 -22.354  0.00  0.00    -0.035 C 
ATOM     17  C   UNL     1      32.718 -15.341 -21.239  0.00  0.00    +0.004 C 
ATOM     18  C   UNL     1      34.422  -7.738 -22.356  0.00  0.00    +0.011 C 
ATOM     19  C   UNL     1      33.266  -7.276 -24.469  0.00  0.00    -0.017 C 
ATOM     20  C   UNL     1      31.112  -6.615 -22.732  0.00  0.00    +0.034 C 
ATOM     21  C   UNL     1      32.450  -6.290 -24.851  0.00  0.00    +0.038 C 
ATOM     22  C   UNL     1      31.320  -5.880 -23.996  0.00  0.00    +0.195 C 
ENDROOT
BRANCH  11  23
ATOM     23  O   UNL     1      35.354 -10.043 -23.858  0.00  0.00    -0.382 OA
ATOM     24  H   UNL     1      35.420  -9.138 -23.514  0.00  0.00    +0.210 HD
ENDBRANCH  11  23
BRANCH   7  26
ATOM     25  O   UNL     1      35.053 -14.723 -24.492  0.00  0.00    -0.291 OA
ATOM     26  C   UNL     1      34.046 -15.039 -23.860  0.00  0.00    +0.203 C 
BRANCH  26  28
ATOM     27 CL   UNL     1      34.888 -17.593 -24.142  0.00  0.00    -0.105 Cl
ATOM     28  C   UNL     1      33.745 -16.453 -23.416  0.00  0.00    +0.163 C 
ENDBRANCH  26  28
ENDBRANCH   7  26
BRANCH   7  29
ATOM     29  O   UNL     1      32.132 -14.050 -24.605  0.00  0.00    -0.449 OA
BRANCH  29  31
ATOM     30  O   UNL     1      32.998 -15.569 -26.110  0.00  0.00    -0.250 OA
ATOM     31  C   UNL     1      32.698 -14.428 -25.788  0.00  0.00    +0.317 C 
BRANCH  31  32
ATOM     32  C   UNL     1      32.895 -13.200 -26.647  0.00  0.00    +0.110 C 
ATOM     33  C   UNL     1      34.020 -13.380 -27.650  0.00  0.00    +0.012 C 
ENDBRANCH  31  32
ENDBRANCH  29  31
ENDBRANCH   7  29
TORSDOF 6
ENDMDL
MODEL 2
REMARK VINA RESULT:      -6.6     13.969     16.434
REMARK  Name = 32798
REMARK  6 active torsions:
REMARK  status: ('A' for Active; 'I' for Inactive)
REMARK    1  A    between atoms: C_7  and  C_26
REMARK    2  A    between atoms: C_7  and  O_29
REMARK    3  A    between atoms: C_11  and  O_23
REMARK    4  A    between atoms: C_26  and  C_28
REMARK    5  A    between atoms: O_29  and  C_31
REMARK    6  A    between atoms: C_31  and  C_32
REMARK                            x       y       z     vdW  Elec       q    Type
REMARK                         _______ _______ _______ _____ _____    ______ ____
ROOT
ATOM      1  F   UNL     1      32.134 -22.701 -14.176  0.00  0.00    -0.237 F 
ATOM      2  O   UNL     1      27.500 -21.632 -15.262  0.00  0.00    -0.287 OA
ATOM      3  C   UNL     1      35.197 -24.415 -14.329  0.00  0.00    +0.043 C 
ATOM      4  C   UNL     1      34.698 -23.267 -15.235  0.00  0.00    +0.007 C 
ATOM      5  C   UNL     1      33.384 -23.592 -15.963  0.00  0.00    +0.033 C 
ATOM      6  C   UNL     1      32.267 -23.875 -14.901  0.00  0.00    +0.164 C 
ATOM      7  C   UNL     1      36.538 -23.798 -13.823  0.00  0.00    +0.187 C 
ATOM      8  C   UNL     1      35.932 -22.922 -16.062  0.00  0.00    +0.004 C 
ATOM      9  C   UNL     1      34.114 -24.655 -13.255  0.00  0.00    +0.036 C 
ATOM     10  C   UNL     1      37.087 -22.972 -15.029  0.00  0.00    +0.044 C 
ATOM     11  C   UNL     1      32.715 -24.934 -13.848  0.00  0.00    +0.141 C 
ATOM     12  C   UNL     1      30.859 -24.120 -15.573  0.00  0.00    +0.064 C 
ATOM     13  C   UNL     1      32.987 -22.431 -16.892  0.00  0.00    +0.007 C 
ATOM     14  C   UNL     1      35.483 -25.729 -15.106  0.00  0.00    +0.004 C 
ATOM     15  C   UNL     1      31.630 -22.653 -17.549  0.00  0.00    +0.023 C 
ATOM     16  C   UNL     1      30.580 -22.932 -16.502  0.00  0.00    -0.035 C 
ATOM     17  C   UNL     1      38.372 -23.478 -15.679  0.00  0.00    +0.004 C 
ATOM     18  C   UNL     1      30.778 -25.414 -16.416  0.00  0.00    +0.011 C 
ATOM     19  C   UNL     1      29.781 -24.245 -14.505  0.00  0.00    -0.017 C 
ATOM     20  C   UNL     1      29.504 -22.137 -16.395  0.00  0.00    +0.034 C 
ATOM     21  C   UNL     1      28.709 -23.456 -14.392  0.00  0.00    +0.038 C 
ATOM     22  C   UNL     1      28.489 -22.352 -15.344  0.00  0.00    +0.195 C 
ENDROOT
BRANCH  11  23
ATOM     23  O   UNL     1      32.671 -26.250 -14.378  0.00  0.00    -0.382 OA
ATOM     24  H   UNL     1      33.573 -26.597 -14.457  0.00  0.00    +0.210 HD
ENDBRANCH  11  23
BRANCH   7  26
ATOM     25  O   UNL     1      37.044 -25.692 -12.481  0.00  0.00    -0.291 OA
ATOM     26  C   UNL     1      37.477 -24.780 -13.184  0.00  0.00    +0.203 C 
BRANCH  26  28
ATOM     27 CL   UNL     1      39.752 -26.100 -13.808  0.00  0.00    -0.105 Cl
ATOM     28  C   UNL     1      38.946 -24.562 -13.464  0.00  0.00    +0.163 C 
ENDBRANCH  26  28
ENDBRANCH   7  26
BRANCH   7  29
ATOM     29  O   UNL     1      36.281 -22.890 -12.744  0.00  0.00    -0.449 OA
BRANCH  29  31
ATOM     30  O   UNL     1      38.326 -22.095 -12.028  0.00  0.00    -0.250 OA
ATOM     31  C   UNL     1      37.302 -22.740 -11.850  0.00  0.00    +0.317 C 
BRANCH  31  32
ATOM     32  C   UNL     1      36.961 -23.503 -10.591  0.00  0.00    +0.110 C 
ATOM     33  C   UNL     1      35.464 -23.691 -10.424  0.00  0.00    +0.012 C 
ENDBRANCH  31  32
ENDBRANCH  29  31
ENDBRANCH   7  29
TORSDOF 6
ENDMDL
MODEL 3
REMARK VINA RESULT:      -6.5     12.923     15.638
REMARK  Name = 32798
REMARK  6 active torsions:
REMARK  status: ('A' for Active; 'I' for Inactive)
REMARK    1  A    between atoms: C_7  and  C_26
REMARK    2  A    between atoms: C_7  and  O_29
REMARK    3  A    between atoms: C_11  and  O_23
REMARK    4  A    between atoms: C_26  and  C_28
REMARK    5  A    between atoms: O_29  and  C_31
REMARK    6  A    between atoms: C_31  and  C_32
REMARK                            x       y       z     vdW  Elec       q    Type
REMARK                         _______ _______ _______ _____ _____    ______ ____
ROOT
ATOM      1  F   UNL     1      31.360 -22.527 -16.078  0.00  0.00    -0.237 F 
ATOM      2  O   UNL     1      26.751 -22.310 -17.659  0.00  0.00    -0.287 OA
ATOM      3  C   UNL     1      34.078 -23.576 -14.114  0.00  0.00    +0.043 C 
ATOM      4  C   UNL     1      33.500 -24.245 -15.381  0.00  0.00    +0.007 C 
ATOM      5  C   UNL     1      32.018 -24.630 -15.246  0.00  0.00    +0.033 C 
ATOM      6  C   UNL     1      31.176 -23.338 -14.969  0.00  0.00    +0.164 C 
ATOM      7  C   UNL     1      35.563 -23.393 -14.557  0.00  0.00    +0.187 C 
ATOM      8  C   UNL     1      34.520 -25.337 -15.688  0.00  0.00    +0.004 C 
ATOM      9  C   UNL     1      33.278 -22.278 -13.876  0.00  0.00    +0.036 C 
ATOM     10  C   UNL     1      35.883 -24.642 -15.438  0.00  0.00    +0.044 C 
ATOM     11  C   UNL     1      31.752 -22.508 -13.781  0.00  0.00    +0.141 C 
ATOM     12  C   UNL     1      29.627 -23.639 -14.916  0.00  0.00    +0.064 C 
ATOM     13  C   UNL     1      31.534 -25.347 -16.519  0.00  0.00    +0.007 C 
ATOM     14  C   UNL     1      34.013 -24.486 -12.857  0.00  0.00    +0.004 C 
ATOM     15  C   UNL     1      30.040 -25.645 -16.483  0.00  0.00    +0.023 C 
ATOM     16  C   UNL     1      29.260 -24.385 -16.205  0.00  0.00    -0.035 C 
ATOM     17  C   UNL     1      36.900 -25.633 -14.879  0.00  0.00    +0.004 C 
ATOM     18  C   UNL     1      29.195 -24.517 -13.718  0.00  0.00    +0.011 C 
ATOM     19  C   UNL     1      28.843 -22.340 -14.791  0.00  0.00    -0.017 C 
ATOM     20  C   UNL     1      28.340 -23.952 -17.081  0.00  0.00    +0.034 C 
ATOM     21  C   UNL     1      27.927 -21.903 -15.660  0.00  0.00    +0.038 C 
ATOM     22  C   UNL     1      27.601 -22.691 -16.863  0.00  0.00    +0.195 C 
ENDROOT
BRANCH  11  23
ATOM     23  O   UNL     1      31.431 -23.094 -12.529  0.00  0.00    -0.382 OA
ATOM     24  H   UNL     1      30.871 -22.487 -12.021  0.00  0.00    +0.210 HD
ENDBRANCH  11  23
BRANCH   7  26
ATOM     25  O   UNL     1      37.531 -22.421 -13.648  0.00  0.00    -0.291 OA
ATOM     26  C   UNL     1      36.516 -23.084 -13.440  0.00  0.00    +0.203 C 
BRANCH  26  28
ATOM     27 CL   UNL     1      37.381 -24.753 -11.497  0.00  0.00    -0.105 Cl
ATOM     28  C   UNL     1      36.139 -23.637 -12.084  0.00  0.00    +0.163 C 
ENDBRANCH  26  28
ENDBRANCH   7  26
BRANCH   7  29
ATOM     29  O   UNL     1      35.686 -22.226 -15.382  0.00  0.00    -0.449 OA
BRANCH  29  31
ATOM     30  O   UNL     1      37.607 -22.600 -16.604  0.00  0.00    -0.250 OA
ATOM     31  C   UNL     1      36.404 -22.394 -16.531  0.00  0.00    +0.317 C 
BRANCH  31  32
ATOM     32  C   UNL     1      35.466 -22.286 -17.710  0.00  0.00    +0.110 C 
ATOM     33  C   UNL     1      36.117 -21.601 -18.898  0.00  0.00    +0.012 C 
ENDBRANCH  31  32
ENDBRANCH  29  31
ENDBRANCH   7  29
TORSDOF 6
ENDMDL
MODEL 4
REMARK VINA RESULT:      -6.3     14.361     16.964
REMARK  Name = 32798
REMARK  6 active torsions:
REMARK  status: ('A' for Active; 'I' for Inactive)
REMARK    1  A    between atoms: C_7  and  C_26
REMARK    2  A    between atoms: C_7  and  O_29
REMARK    3  A    between atoms: C_11  and  O_23
REMARK    4  A    between atoms: C_26  and  C_28
REMARK    5  A    between atoms: O_29  and  C_31
REMARK    6  A    between atoms: C_31  and  C_32
REMARK                            x       y       z     vdW  Elec       q    Type
REMARK                         _______ _______ _______ _____ _____    ______ ____
ROOT
ATOM      1  F   UNL     1      35.551 -25.515 -14.635  0.00  0.00    -0.237 F 
ATOM      2  O   UNL     1      40.307 -26.597 -14.672  0.00  0.00    -0.287 OA
ATOM      3  C   UNL     1      32.659 -23.583 -14.135  0.00  0.00    +0.043 C 
ATOM      4  C   UNL     1      33.597 -23.600 -15.363  0.00  0.00    +0.007 C 
ATOM      5  C   UNL     1      35.053 -23.246 -15.023  0.00  0.00    +0.033 C 
ATOM      6  C   UNL     1      35.607 -24.288 -13.992  0.00  0.00    +0.164 C 
ATOM      7  C   UNL     1      31.298 -23.902 -14.828  0.00  0.00    +0.187 C 
ATOM      8  C   UNL     1      32.848 -22.742 -16.377  0.00  0.00    +0.004 C 
ATOM      9  C   UNL     1      33.181 -24.648 -13.146  0.00  0.00    +0.036 C 
ATOM     10  C   UNL     1      31.374 -23.196 -16.218  0.00  0.00    +0.044 C 
ATOM     11  C   UNL     1      34.665 -24.451 -12.761  0.00  0.00    +0.141 C 
ATOM     12  C   UNL     1      37.134 -24.049 -13.669  0.00  0.00    +0.064 C 
ATOM     13  C   UNL     1      35.909 -23.220 -16.303  0.00  0.00    +0.007 C 
ATOM     14  C   UNL     1      32.584 -22.196 -13.440  0.00  0.00    +0.004 C 
ATOM     15  C   UNL     1      37.386 -22.989 -16.006  0.00  0.00    +0.023 C 
ATOM     16  C   UNL     1      37.885 -24.001 -15.006  0.00  0.00    -0.035 C 
ATOM     17  C   UNL     1      30.421 -22.026 -16.446  0.00  0.00    +0.004 C 
ATOM     18  C   UNL     1      37.420 -22.730 -12.914  0.00  0.00    +0.011 C 
ATOM     19  C   UNL     1      37.665 -25.166 -12.781  0.00  0.00    -0.017 C 
ATOM     20  C   UNL     1      38.898 -24.822 -15.322  0.00  0.00    +0.034 C 
ATOM     21  C   UNL     1      38.672 -25.987 -13.091  0.00  0.00    +0.038 C 
ATOM     22  C   UNL     1      39.370 -25.861 -14.383  0.00  0.00    +0.195 C 
ENDROOT
BRANCH  11  23
ATOM     23  O   UNL     1      34.788 -23.360 -11.861  0.00  0.00    -0.382 OA
ATOM     24  H   UNL     1      35.077 -22.572 -12.345  0.00  0.00    +0.210 HD
ENDBRANCH  11  23
BRANCH   7  26
ATOM     25  O   UNL     1      29.206 -22.865 -14.388  0.00  0.00    -0.291 OA
ATOM     26  C   UNL     1      30.087 -23.624 -13.986  0.00  0.00    +0.203 C 
BRANCH  26  28
ATOM     27 CL   UNL     1      30.122 -23.153 -11.323  0.00  0.00    -0.105 Cl
ATOM     28  C   UNL     1      30.043 -24.326 -12.648  0.00  0.00    +0.163 C 
ENDBRANCH  26  28
ENDBRANCH   7  26
BRANCH   7  29
ATOM     29  O   UNL     1      31.184 -25.313 -15.053  0.00  0.00    -0.449 OA
BRANCH  29  31
ATOM     30  O   UNL     1      29.178 -26.374 -14.631  0.00  0.00    -0.250 OA
ATOM     31  C   UNL     1      29.932 -25.756 -15.370  0.00  0.00    +0.317 C 
BRANCH  31  32
ATOM     32  C   UNL     1      29.621 -25.354 -16.793  0.00  0.00    +0.110 C 
ATOM     33  C   UNL     1      28.227 -24.769 -16.930  0.00  0.00    +0.012 C 
ENDBRANCH  31  32
ENDBRANCH  29  31
ENDBRANCH   7  29
TORSDOF 6
ENDMDL
MODEL 5
REMARK VINA RESULT:      -6.1      7.348     11.160
REMARK  Name = 32798
REMARK  6 active torsions:
REMARK  status: ('A' for Active; 'I' for Inactive)
REMARK    1  A    between atoms: C_7  and  C_26
REMARK    2  A    between atoms: C_7  and  O_29
REMARK    3  A    between atoms: C_11  and  O_23
REMARK    4  A    between atoms: C_26  and  C_28
REMARK    5  A    between atoms: O_29  and  C_31
REMARK    6  A    between atoms: C_31  and  C_32
REMARK                            x       y       z     vdW  Elec       q    Type
REMARK                         _______ _______ _______ _____ _____    ______ ____
ROOT
ATOM      1  F   UNL     1      38.431  -5.087 -27.000  0.00  0.00    -0.237 F 
ATOM      2  O   UNL     1      42.942  -6.906 -26.630  0.00  0.00    -0.287 OA
ATOM      3  C   UNL     1      35.728  -3.363 -28.437  0.00  0.00    +0.043 C 
ATOM      4  C   UNL     1      36.159  -4.828 -28.669  0.00  0.00    +0.007 C 
ATOM      5  C   UNL     1      37.595  -4.965 -29.199  0.00  0.00    +0.033 C 
ATOM      6  C   UNL     1      38.586  -4.341 -28.158  0.00  0.00    +0.164 C 
ATOM      7  C   UNL     1      34.249  -3.582 -27.989  0.00  0.00    +0.187 C 
ATOM      8  C   UNL     1      35.011  -5.395 -29.498  0.00  0.00    +0.004 C 
ATOM      9  C   UNL     1      36.677  -2.769 -27.374  0.00  0.00    +0.036 C 
ATOM     10  C   UNL     1      33.747  -4.803 -28.823  0.00  0.00    +0.044 C 
ATOM     11  C   UNL     1      38.171  -2.895 -27.748  0.00  0.00    +0.141 C 
ATOM     12  C   UNL     1      40.094  -4.533 -28.587  0.00  0.00    +0.064 C 
ATOM     13  C   UNL     1      37.927  -6.444 -29.466  0.00  0.00    +0.007 C 
ATOM     14  C   UNL     1      35.763  -2.501 -29.729  0.00  0.00    +0.004 C 
ATOM     15  C   UNL     1      39.380  -6.646 -29.881  0.00  0.00    +0.023 C 
ATOM     16  C   UNL     1      40.306  -6.027 -28.865  0.00  0.00    -0.035 C 
ATOM     17  C   UNL     1      32.661  -4.526 -29.858  0.00  0.00    +0.004 C 
ATOM     18  C   UNL     1      40.494  -3.750 -29.859  0.00  0.00    +0.011 C 
ATOM     19  C   UNL     1      41.021  -4.044 -27.482  0.00  0.00    -0.017 C 
ATOM     20  C   UNL     1      41.218  -6.782 -28.233  0.00  0.00    +0.034 C 
ATOM     21  C   UNL     1      41.929  -4.791 -26.848  0.00  0.00    +0.038 C 
ATOM     22  C   UNL     1      42.100  -6.215 -27.193  0.00  0.00    +0.195 C 
ENDROOT
BRANCH  11  23
ATOM     23  O   UNL     1      38.495  -1.952 -28.758  0.00  0.00    -0.382 OA
ATOM     24  H   UNL     1      38.867  -1.155 -28.349  0.00  0.00    +0.210 HD
ENDBRANCH  11  23
BRANCH   7  26
ATOM     25  O   UNL     1      33.069  -1.796 -26.960  0.00  0.00    -0.291 OA
ATOM     26  C   UNL     1      33.400  -2.345 -28.010  0.00  0.00    +0.203 C 
BRANCH  26  28
ATOM     27 CL   UNL     1      31.233  -1.835 -29.544  0.00  0.00    -0.105 Cl
ATOM     28  C   UNL     1      32.995  -1.849 -29.379  0.00  0.00    +0.163 C 
ENDBRANCH  26  28
ENDBRANCH   7  26
BRANCH   7  29
ATOM     29  O   UNL     1      34.209  -3.945 -26.602  0.00  0.00    -0.449 OA
BRANCH  29  31
ATOM     30  O   UNL     1      32.123  -4.926 -26.490  0.00  0.00    -0.250 OA
ATOM     31  C   UNL     1      33.328  -4.938 -26.283  0.00  0.00    +0.317 C 
BRANCH  31  32
ATOM     32  C   UNL     1      34.088  -6.069 -25.628  0.00  0.00    +0.110 C 
ATOM     33  C   UNL     1      33.371  -6.603 -24.401  0.00  0.00    +0.012 C 
ENDBRANCH  31  32
ENDBRANCH  29  31
ENDBRANCH   7  29
TORSDOF 6
ENDMDL
MODEL 6
REMARK VINA RESULT:      -4.7      9.650     13.689
REMARK  Name = 32798
REMARK  6 active torsions:
REMARK  status: ('A' for Active; 'I' for Inactive)
REMARK    1  A    between atoms: C_7  and  C_26
REMARK    2  A    between atoms: C_7  and  O_29
REMARK    3  A    between atoms: C_11  and  O_23
REMARK    4  A    between atoms: C_26  and  C_28
REMARK    5  A    between atoms: O_29  and  C_31
REMARK    6  A    between atoms: C_31  and  C_32
REMARK                            x       y       z     vdW  Elec       q    Type
REMARK                         _______ _______ _______ _____ _____    ______ ____
ROOT
ATOM      1  F   UNL     1      34.087 -20.637 -18.413  0.00  0.00    -0.237 F 
ATOM      2  O   UNL     1      35.791 -17.664 -21.885  0.00  0.00    -0.287 OA
ATOM      3  C   UNL     1      33.716 -23.603 -16.567  0.00  0.00    +0.043 C 
ATOM      4  C   UNL     1      34.788 -22.502 -16.402  0.00  0.00    +0.007 C 
ATOM      5  C   UNL     1      35.620 -22.265 -17.672  0.00  0.00    +0.033 C 
ATOM      6  C   UNL     1      34.666 -21.824 -18.834  0.00  0.00    +0.164 C 
ATOM      7  C   UNL     1      33.131 -23.632 -15.120  0.00  0.00    +0.187 C 
ATOM      8  C   UNL     1      35.503 -22.912 -15.118  0.00  0.00    +0.004 C 
ATOM      9  C   UNL     1      32.750 -23.139 -17.678  0.00  0.00    +0.036 C 
ATOM     10  C   UNL     1      34.348 -23.353 -14.183  0.00  0.00    +0.044 C 
ATOM     11  C   UNL     1      33.463 -22.802 -19.007  0.00  0.00    +0.141 C 
ATOM     12  C   UNL     1      35.461 -21.465 -20.150  0.00  0.00    +0.064 C 
ATOM     13  C   UNL     1      36.705 -21.205 -17.409  0.00  0.00    +0.007 C 
ATOM     14  C   UNL     1      34.313 -24.992 -16.920  0.00  0.00    +0.004 C 
ATOM     15  C   UNL     1      37.482 -20.848 -18.671  0.00  0.00    +0.023 C 
ATOM     16  C   UNL     1      36.536 -20.438 -19.771  0.00  0.00    -0.035 C 
ATOM     17  C   UNL     1      34.794 -24.498 -13.278  0.00  0.00    +0.004 C 
ATOM     18  C   UNL     1      36.167 -22.672 -20.810  0.00  0.00    +0.011 C 
ATOM     19  C   UNL     1      34.513 -20.905 -21.201  0.00  0.00    -0.017 C 
ATOM     20  C   UNL     1      36.634 -19.221 -20.329  0.00  0.00    +0.034 C 
ATOM     21  C   UNL     1      34.604 -19.694 -21.758  0.00  0.00    +0.038 C 
ATOM     22  C   UNL     1      35.686 -18.771 -21.368  0.00  0.00    +0.195 C 
ENDROOT
BRANCH  11  23
ATOM     23  O   UNL     1      33.854 -24.000 -19.661  0.00  0.00    -0.382 OA
ATOM     24  H   UNL     1      33.366 -24.087 -20.495  0.00  0.00    +0.210 HD
ENDBRANCH  11  23
BRANCH   7  26
ATOM     25  O   UNL     1      32.530 -25.527 -13.819  0.00  0.00    -0.291 OA
ATOM     26  C   UNL     1      32.292 -24.837 -14.809  0.00  0.00    +0.203 C 
BRANCH  26  28
ATOM     27 CL   UNL     1      29.762 -25.782 -14.933  0.00  0.00    -0.105 Cl
ATOM     28  C   UNL     1      31.170 -25.124 -15.781  0.00  0.00    +0.163 C 
ENDBRANCH  26  28
ENDBRANCH   7  26
BRANCH   7  29
ATOM     29  O   UNL     1      32.189 -22.564 -14.953  0.00  0.00    -0.449 OA
BRANCH  29  31
ATOM     30  O   UNL     1      31.791 -22.834 -12.696  0.00  0.00    -0.250 OA
ATOM     31  C   UNL     1      31.402 -22.647 -13.841  0.00  0.00    +0.317 C 
BRANCH  31  32
ATOM     32  C   UNL     1      29.959 -22.468 -14.252  0.00  0.00    +0.110 C 
ATOM     33  C   UNL     1      29.819 -22.181 -15.736  0.00  0.00    +0.012 C 
ENDBRANCH  31  32
ENDBRANCH  29  31
ENDBRANCH   7  29
TORSDOF 6
ENDMDL
MODEL 7
REMARK VINA RESULT:      -4.2     12.992     16.722
REMARK  Name = 32798
REMARK  6 active torsions:
REMARK  status: ('A' for Active; 'I' for Inactive)
REMARK    1  A    between atoms: C_7  and  C_26
REMARK    2  A    between atoms: C_7  and  O_29
REMARK    3  A    between atoms: C_11  and  O_23
REMARK    4  A    between atoms: C_26  and  C_28
REMARK    5  A    between atoms: O_29  and  C_31
REMARK    6  A    between atoms: C_31  and  C_32
REMARK                            x       y       z     vdW  Elec       q    Type
REMARK                         _______ _______ _______ _____ _____    ______ ____
ROOT
ATOM      1  F   UNL     1      36.721 -23.670 -14.999  0.00  0.00    -0.237 F 
ATOM      2  O   UNL     1      41.476 -24.191 -14.042  0.00  0.00    -0.287 OA
ATOM      3  C   UNL     1      33.279 -24.360 -14.849  0.00  0.00    +0.043 C 
ATOM      4  C   UNL     1      34.128 -23.513 -13.875  0.00  0.00    +0.007 C 
ATOM      5  C   UNL     1      35.287 -24.293 -13.237  0.00  0.00    +0.033 C 
ATOM      6  C   UNL     1      36.242 -24.808 -14.369  0.00  0.00    +0.164 C 
ATOM      7  C   UNL     1      32.189 -23.315 -15.240  0.00  0.00    +0.187 C 
ATOM      8  C   UNL     1      33.077 -22.882 -12.967  0.00  0.00    +0.004 C 
ATOM      9  C   UNL     1      34.214 -24.821 -15.988  0.00  0.00    +0.036 C 
ATOM     10  C   UNL     1      31.946 -22.476 -13.946  0.00  0.00    +0.044 C 
ATOM     11  C   UNL     1      35.468 -25.573 -15.485  0.00  0.00    +0.141 C 
ATOM     12  C   UNL     1      37.515 -25.537 -13.784  0.00  0.00    +0.064 C 
ATOM     13  C   UNL     1      36.043 -23.404 -12.234  0.00  0.00    +0.007 C 
ATOM     14  C   UNL     1      32.612 -25.588 -14.172  0.00  0.00    +0.004 C 
ATOM     15  C   UNL     1      37.275 -24.094 -11.661  0.00  0.00    +0.023 C 
ATOM     16  C   UNL     1      38.166 -24.585 -12.774  0.00  0.00    -0.035 C 
ATOM     17  C   UNL     1      30.579 -22.619 -13.282  0.00  0.00    +0.004 C 
ATOM     18  C   UNL     1      37.203 -26.865 -13.056  0.00  0.00    +0.011 C 
ATOM     19  C   UNL     1      38.481 -25.889 -14.908  0.00  0.00    -0.017 C 
ATOM     20  C   UNL     1      39.435 -24.155 -12.864  0.00  0.00    +0.034 C 
ATOM     21  C   UNL     1      39.743 -25.463 -15.004  0.00  0.00    +0.038 C 
ATOM     22  C   UNL     1      40.313 -24.574 -13.974  0.00  0.00    +0.195 C 
ENDROOT
BRANCH  11  23
ATOM     23  O   UNL     1      35.108 -26.882 -15.068  0.00  0.00    -0.382 OA
ATOM     24  H   UNL     1      35.876 -27.469 -15.149  0.00  0.00    +0.210 HD
ENDBRANCH  11  23
BRANCH   7  26
ATOM     25  O   UNL     1      30.797 -25.112 -15.933  0.00  0.00    -0.291 OA
ATOM     26  C   UNL     1      30.980 -23.895 -15.915  0.00  0.00    +0.203 C 
BRANCH  26  28
ATOM     27 CL   UNL     1      28.361 -23.252 -16.113  0.00  0.00    -0.105 Cl
ATOM     28  C   UNL     1      30.040 -22.896 -16.550  0.00  0.00    +0.163 C 
ENDBRANCH  26  28
ENDBRANCH   7  26
BRANCH   7  29
ATOM     29  O   UNL     1      32.697 -22.434 -16.251  0.00  0.00    -0.449 OA
BRANCH  29  31
ATOM     30  O   UNL     1      32.698 -23.882 -18.048  0.00  0.00    -0.250 OA
ATOM     31  C   UNL     1      33.245 -23.048 -17.340  0.00  0.00    +0.317 C 
BRANCH  31  32
ATOM     32  C   UNL     1      34.650 -22.527 -17.536  0.00  0.00    +0.110 C 
ATOM     33  C   UNL     1      34.891 -22.053 -18.957  0.00  0.00    +0.012 C 
ENDBRANCH  31  32
ENDBRANCH  29  31
ENDBRANCH   7  29
TORSDOF 6
ENDMDL
MODEL 8
REMARK VINA RESULT:      -4.2     10.990     15.029
REMARK  Name = 32798
REMARK  6 active torsions:
REMARK  status: ('A' for Active; 'I' for Inactive)
REMARK    1  A    between atoms: C_7  and  C_26
REMARK    2  A    between atoms: C_7  and  O_29
REMARK    3  A    between atoms: C_11  and  O_23
REMARK    4  A    between atoms: C_26  and  C_28
REMARK    5  A    between atoms: O_29  and  C_31
REMARK    6  A    between atoms: C_31  and  C_32
REMARK                            x       y       z     vdW  Elec       q    Type
REMARK                         _______ _______ _______ _____ _____    ______ ____
ROOT
ATOM      1  F   UNL     1      34.810 -21.216 -17.085  0.00  0.00    -0.237 F 
ATOM      2  O   UNL     1      33.453 -18.446 -20.864  0.00  0.00    -0.287 OA
ATOM      3  C   UNL     1      35.857 -24.105 -15.381  0.00  0.00    +0.043 C 
ATOM      4  C   UNL     1      36.725 -23.070 -16.132  0.00  0.00    +0.007 C 
ATOM      5  C   UNL     1      36.349 -22.919 -17.614  0.00  0.00    +0.033 C 
ATOM      6  C   UNL     1      34.858 -22.448 -17.718  0.00  0.00    +0.164 C 
ATOM      7  C   UNL     1      36.535 -24.060 -13.976  0.00  0.00    +0.187 C 
ATOM      8  C   UNL     1      38.147 -23.491 -15.772  0.00  0.00    +0.004 C 
ATOM      9  C   UNL     1      34.396 -23.608 -15.444  0.00  0.00    +0.036 C 
ATOM     10  C   UNL     1      38.053 -23.835 -14.263  0.00  0.00    +0.044 C 
ATOM     11  C   UNL     1      33.899 -23.351 -16.885  0.00  0.00    +0.141 C 
ATOM     12  C   UNL     1      34.426 -22.173 -19.213  0.00  0.00    +0.064 C 
ATOM     13  C   UNL     1      37.297 -21.923 -18.307  0.00  0.00    +0.007 C 
ATOM     14  C   UNL     1      35.963 -25.538 -15.970  0.00  0.00    +0.004 C 
ATOM     15  C   UNL     1      36.892 -21.648 -19.751  0.00  0.00    +0.023 C 
ATOM     16  C   UNL     1      35.452 -21.207 -19.817  0.00  0.00    -0.035 C 
ATOM     17  C   UNL     1      38.995 -24.982 -13.911  0.00  0.00    +0.004 C 
ATOM     18  C   UNL     1      34.382 -23.439 -20.100  0.00  0.00    +0.011 C 
ATOM     19  C   UNL     1      33.024 -21.581 -19.254  0.00  0.00    -0.017 C 
ATOM     20  C   UNL     1      35.134 -20.013 -20.342  0.00  0.00    +0.034 C 
ATOM     21  C   UNL     1      32.701 -20.393 -19.773  0.00  0.00    +0.038 C 
ATOM     22  C   UNL     1      33.739 -19.530 -20.369  0.00  0.00    +0.195 C 
ENDROOT
BRANCH  11  23
ATOM     23  O   UNL     1      33.648 -24.588 -17.535  0.00  0.00    -0.382 OA
ATOM     24  H   UNL     1      33.226 -24.423 -18.392  0.00  0.00    +0.210 HD
ENDBRANCH  11  23
BRANCH   7  26
ATOM     25  O   UNL     1      35.061 -25.255 -12.547  0.00  0.00    -0.291 OA
ATOM     26  C   UNL     1      36.173 -25.201 -13.071  0.00  0.00    +0.203 C 
BRANCH  26  28
ATOM     27 CL   UNL     1      37.099 -27.547 -14.044  0.00  0.00    -0.105 Cl
ATOM     28  C   UNL     1      37.251 -26.239 -12.860  0.00  0.00    +0.163 C 
ENDBRANCH  26  28
ENDBRANCH   7  26
BRANCH   7  29
ATOM     29  O   UNL     1      36.051 -22.930 -13.237  0.00  0.00    -0.449 OA
BRANCH  29  31
ATOM     30  O   UNL     1      37.855 -22.146 -12.031  0.00  0.00    -0.250 OA
ATOM     31  C   UNL     1      36.739 -22.641 -12.093  0.00  0.00    +0.317 C 
BRANCH  31  32
ATOM     32  C   UNL     1      35.892 -23.033 -10.905  0.00  0.00    +0.110 C 
ATOM     33  C   UNL     1      36.624 -23.978  -9.969  0.00  0.00    +0.012 C 
ENDBRANCH  31  32
ENDBRANCH  29  31
ENDBRANCH   7  29
TORSDOF 6
ENDMDL
MODEL 9
REMARK VINA RESULT:      -4.2      2.928      7.370
REMARK  Name = 32798
REMARK  6 active torsions:
REMARK  status: ('A' for Active; 'I' for Inactive)
REMARK    1  A    between atoms: C_7  and  C_26
REMARK    2  A    between atoms: C_7  and  O_29
REMARK    3  A    between atoms: C_11  and  O_23
REMARK    4  A    between atoms: C_26  and  C_28
REMARK    5  A    between atoms: O_29  and  C_31
REMARK    6  A    between atoms: C_31  and  C_32
REMARK                            x       y       z     vdW  Elec       q    Type
REMARK                         _______ _______ _______ _____ _____    ______ ____
ROOT
ATOM      1  F   UNL     1      33.724 -11.308 -21.776  0.00  0.00    -0.237 F 
ATOM      2  O   UNL     1      34.188 -15.843 -20.040  0.00  0.00    -0.287 OA
ATOM      3  C   UNL     1      32.802  -8.762 -24.015  0.00  0.00    +0.043 C 
ATOM      4  C   UNL     1      31.942  -9.427 -22.918  0.00  0.00    +0.007 C 
ATOM      5  C   UNL     1      31.802 -10.948 -23.090  0.00  0.00    +0.033 C 
ATOM      6  C   UNL     1      33.225 -11.602 -23.036  0.00  0.00    +0.164 C 
ATOM      7  C   UNL     1      32.675  -7.266 -23.590  0.00  0.00    +0.187 C 
ATOM      8  C   UNL     1      30.681  -8.569 -22.904  0.00  0.00    +0.004 C 
ATOM      9  C   UNL     1      34.216  -9.374 -23.923  0.00  0.00    +0.036 C 
ATOM     10  C   UNL     1      31.224  -7.122 -23.030  0.00  0.00    +0.044 C 
ATOM     11  C   UNL     1      34.223 -10.917 -24.019  0.00  0.00    +0.141 C 
ATOM     12  C   UNL     1      33.156 -13.179 -23.107  0.00  0.00    +0.064 C 
ATOM     13  C   UNL     1      30.882 -11.527 -22.000  0.00  0.00    +0.007 C 
ATOM     14  C   UNL     1      32.226  -8.952 -25.445  0.00  0.00    +0.004 C 
ATOM     15  C   UNL     1      30.805 -13.048 -22.056  0.00  0.00    +0.023 C 
ATOM     16  C   UNL     1      32.188 -13.645 -22.012  0.00  0.00    -0.035 C 
ATOM     17  C   UNL     1      30.262  -6.252 -23.834  0.00  0.00    +0.004 C 
ATOM     18  C   UNL     1      32.647 -13.728 -24.459  0.00  0.00    +0.011 C 
ATOM     19  C   UNL     1      34.542 -13.775 -22.904  0.00  0.00    -0.017 C 
ATOM     20  C   UNL     1      32.526 -14.497 -21.031  0.00  0.00    +0.034 C 
ATOM     21  C   UNL     1      34.885 -14.621 -21.929  0.00  0.00    +0.038 C 
ATOM     22  C   UNL     1      33.891 -15.053 -20.929  0.00  0.00    +0.195 C 
ENDROOT
BRANCH  11  23
ATOM     23  O   UNL     1      33.991 -11.316 -25.361  0.00  0.00    -0.382 OA
ATOM     24  H   UNL     1      34.224 -12.252 -25.465  0.00  0.00    +0.210 HD
ENDBRANCH  11  23
BRANCH   7  26
ATOM     25  O   UNL     1      32.297  -5.481 -25.112  0.00  0.00    -0.291 OA
ATOM     26  C   UNL     1      33.104  -6.280 -24.637  0.00  0.00    +0.203 C 
BRANCH  26  28
ATOM     27 CL   UNL     1      34.821  -5.470 -26.562  0.00  0.00    -0.105 Cl
ATOM     28  C   UNL     1      34.557  -6.348 -25.047  0.00  0.00    +0.163 C 
ENDBRANCH  26  28
ENDBRANCH   7  26
BRANCH   7  29
ATOM     29  O   UNL     1      33.592  -6.982 -22.524  0.00  0.00    -0.449 OA
BRANCH  29  31
ATOM     30  O   UNL     1      32.410  -5.592 -21.112  0.00  0.00    -0.250 OA
ATOM     31  C   UNL     1      33.017  -6.629 -21.337  0.00  0.00    +0.317 C 
BRANCH  31  32
ATOM     32  C   UNL     1      33.252  -7.736 -20.336  0.00  0.00    +0.110 C 
ATOM     33  C   UNL     1      31.984  -8.108 -19.588  0.00  0.00    +0.012 C 
ENDBRANCH  31  32
ENDBRANCH  29  31
ENDBRANCH   7  29
TORSDOF 6
ENDMDL
