MODEL 1
REMARK VINA RESULT:     -10.7      0.000      0.000
REMARK  Name = 25195624
REMARK  13 active torsions:
REMARK  status: ('A' for Active; 'I' for Inactive)
REMARK    1  A    between atoms: C_2  and  C_12
REMARK    2  A    between atoms: C_5  and  C_23
REMARK    3  A    between atoms: C_9  and  O_14
REMARK    4  A    between atoms: C_10  and  O_16
REMARK    5  A    between atoms: C_11  and  O_18
REMARK    6  A    between atoms: C_13  and  C_20
REMARK    7  A    between atoms: C_20  and  O_21
REMARK    8  A    between atoms: C_23  and  C_24
REMARK    9  A    between atoms: C_25  and  O_30
REMARK   10  A    between atoms: O_30  and  C_31
REMARK   11  A    between atoms: C_31  and  C_32
REMARK   12  A    between atoms: C_32  and  O_33
REMARK   13  A    between atoms: O_33  and  C_34
REMARK                            x       y       z     vdW  Elec       q    Type
REMARK                         _______ _______ _______ _____ _____    ______ ____
ROOT
ATOM      1 CL   UNL     1      35.423 -19.375 -24.189  0.00  0.00    -0.083 Cl
ATOM      2  C   UNL     1      33.742 -15.185 -24.100  0.00  0.00    +0.007 C 
ATOM      3  C   UNL     1      34.360 -15.702 -22.962  0.00  0.00    -0.005 C 
ATOM      4  C   UNL     1      33.647 -15.963 -25.255  0.00  0.00    -0.001 C 
ATOM      5  C   UNL     1      34.884 -16.995 -22.978  0.00  0.00    -0.007 C 
ATOM      6  C   UNL     1      34.169 -17.256 -25.271  0.00  0.00    +0.011 C 
ATOM      7  C   UNL     1      34.788 -17.772 -24.132  0.00  0.00    +0.054 C 
ENDROOT
BRANCH   2  12
ATOM      8  O   UNL     1      34.174 -12.900 -24.604  0.00  0.00    -0.347 OA
ATOM      9  C   UNL     1      32.329 -11.878 -22.649  0.00  0.00    +0.169 C 
ATOM     10  C   UNL     1      32.749 -13.350 -22.670  0.00  0.00    +0.171 C 
ATOM     11  C   UNL     1      33.366 -10.994 -23.343  0.00  0.00    +0.169 C 
ATOM     12  C   UNL     1      33.173 -13.780 -24.084  0.00  0.00    +0.167 C 
ATOM     13  C   UNL     1      33.719 -11.552 -24.723  0.00  0.00    +0.174 C 
BRANCH   9  14
ATOM     14  O   UNL     1      32.211 -11.438 -21.295  0.00  0.00    -0.379 OA
ATOM     15  H   UNL     1      33.010 -11.684 -20.804  0.00  0.00    +0.211 HD
ENDBRANCH   9  14
BRANCH  10  16
ATOM     16  O   UNL     1      31.644 -14.154 -22.261  0.00  0.00    -0.379 OA
ATOM     17  H   UNL     1      31.961 -15.033 -22.002  0.00  0.00    +0.211 HD
ENDBRANCH  10  16
BRANCH  11  18
ATOM     18  O   UNL     1      32.838  -9.678 -23.489  0.00  0.00    -0.379 OA
ATOM     19  H   UNL     1      32.347  -9.436 -22.688  0.00  0.00    +0.211 HD
ENDBRANCH  11  18
BRANCH  13  20
ATOM     20  C   UNL     1      34.832 -10.750 -25.389  0.00  0.00    +0.169 C 
BRANCH  20  21
ATOM     21  O   UNL     1      35.524 -10.022 -24.390  0.00  0.00    -0.379 OA
ATOM     22  H   UNL     1      35.936 -10.641 -23.767  0.00  0.00    +0.211 HD
ENDBRANCH  20  21
ENDBRANCH  13  20
ENDBRANCH   2  12
BRANCH   5  23
ATOM     23  C   UNL     1      35.539 -17.511 -21.738  0.00  0.00    +0.053 C 
BRANCH  23  24
ATOM     24  C   UNL     1      34.835 -18.702 -21.124  0.00  0.00    -0.018 C 
ATOM     25  C   UNL     1      33.539 -20.898 -19.993  0.00  0.00    +0.139 C 
ATOM     26  C   UNL     1      33.443 -18.728 -21.050  0.00  0.00    -0.001 C 
ATOM     27  C   UNL     1      35.580 -19.774 -20.632  0.00  0.00    -0.001 C 
ATOM     28  C   UNL     1      32.795 -19.827 -20.485  0.00  0.00    +0.037 C 
ATOM     29  C   UNL     1      34.931 -20.872 -20.066  0.00  0.00    +0.037 C 
BRANCH  25  30
ATOM     30  O   UNL     1      32.906 -21.970 -19.441  0.00  0.00    -0.473 OA
BRANCH  30  31
ATOM     31  C   UNL     1      33.718 -22.925 -18.760  0.00  0.00    +0.237 C 
BRANCH  31  32
ATOM     32  C   UNL     1      33.155 -23.154 -17.372  0.00  0.00    +0.189 C 
BRANCH  32  33
ATOM     33  O   UNL     1      31.797 -22.731 -17.346  0.00  0.00    -0.352 OA
BRANCH  33  34
ATOM     34  C   UNL     1      31.022 -23.415 -16.322  0.00  0.00    +0.116 C 
ATOM     35  C   UNL     1      31.012 -22.771 -14.967  0.00  0.00    +0.032 C 
ATOM     36  C   UNL     1      29.793 -22.702 -15.838  0.00  0.00    +0.032 C 
ENDBRANCH  33  34
ENDBRANCH  32  33
ENDBRANCH  31  32
ENDBRANCH  30  31
ENDBRANCH  25  30
ENDBRANCH  23  24
ENDBRANCH   5  23
TORSDOF 13
ENDMDL
MODEL 2
REMARK VINA RESULT:     -10.2      2.897     11.279
REMARK  Name = 25195624
REMARK  13 active torsions:
REMARK  status: ('A' for Active; 'I' for Inactive)
REMARK    1  A    between atoms: C_2  and  C_12
REMARK    2  A    between atoms: C_5  and  C_23
REMARK    3  A    between atoms: C_9  and  O_14
REMARK    4  A    between atoms: C_10  and  O_16
REMARK    5  A    between atoms: C_11  and  O_18
REMARK    6  A    between atoms: C_13  and  C_20
REMARK    7  A    between atoms: C_20  and  O_21
REMARK    8  A    between atoms: C_23  and  C_24
REMARK    9  A    between atoms: C_25  and  O_30
REMARK   10  A    between atoms: O_30  and  C_31
REMARK   11  A    between atoms: C_31  and  C_32
REMARK   12  A    between atoms: C_32  and  O_33
REMARK   13  A    between atoms: O_33  and  C_34
REMARK                            x       y       z     vdW  Elec       q    Type
REMARK                         _______ _______ _______ _____ _____    ______ ____
ROOT
ATOM      1 CL   UNL     1      37.205 -21.370 -17.541  0.00  0.00    -0.083 Cl
ATOM      2  C   UNL     1      33.368 -23.443 -16.372  0.00  0.00    +0.007 C 
ATOM      3  C   UNL     1      33.658 -23.245 -17.721  0.00  0.00    -0.005 C 
ATOM      4  C   UNL     1      34.260 -23.001 -15.394  0.00  0.00    -0.001 C 
ATOM      5  C   UNL     1      34.842 -22.606 -18.094  0.00  0.00    -0.007 C 
ATOM      6  C   UNL     1      35.443 -22.362 -15.767  0.00  0.00    +0.011 C 
ATOM      7  C   UNL     1      35.733 -22.164 -17.117  0.00  0.00    +0.054 C 
ENDROOT
BRANCH   2  12
ATOM      8  O   UNL     1      30.991 -23.353 -16.460  0.00  0.00    -0.347 OA
ATOM      9  C   UNL     1      30.612 -24.868 -14.045  0.00  0.00    +0.169 C 
ATOM     10  C   UNL     1      31.982 -24.314 -14.443  0.00  0.00    +0.171 C 
ATOM     11  C   UNL     1      29.480 -24.085 -14.711  0.00  0.00    +0.169 C 
ATOM     12  C   UNL     1      32.082 -24.137 -15.966  0.00  0.00    +0.167 C 
ATOM     13  C   UNL     1      29.721 -23.957 -16.216  0.00  0.00    +0.174 C 
BRANCH   9  14
ATOM     14  O   UNL     1      30.449 -24.760 -12.629  0.00  0.00    -0.379 OA
ATOM     15  H   UNL     1      29.818 -25.430 -12.325  0.00  0.00    +0.211 HD
ENDBRANCH   9  14
BRANCH  10  16
ATOM     16  O   UNL     1      32.993 -25.229 -14.022  0.00  0.00    -0.379 OA
ATOM     17  H   UNL     1      32.706 -26.136 -14.208  0.00  0.00    +0.211 HD
ENDBRANCH  10  16
BRANCH  11  18
ATOM     18  O   UNL     1      28.246 -24.761 -14.487  0.00  0.00    -0.379 OA
ATOM     19  H   UNL     1      28.182 -25.524 -15.083  0.00  0.00    +0.211 HD
ENDBRANCH  11  18
BRANCH  13  20
ATOM     20  C   UNL     1      28.664 -23.086 -16.886  0.00  0.00    +0.169 C 
BRANCH  20  21
ATOM     21  O   UNL     1      27.689 -23.929 -17.473  0.00  0.00    -0.379 OA
ATOM     22  H   UNL     1      26.855 -23.849 -16.983  0.00  0.00    +0.211 HD
ENDBRANCH  20  21
ENDBRANCH  13  20
ENDBRANCH   2  12
BRANCH   5  23
ATOM     23  C   UNL     1      35.116 -22.415 -19.551  0.00  0.00    +0.053 C 
BRANCH  23  24
ATOM     24  C   UNL     1      34.743 -21.042 -20.069  0.00  0.00    -0.018 C 
ATOM     25  C   UNL     1      34.054 -18.513 -21.023  0.00  0.00    +0.139 C 
ATOM     26  C   UNL     1      35.739 -20.159 -20.486  0.00  0.00    -0.001 C 
ATOM     27  C   UNL     1      33.403 -20.661 -20.129  0.00  0.00    -0.001 C 
ATOM     28  C   UNL     1      35.394 -18.895 -20.964  0.00  0.00    +0.037 C 
ATOM     29  C   UNL     1      33.058 -19.396 -20.606  0.00  0.00    +0.037 C 
BRANCH  25  30
ATOM     30  O   UNL     1      33.718 -17.279 -21.490  0.00  0.00    -0.473 OA
BRANCH  30  31
ATOM     31  C   UNL     1      34.685 -16.240 -21.334  0.00  0.00    +0.237 C 
BRANCH  31  32
ATOM     32  C   UNL     1      34.174 -14.984 -22.011  0.00  0.00    +0.189 C 
BRANCH  32  33
ATOM     33  O   UNL     1      33.435 -15.348 -23.171  0.00  0.00    -0.352 OA
BRANCH  33  34
ATOM     34  C   UNL     1      34.268 -15.414 -24.361  0.00  0.00    +0.116 C 
ATOM     35  C   UNL     1      34.375 -16.761 -25.014  0.00  0.00    +0.032 C 
ATOM     36  C   UNL     1      33.554 -15.681 -25.653  0.00  0.00    +0.032 C 
ENDBRANCH  33  34
ENDBRANCH  32  33
ENDBRANCH  31  32
ENDBRANCH  30  31
ENDBRANCH  25  30
ENDBRANCH  23  24
ENDBRANCH   5  23
TORSDOF 13
ENDMDL
MODEL 3
REMARK VINA RESULT:     -10.1      4.628     12.033
REMARK  Name = 25195624
REMARK  13 active torsions:
REMARK  status: ('A' for Active; 'I' for Inactive)
REMARK    1  A    between atoms: C_2  and  C_12
REMARK    2  A    between atoms: C_5  and  C_23
REMARK    3  A    between atoms: C_9  and  O_14
REMARK    4  A    between atoms: C_10  and  O_16
REMARK    5  A    between atoms: C_11  and  O_18
REMARK    6  A    between atoms: C_13  and  C_20
REMARK    7  A    between atoms: C_20  and  O_21
REMARK    8  A    between atoms: C_23  and  C_24
REMARK    9  A    between atoms: C_25  and  O_30
REMARK   10  A    between atoms: O_30  and  C_31
REMARK   11  A    between atoms: C_31  and  C_32
REMARK   12  A    between atoms: C_32  and  O_33
REMARK   13  A    between atoms: O_33  and  C_34
REMARK                            x       y       z     vdW  Elec       q    Type
REMARK                         _______ _______ _______ _____ _____    ______ ____
ROOT
ATOM      1 CL   UNL     1      30.823 -22.636 -17.128  0.00  0.00    -0.083 Cl
ATOM      2  C   UNL     1      34.628 -23.597 -14.896  0.00  0.00    +0.007 C 
ATOM      3  C   UNL     1      34.618 -23.646 -16.291  0.00  0.00    -0.005 C 
ATOM      4  C   UNL     1      33.468 -23.254 -14.203  0.00  0.00    -0.001 C 
ATOM      5  C   UNL     1      33.448 -23.350 -16.991  0.00  0.00    -0.007 C 
ATOM      6  C   UNL     1      32.298 -22.959 -14.902  0.00  0.00    +0.011 C 
ATOM      7  C   UNL     1      32.288 -23.007 -16.296  0.00  0.00    +0.054 C 
ENDROOT
BRANCH   2  12
ATOM      8  O   UNL     1      36.942 -24.120 -15.096  0.00  0.00    -0.347 OA
ATOM      9  C   UNL     1      37.070 -25.558 -12.608  0.00  0.00    +0.169 C 
ATOM     10  C   UNL     1      35.735 -25.158 -13.241  0.00  0.00    +0.171 C 
ATOM     11  C   UNL     1      38.184 -25.621 -13.653  0.00  0.00    +0.169 C 
ATOM     12  C   UNL     1      35.900 -23.919 -14.135  0.00  0.00    +0.167 C 
ATOM     13  C   UNL     1      38.216 -24.342 -14.492  0.00  0.00    +0.174 C 
BRANCH   9  14
ATOM     14  O   UNL     1      36.946 -26.852 -12.016  0.00  0.00    -0.379 OA
ATOM     15  H   UNL     1      36.597 -27.475 -12.673  0.00  0.00    +0.211 HD
ENDBRANCH   9  14
BRANCH  10  16
ATOM     16  O   UNL     1      34.803 -24.851 -12.204  0.00  0.00    -0.379 OA
ATOM     17  H   UNL     1      35.103 -24.066 -11.721  0.00  0.00    +0.211 HD
ENDBRANCH  10  16
BRANCH  11  18
ATOM     18  O   UNL     1      39.438 -25.784 -12.995  0.00  0.00    -0.379 OA
ATOM     19  H   UNL     1      40.115 -26.028 -13.644  0.00  0.00    +0.211 HD
ENDBRANCH  11  18
BRANCH  13  20
ATOM     20  C   UNL     1      39.246 -24.427 -15.613  0.00  0.00    +0.169 C 
BRANCH  20  21
ATOM     21  O   UNL     1      39.720 -25.759 -15.690  0.00  0.00    -0.379 OA
ATOM     22  H   UNL     1      39.142 -26.275 -16.274  0.00  0.00    +0.211 HD
ENDBRANCH  20  21
ENDBRANCH  13  20
ENDBRANCH   2  12
BRANCH   5  23
ATOM     23  C   UNL     1      33.479 -23.412 -18.484  0.00  0.00    +0.053 C 
BRANCH  23  24
ATOM     24  C   UNL     1      34.109 -22.198 -19.133  0.00  0.00    -0.018 C 
ATOM     25  C   UNL     1      35.269 -19.961 -20.329  0.00  0.00    +0.139 C 
ATOM     26  C   UNL     1      33.303 -21.239 -19.747  0.00  0.00    -0.001 C 
ATOM     27  C   UNL     1      35.494 -22.039 -19.117  0.00  0.00    -0.001 C 
ATOM     28  C   UNL     1      33.884 -20.120 -20.345  0.00  0.00    +0.037 C 
ATOM     29  C   UNL     1      36.074 -20.920 -19.716  0.00  0.00    +0.037 C 
BRANCH  25  30
ATOM     30  O   UNL     1      35.835 -18.869 -20.913  0.00  0.00    -0.473 OA
BRANCH  30  31
ATOM     31  C   UNL     1      35.349 -18.495 -22.201  0.00  0.00    +0.237 C 
BRANCH  31  32
ATOM     32  C   UNL     1      35.196 -16.988 -22.254  0.00  0.00    +0.189 C 
BRANCH  32  33
ATOM     33  O   UNL     1      34.771 -16.519 -20.980  0.00  0.00    -0.352 OA
BRANCH  33  34
ATOM     34  C   UNL     1      34.183 -15.190 -21.046  0.00  0.00    +0.116 C 
ATOM     35  C   UNL     1      32.886 -15.082 -21.792  0.00  0.00    +0.032 C 
ATOM     36  C   UNL     1      32.899 -14.998 -20.294  0.00  0.00    +0.032 C 
ENDBRANCH  33  34
ENDBRANCH  32  33
ENDBRANCH  31  32
ENDBRANCH  30  31
ENDBRANCH  25  30
ENDBRANCH  23  24
ENDBRANCH   5  23
TORSDOF 13
ENDMDL
MODEL 4
REMARK VINA RESULT:      -9.9      4.545     11.966
REMARK  Name = 25195624
REMARK  13 active torsions:
REMARK  status: ('A' for Active; 'I' for Inactive)
REMARK    1  A    between atoms: C_2  and  C_12
REMARK    2  A    between atoms: C_5  and  C_23
REMARK    3  A    between atoms: C_9  and  O_14
REMARK    4  A    between atoms: C_10  and  O_16
REMARK    5  A    between atoms: C_11  and  O_18
REMARK    6  A    between atoms: C_13  and  C_20
REMARK    7  A    between atoms: C_20  and  O_21
REMARK    8  A    between atoms: C_23  and  C_24
REMARK    9  A    between atoms: C_25  and  O_30
REMARK   10  A    between atoms: O_30  and  C_31
REMARK   11  A    between atoms: C_31  and  C_32
REMARK   12  A    between atoms: C_32  and  O_33
REMARK   13  A    between atoms: O_33  and  C_34
REMARK                            x       y       z     vdW  Elec       q    Type
REMARK                         _______ _______ _______ _____ _____    ______ ____
ROOT
ATOM      1 CL   UNL     1      30.840 -22.346 -17.199  0.00  0.00    -0.083 Cl
ATOM      2  C   UNL     1      34.383 -24.034 -14.967  0.00  0.00    +0.007 C 
ATOM      3  C   UNL     1      34.392 -24.021 -16.362  0.00  0.00    -0.005 C 
ATOM      4  C   UNL     1      33.284 -23.528 -14.272  0.00  0.00    -0.001 C 
ATOM      5  C   UNL     1      33.302 -23.502 -17.062  0.00  0.00    -0.007 C 
ATOM      6  C   UNL     1      32.195 -23.009 -14.972  0.00  0.00    +0.011 C 
ATOM      7  C   UNL     1      32.204 -22.996 -16.367  0.00  0.00    +0.054 C 
ENDROOT
BRANCH   2  12
ATOM      8  O   UNL     1      36.269 -23.499 -13.618  0.00  0.00    -0.347 OA
ATOM      9  C   UNL     1      37.760 -25.842 -14.366  0.00  0.00    +0.169 C 
ATOM     10  C   UNL     1      36.495 -25.418 -15.115  0.00  0.00    +0.171 C 
ATOM     11  C   UNL     1      38.398 -24.659 -13.637  0.00  0.00    +0.169 C 
ATOM     12  C   UNL     1      35.566 -24.599 -14.206  0.00  0.00    +0.167 C 
ATOM     13  C   UNL     1      37.359 -23.915 -12.795  0.00  0.00    +0.174 C 
BRANCH   9  14
ATOM     14  O   UNL     1      38.716 -26.352 -15.298  0.00  0.00    -0.379 OA
ATOM     15  H   UNL     1      39.319 -26.960 -14.842  0.00  0.00    +0.211 HD
ENDBRANCH   9  14
BRANCH  10  16
ATOM     16  O   UNL     1      35.798 -26.586 -15.547  0.00  0.00    -0.379 OA
ATOM     17  H   UNL     1      36.415 -27.184 -15.995  0.00  0.00    +0.211 HD
ENDBRANCH  10  16
BRANCH  11  18
ATOM     18  O   UNL     1      39.438 -25.136 -12.786  0.00  0.00    -0.379 OA
ATOM     19  H   UNL     1      40.046 -24.409 -12.580  0.00  0.00    +0.211 HD
ENDBRANCH  11  18
BRANCH  13  20
ATOM     20  C   UNL     1      37.946 -22.666 -12.146  0.00  0.00    +0.169 C 
BRANCH  20  21
ATOM     21  O   UNL     1      37.247 -22.413 -10.941  0.00  0.00    -0.379 OA
ATOM     22  H   UNL     1      36.496 -21.826 -11.119  0.00  0.00    +0.211 HD
ENDBRANCH  20  21
ENDBRANCH  13  20
ENDBRANCH   2  12
BRANCH   5  23
ATOM     23  C   UNL     1      33.352 -23.505 -18.556  0.00  0.00    +0.053 C 
BRANCH  23  24
ATOM     24  C   UNL     1      33.988 -22.267 -19.150  0.00  0.00    -0.018 C 
ATOM     25  C   UNL     1      35.162 -19.984 -20.243  0.00  0.00    +0.139 C 
ATOM     26  C   UNL     1      33.198 -21.320 -19.802  0.00  0.00    -0.001 C 
ATOM     27  C   UNL     1      35.365 -22.072 -19.043  0.00  0.00    -0.001 C 
ATOM     28  C   UNL     1      33.785 -20.179 -20.348  0.00  0.00    +0.037 C 
ATOM     29  C   UNL     1      35.952 -20.931 -19.591  0.00  0.00    +0.037 C 
BRANCH  25  30
ATOM     30  O   UNL     1      35.734 -18.870 -20.776  0.00  0.00    -0.473 OA
BRANCH  30  31
ATOM     31  C   UNL     1      35.268 -18.450 -22.057  0.00  0.00    +0.237 C 
BRANCH  31  32
ATOM     32  C   UNL     1      35.219 -16.935 -22.094  0.00  0.00    +0.189 C 
BRANCH  32  33
ATOM     33  O   UNL     1      34.902 -16.449 -20.795  0.00  0.00    -0.352 OA
BRANCH  33  34
ATOM     34  C   UNL     1      34.311 -15.120 -20.829  0.00  0.00    +0.116 C 
ATOM     35  C   UNL     1      33.210 -14.916 -21.827  0.00  0.00    +0.032 C 
ATOM     36  C   UNL     1      32.887 -15.019 -20.366  0.00  0.00    +0.032 C 
ENDBRANCH  33  34
ENDBRANCH  32  33
ENDBRANCH  31  32
ENDBRANCH  30  31
ENDBRANCH  25  30
ENDBRANCH  23  24
ENDBRANCH   5  23
TORSDOF 13
ENDMDL
MODEL 5
REMARK VINA RESULT:      -9.6      3.990      7.539
REMARK  Name = 25195624
REMARK  13 active torsions:
REMARK  status: ('A' for Active; 'I' for Inactive)
REMARK    1  A    between atoms: C_2  and  C_12
REMARK    2  A    between atoms: C_5  and  C_23
REMARK    3  A    between atoms: C_9  and  O_14
REMARK    4  A    between atoms: C_10  and  O_16
REMARK    5  A    between atoms: C_11  and  O_18
REMARK    6  A    between atoms: C_13  and  C_20
REMARK    7  A    between atoms: C_20  and  O_21
REMARK    8  A    between atoms: C_23  and  C_24
REMARK    9  A    between atoms: C_25  and  O_30
REMARK   10  A    between atoms: O_30  and  C_31
REMARK   11  A    between atoms: C_31  and  C_32
REMARK   12  A    between atoms: C_32  and  O_33
REMARK   13  A    between atoms: O_33  and  C_34
REMARK                            x       y       z     vdW  Elec       q    Type
REMARK                         _______ _______ _______ _____ _____    ______ ____
ROOT
ATOM      1 CL   UNL     1      31.245 -11.132 -18.827  0.00  0.00    -0.083 Cl
ATOM      2  C   UNL     1      32.537  -7.949 -21.756  0.00  0.00    +0.007 C 
ATOM      3  C   UNL     1      32.034  -9.159 -22.234  0.00  0.00    -0.005 C 
ATOM      4  C   UNL     1      32.638  -7.729 -20.382  0.00  0.00    -0.001 C 
ATOM      5  C   UNL     1      31.631 -10.149 -21.338  0.00  0.00    -0.007 C 
ATOM      6  C   UNL     1      32.236  -8.720 -19.486  0.00  0.00    +0.011 C 
ATOM      7  C   UNL     1      31.733  -9.930 -19.964  0.00  0.00    +0.054 C 
ENDROOT
BRANCH   2  12
ATOM      8  O   UNL     1      31.801  -6.356 -23.364  0.00  0.00    -0.347 OA
ATOM      9  C   UNL     1      34.271  -6.354 -24.837  0.00  0.00    +0.169 C 
ATOM     10  C   UNL     1      33.967  -7.411 -23.773  0.00  0.00    +0.171 C 
ATOM     11  C   UNL     1      32.986  -5.729 -25.383  0.00  0.00    +0.169 C 
ATOM     12  C   UNL     1      32.976  -6.872 -22.730  0.00  0.00    +0.167 C 
ATOM     13  C   UNL     1      32.079  -5.265 -24.242  0.00  0.00    +0.174 C 
BRANCH   9  14
ATOM     14  O   UNL     1      34.963  -6.963 -25.928  0.00  0.00    -0.379 OA
ATOM     15  H   UNL     1      34.475  -7.748 -26.223  0.00  0.00    +0.211 HD
ENDBRANCH   9  14
BRANCH  10  16
ATOM     16  O   UNL     1      35.180  -7.764 -23.110  0.00  0.00    -0.379 OA
ATOM     17  H   UNL     1      35.921  -7.693 -23.731  0.00  0.00    +0.211 HD
ENDBRANCH  10  16
BRANCH  11  18
ATOM     18  O   UNL     1      33.319  -4.612 -26.204  0.00  0.00    -0.379 OA
ATOM     19  H   UNL     1      33.777  -3.944 -25.672  0.00  0.00    +0.211 HD
ENDBRANCH  11  18
BRANCH  13  20
ATOM     20  C   UNL     1      30.744  -4.740 -24.759  0.00  0.00    +0.169 C 
BRANCH  20  21
ATOM     21  O   UNL     1      30.525  -3.451 -24.216  0.00  0.00    -0.379 OA
ATOM     22  H   UNL     1      31.122  -3.311 -23.463  0.00  0.00    +0.211 HD
ENDBRANCH  20  21
ENDBRANCH  13  20
ENDBRANCH   2  12
BRANCH   5  23
ATOM     23  C   UNL     1      31.096 -11.431 -21.890  0.00  0.00    +0.053 C 
BRANCH  23  24
ATOM     24  C   UNL     1      32.158 -12.483 -22.133  0.00  0.00    -0.018 C 
ATOM     25  C   UNL     1      34.114 -14.420 -22.581  0.00  0.00    +0.139 C 
ATOM     26  C   UNL     1      32.372 -13.488 -21.191  0.00  0.00    -0.001 C 
ATOM     27  C   UNL     1      32.921 -12.446 -23.300  0.00  0.00    -0.001 C 
ATOM     28  C   UNL     1      33.350 -14.458 -21.415  0.00  0.00    +0.037 C 
ATOM     29  C   UNL     1      33.899 -13.415 -23.524  0.00  0.00    +0.037 C 
BRANCH  25  30
ATOM     30  O   UNL     1      35.068 -15.366 -22.800  0.00  0.00    -0.473 OA
BRANCH  30  31
ATOM     31  C   UNL     1      34.850 -16.654 -22.226  0.00  0.00    +0.237 C 
BRANCH  31  32
ATOM     32  C   UNL     1      34.973 -17.707 -23.310  0.00  0.00    +0.189 C 
BRANCH  32  33
ATOM     33  O   UNL     1      34.660 -18.980 -22.759  0.00  0.00    -0.352 OA
BRANCH  33  34
ATOM     34  C   UNL     1      34.347 -18.909 -21.340  0.00  0.00    +0.116 C 
ATOM     35  C   UNL     1      33.186 -19.742 -20.881  0.00  0.00    +0.032 C 
ATOM     36  C   UNL     1      34.587 -20.161 -20.548  0.00  0.00    +0.032 C 
ENDBRANCH  33  34
ENDBRANCH  32  33
ENDBRANCH  31  32
ENDBRANCH  30  31
ENDBRANCH  25  30
ENDBRANCH  23  24
ENDBRANCH   5  23
TORSDOF 13
ENDMDL
MODEL 6
REMARK VINA RESULT:      -9.5      0.957      2.379
REMARK  Name = 25195624
REMARK  13 active torsions:
REMARK  status: ('A' for Active; 'I' for Inactive)
REMARK    1  A    between atoms: C_2  and  C_12
REMARK    2  A    between atoms: C_5  and  C_23
REMARK    3  A    between atoms: C_9  and  O_14
REMARK    4  A    between atoms: C_10  and  O_16
REMARK    5  A    between atoms: C_11  and  O_18
REMARK    6  A    between atoms: C_13  and  C_20
REMARK    7  A    between atoms: C_20  and  O_21
REMARK    8  A    between atoms: C_23  and  C_24
REMARK    9  A    between atoms: C_25  and  O_30
REMARK   10  A    between atoms: O_30  and  C_31
REMARK   11  A    between atoms: C_31  and  C_32
REMARK   12  A    between atoms: C_32  and  O_33
REMARK   13  A    between atoms: O_33  and  C_34
REMARK                            x       y       z     vdW  Elec       q    Type
REMARK                         _______ _______ _______ _____ _____    ______ ____
ROOT
ATOM      1 CL   UNL     1      34.844 -19.073 -24.847  0.00  0.00    -0.083 Cl
ATOM      2  C   UNL     1      34.123 -14.878 -23.341  0.00  0.00    +0.007 C 
ATOM      3  C   UNL     1      34.879 -15.763 -22.573  0.00  0.00    -0.005 C 
ATOM      4  C   UNL     1      33.595 -15.291 -24.564  0.00  0.00    -0.001 C 
ATOM      5  C   UNL     1      35.109 -17.062 -23.029  0.00  0.00    -0.007 C 
ATOM      6  C   UNL     1      33.824 -16.590 -25.020  0.00  0.00    +0.011 C 
ATOM      7  C   UNL     1      34.581 -17.475 -24.252  0.00  0.00    +0.054 C 
ENDROOT
BRANCH   2  12
ATOM      8  O   UNL     1      32.811 -13.525 -21.887  0.00  0.00    -0.347 OA
ATOM      9  C   UNL     1      33.115 -11.135 -23.458  0.00  0.00    +0.169 C 
ATOM     10  C   UNL     1      33.519 -12.510 -23.995  0.00  0.00    +0.171 C 
ATOM     11  C   UNL     1      32.082 -11.257 -22.337  0.00  0.00    +0.169 C 
ATOM     12  C   UNL     1      33.873 -13.467 -22.846  0.00  0.00    +0.167 C 
ATOM     13  C   UNL     1      32.544 -12.261 -21.280  0.00  0.00    +0.174 C 
BRANCH   9  14
ATOM     14  O   UNL     1      32.534 -10.366 -24.512  0.00  0.00    -0.379 OA
ATOM     15  H   UNL     1      32.666  -9.422 -24.334  0.00  0.00    +0.211 HD
ENDBRANCH   9  14
BRANCH  10  16
ATOM     16  O   UNL     1      34.664 -12.362 -24.834  0.00  0.00    -0.379 OA
ATOM     17  H   UNL     1      34.965 -13.236 -25.127  0.00  0.00    +0.211 HD
ENDBRANCH  10  16
BRANCH  11  18
ATOM     18  O   UNL     1      31.898  -9.981 -21.727  0.00  0.00    -0.379 OA
ATOM     19  H   UNL     1      32.151 -10.031 -20.792  0.00  0.00    +0.211 HD
ENDBRANCH  11  18
BRANCH  13  20
ATOM     20  C   UNL     1      31.481 -12.482 -20.209  0.00  0.00    +0.169 C 
BRANCH  20  21
ATOM     21  O   UNL     1      31.478 -11.366 -19.338  0.00  0.00    -0.379 OA
ATOM     22  H   UNL     1      32.099 -10.697 -19.667  0.00  0.00    +0.211 HD
ENDBRANCH  20  21
ENDBRANCH  13  20
ENDBRANCH   2  12
BRANCH   5  23
ATOM     23  C   UNL     1      35.925 -17.979 -22.177  0.00  0.00    +0.053 C 
BRANCH  23  24
ATOM     24  C   UNL     1      35.102 -18.975 -21.387  0.00  0.00    -0.018 C 
ATOM     25  C   UNL     1      33.586 -20.808 -19.931  0.00  0.00    +0.139 C 
ATOM     26  C   UNL     1      35.734 -20.004 -20.689  0.00  0.00    -0.001 C 
ATOM     27  C   UNL     1      33.713 -18.862 -21.357  0.00  0.00    -0.001 C 
ATOM     28  C   UNL     1      34.975 -20.921 -19.961  0.00  0.00    +0.037 C 
ATOM     29  C   UNL     1      32.954 -19.779 -20.629  0.00  0.00    +0.037 C 
BRANCH  25  30
ATOM     30  O   UNL     1      32.846 -21.703 -19.220  0.00  0.00    -0.473 OA
BRANCH  30  31
ATOM     31  C   UNL     1      33.537 -22.819 -18.660  0.00  0.00    +0.237 C 
BRANCH  31  32
ATOM     32  C   UNL     1      32.930 -23.152 -17.312  0.00  0.00    +0.189 C 
BRANCH  32  33
ATOM     33  O   UNL     1      31.596 -22.659 -17.269  0.00  0.00    -0.352 OA
BRANCH  33  34
ATOM     34  C   UNL     1      30.781 -23.352 -16.283  0.00  0.00    +0.116 C 
ATOM     35  C   UNL     1      30.721 -22.723 -14.922  0.00  0.00    +0.032 C 
ATOM     36  C   UNL     1      29.537 -22.641 -15.838  0.00  0.00    +0.032 C 
ENDBRANCH  33  34
ENDBRANCH  32  33
ENDBRANCH  31  32
ENDBRANCH  30  31
ENDBRANCH  25  30
ENDBRANCH  23  24
ENDBRANCH   5  23
TORSDOF 13
ENDMDL
MODEL 7
REMARK VINA RESULT:      -9.4      4.031      6.063
REMARK  Name = 25195624
REMARK  13 active torsions:
REMARK  status: ('A' for Active; 'I' for Inactive)
REMARK    1  A    between atoms: C_2  and  C_12
REMARK    2  A    between atoms: C_5  and  C_23
REMARK    3  A    between atoms: C_9  and  O_14
REMARK    4  A    between atoms: C_10  and  O_16
REMARK    5  A    between atoms: C_11  and  O_18
REMARK    6  A    between atoms: C_13  and  C_20
REMARK    7  A    between atoms: C_20  and  O_21
REMARK    8  A    between atoms: C_23  and  C_24
REMARK    9  A    between atoms: C_25  and  O_30
REMARK   10  A    between atoms: O_30  and  C_31
REMARK   11  A    between atoms: C_31  and  C_32
REMARK   12  A    between atoms: C_32  and  O_33
REMARK   13  A    between atoms: O_33  and  C_34
REMARK                            x       y       z     vdW  Elec       q    Type
REMARK                         _______ _______ _______ _____ _____    ______ ____
ROOT
ATOM      1 CL   UNL     1      33.435 -22.847 -19.180  0.00  0.00    -0.083 Cl
ATOM      2  C   UNL     1      34.451 -18.822 -20.954  0.00  0.00    +0.007 C 
ATOM      3  C   UNL     1      35.476 -19.651 -20.500  0.00  0.00    -0.005 C 
ATOM      4  C   UNL     1      33.123 -19.239 -20.859  0.00  0.00    -0.001 C 
ATOM      5  C   UNL     1      35.174 -20.897 -19.949  0.00  0.00    -0.007 C 
ATOM      6  C   UNL     1      32.821 -20.485 -20.309  0.00  0.00    +0.011 C 
ATOM      7  C   UNL     1      33.846 -21.314 -19.854  0.00  0.00    +0.054 C 
ENDROOT
BRANCH   2  12
ATOM      8  O   UNL     1      33.750 -16.556 -21.151  0.00  0.00    -0.347 OA
ATOM      9  C   UNL     1      35.059 -16.126 -23.675  0.00  0.00    +0.169 C 
ATOM     10  C   UNL     1      34.888 -17.527 -23.083  0.00  0.00    +0.171 C 
ATOM     11  C   UNL     1      34.025 -15.153 -23.109  0.00  0.00    +0.169 C 
ATOM     12  C   UNL     1      34.778 -17.467 -21.552  0.00  0.00    +0.167 C 
ATOM     13  C   UNL     1      33.998 -15.217 -21.580  0.00  0.00    +0.174 C 
BRANCH   9  14
ATOM     14  O   UNL     1      34.881 -16.184 -25.091  0.00  0.00    -0.379 OA
ATOM     15  H   UNL     1      35.115 -15.328 -25.482  0.00  0.00    +0.211 HD
ENDBRANCH   9  14
BRANCH  10  16
ATOM     16  O   UNL     1      36.024 -18.319 -23.428  0.00  0.00    -0.379 OA
ATOM     17  H   UNL     1      35.729 -19.162 -23.805  0.00  0.00    +0.211 HD
ENDBRANCH  10  16
BRANCH  11  18
ATOM     18  O   UNL     1      34.353 -13.828 -23.518  0.00  0.00    -0.379 OA
ATOM     19  H   UNL     1      34.430 -13.257 -22.738  0.00  0.00    +0.211 HD
ENDBRANCH  11  18
BRANCH  13  20
ATOM     20  C   UNL     1      32.898 -14.337 -20.997  0.00  0.00    +0.169 C 
BRANCH  20  21
ATOM     21  O   UNL     1      31.950 -14.065 -22.014  0.00  0.00    -0.379 OA
ATOM     22  H   UNL     1      32.121 -14.641 -22.777  0.00  0.00    +0.211 HD
ENDBRANCH  20  21
ENDBRANCH  13  20
ENDBRANCH   2  12
BRANCH   5  23
ATOM     23  C   UNL     1      36.302 -21.756 -19.475  0.00  0.00    +0.053 C 
BRANCH  23  24
ATOM     24  C   UNL     1      36.269 -22.041 -17.988  0.00  0.00    -0.018 C 
ATOM     25  C   UNL     1      36.211 -22.567 -15.249  0.00  0.00    +0.139 C 
ATOM     26  C   UNL     1      35.196 -22.738 -17.435  0.00  0.00    -0.001 C 
ATOM     27  C   UNL     1      37.314 -21.607 -17.173  0.00  0.00    -0.001 C 
ATOM     28  C   UNL     1      35.167 -23.001 -16.065  0.00  0.00    +0.037 C 
ATOM     29  C   UNL     1      37.285 -21.870 -15.803  0.00  0.00    +0.037 C 
BRANCH  25  30
ATOM     30  O   UNL     1      36.182 -22.824 -13.913  0.00  0.00    -0.473 OA
BRANCH  30  31
ATOM     31  C   UNL     1      36.371 -24.180 -13.508  0.00  0.00    +0.237 C 
BRANCH  31  32
ATOM     32  C   UNL     1      37.397 -24.225 -12.393  0.00  0.00    +0.189 C 
BRANCH  32  33
ATOM     33  O   UNL     1      38.701 -24.229 -12.960  0.00  0.00    -0.352 OA
BRANCH  33  34
ATOM     34  C   UNL     1      38.900 -25.334 -13.885  0.00  0.00    +0.116 C 
ATOM     35  C   UNL     1      39.616 -25.001 -15.161  0.00  0.00    +0.032 C 
ATOM     36  C   UNL     1      40.319 -25.777 -14.088  0.00  0.00    +0.032 C 
ENDBRANCH  33  34
ENDBRANCH  32  33
ENDBRANCH  31  32
ENDBRANCH  30  31
ENDBRANCH  25  30
ENDBRANCH  23  24
ENDBRANCH   5  23
TORSDOF 13
ENDMDL
MODEL 8
REMARK VINA RESULT:      -9.2      2.958      5.101
REMARK  Name = 25195624
REMARK  13 active torsions:
REMARK  status: ('A' for Active; 'I' for Inactive)
REMARK    1  A    between atoms: C_2  and  C_12
REMARK    2  A    between atoms: C_5  and  C_23
REMARK    3  A    between atoms: C_9  and  O_14
REMARK    4  A    between atoms: C_10  and  O_16
REMARK    5  A    between atoms: C_11  and  O_18
REMARK    6  A    between atoms: C_13  and  C_20
REMARK    7  A    between atoms: C_20  and  O_21
REMARK    8  A    between atoms: C_23  and  C_24
REMARK    9  A    between atoms: C_25  and  O_30
REMARK   10  A    between atoms: O_30  and  C_31
REMARK   11  A    between atoms: C_31  and  C_32
REMARK   12  A    between atoms: C_32  and  O_33
REMARK   13  A    between atoms: O_33  and  C_34
REMARK                            x       y       z     vdW  Elec       q    Type
REMARK                         _______ _______ _______ _____ _____    ______ ____
ROOT
ATOM      1 CL   UNL     1      33.415 -22.760 -19.354  0.00  0.00    -0.083 Cl
ATOM      2  C   UNL     1      34.417 -18.692 -21.037  0.00  0.00    +0.007 C 
ATOM      3  C   UNL     1      35.444 -19.520 -20.585  0.00  0.00    -0.005 C 
ATOM      4  C   UNL     1      33.092 -19.122 -20.967  0.00  0.00    -0.001 C 
ATOM      5  C   UNL     1      35.146 -20.780 -20.063  0.00  0.00    -0.007 C 
ATOM      6  C   UNL     1      32.794 -20.381 -20.445  0.00  0.00    +0.011 C 
ATOM      7  C   UNL     1      33.821 -21.210 -19.993  0.00  0.00    +0.054 C 
ENDROOT
BRANCH   2  12
ATOM      8  O   UNL     1      33.715 -16.422 -21.172  0.00  0.00    -0.347 OA
ATOM      9  C   UNL     1      35.004 -15.930 -23.696  0.00  0.00    +0.169 C 
ATOM     10  C   UNL     1      34.838 -17.345 -23.137  0.00  0.00    +0.171 C 
ATOM     11  C   UNL     1      33.975 -14.971 -23.097  0.00  0.00    +0.169 C 
ATOM     12  C   UNL     1      34.740 -17.323 -21.603  0.00  0.00    +0.167 C 
ATOM     13  C   UNL     1      33.960 -15.073 -21.571  0.00  0.00    +0.174 C 
BRANCH   9  14
ATOM     14  O   UNL     1      34.814 -15.954 -25.111  0.00  0.00    -0.379 OA
ATOM     15  H   UNL     1      33.865 -15.970 -25.310  0.00  0.00    +0.211 HD
ENDBRANCH   9  14
BRANCH  10  16
ATOM     16  O   UNL     1      35.970 -18.128 -23.510  0.00  0.00    -0.379 OA
ATOM     17  H   UNL     1      36.458 -18.393 -22.715  0.00  0.00    +0.211 HD
ENDBRANCH  10  16
BRANCH  11  18
ATOM     18  O   UNL     1      34.300 -13.636 -23.477  0.00  0.00    -0.379 OA
ATOM     19  H   UNL     1      35.022 -13.308 -22.919  0.00  0.00    +0.211 HD
ENDBRANCH  11  18
BRANCH  13  20
ATOM     20  C   UNL     1      32.865 -14.207 -20.957  0.00  0.00    +0.169 C 
BRANCH  20  21
ATOM     21  O   UNL     1      31.901 -13.925 -21.955  0.00  0.00    -0.379 OA
ATOM     22  H   UNL     1      32.251 -14.177 -22.824  0.00  0.00    +0.211 HD
ENDBRANCH  20  21
ENDBRANCH  13  20
ENDBRANCH   2  12
BRANCH   5  23
ATOM     23  C   UNL     1      36.275 -21.638 -19.591  0.00  0.00    +0.053 C 
BRANCH  23  24
ATOM     24  C   UNL     1      36.207 -21.982 -18.118  0.00  0.00    -0.018 C 
ATOM     25  C   UNL     1      36.081 -22.616 -15.405  0.00  0.00    +0.139 C 
ATOM     26  C   UNL     1      37.242 -21.601 -17.264  0.00  0.00    -0.001 C 
ATOM     27  C   UNL     1      35.109 -22.680 -17.616  0.00  0.00    -0.001 C 
ATOM     28  C   UNL     1      37.178 -21.918 -15.907  0.00  0.00    +0.037 C 
ATOM     29  C   UNL     1      35.046 -22.998 -16.259  0.00  0.00    +0.037 C 
BRANCH  25  30
ATOM     30  O   UNL     1      36.019 -22.925 -14.080  0.00  0.00    -0.473 OA
BRANCH  30  31
ATOM     31  C   UNL     1      35.700 -24.274 -13.742  0.00  0.00    +0.237 C 
BRANCH  31  32
ATOM     32  C   UNL     1      34.812 -24.279 -12.514  0.00  0.00    +0.189 C 
BRANCH  32  33
ATOM     33  O   UNL     1      33.519 -23.806 -12.873  0.00  0.00    -0.352 OA
BRANCH  33  34
ATOM     34  C   UNL     1      32.902 -24.614 -13.913  0.00  0.00    +0.116 C 
ATOM     35  C   UNL     1      31.467 -24.990 -13.687  0.00  0.00    +0.032 C 
ATOM     36  C   UNL     1      31.817 -23.949 -14.709  0.00  0.00    +0.032 C 
ENDBRANCH  33  34
ENDBRANCH  32  33
ENDBRANCH  31  32
ENDBRANCH  30  31
ENDBRANCH  25  30
ENDBRANCH  23  24
ENDBRANCH   5  23
TORSDOF 13
ENDMDL
MODEL 9
REMARK VINA RESULT:      -9.1      4.428     12.114
REMARK  Name = 25195624
REMARK  13 active torsions:
REMARK  status: ('A' for Active; 'I' for Inactive)
REMARK    1  A    between atoms: C_2  and  C_12
REMARK    2  A    between atoms: C_5  and  C_23
REMARK    3  A    between atoms: C_9  and  O_14
REMARK    4  A    between atoms: C_10  and  O_16
REMARK    5  A    between atoms: C_11  and  O_18
REMARK    6  A    between atoms: C_13  and  C_20
REMARK    7  A    between atoms: C_20  and  O_21
REMARK    8  A    between atoms: C_23  and  C_24
REMARK    9  A    between atoms: C_25  and  O_30
REMARK   10  A    between atoms: O_30  and  C_31
REMARK   11  A    between atoms: C_31  and  C_32
REMARK   12  A    between atoms: C_32  and  O_33
REMARK   13  A    between atoms: O_33  and  C_34
REMARK                            x       y       z     vdW  Elec       q    Type
REMARK                         _______ _______ _______ _____ _____    ______ ____
ROOT
ATOM      1 CL   UNL     1      30.396 -22.589 -17.440  0.00  0.00    -0.083 Cl
ATOM      2  C   UNL     1      34.045 -23.435 -14.920  0.00  0.00    +0.007 C 
ATOM      3  C   UNL     1      34.137 -23.512 -16.310  0.00  0.00    -0.005 C 
ATOM      4  C   UNL     1      32.832 -23.098 -14.319  0.00  0.00    -0.001 C 
ATOM      5  C   UNL     1      33.015 -23.252 -17.099  0.00  0.00    -0.007 C 
ATOM      6  C   UNL     1      31.711 -22.839 -15.107  0.00  0.00    +0.011 C 
ATOM      7  C   UNL     1      31.802 -22.916 -16.497  0.00  0.00    +0.054 C 
ENDROOT
BRANCH   2  12
ATOM      8  O   UNL     1      36.107 -24.616 -14.790  0.00  0.00    -0.347 OA
ATOM      9  C   UNL     1      36.124 -24.737 -11.917  0.00  0.00    +0.169 C 
ATOM     10  C   UNL     1      34.879 -24.312 -12.699  0.00  0.00    +0.171 C 
ATOM     11  C   UNL     1      37.064 -25.578 -12.781  0.00  0.00    +0.169 C 
ATOM     12  C   UNL     1      35.263 -23.717 -14.063  0.00  0.00    +0.167 C 
ATOM     13  C   UNL     1      37.337 -24.886 -14.118  0.00  0.00    +0.174 C 
BRANCH   9  14
ATOM     14  O   UNL     1      35.732 -25.528 -10.794  0.00  0.00    -0.379 OA
ATOM     15  H   UNL     1      36.495 -26.033 -10.472  0.00  0.00    +0.211 HD
ENDBRANCH   9  14
BRANCH  10  16
ATOM     16  O   UNL     1      34.177 -23.321 -11.950  0.00  0.00    -0.379 OA
ATOM     17  H   UNL     1      33.979 -23.663 -11.065  0.00  0.00    +0.211 HD
ENDBRANCH  10  16
BRANCH  11  18
ATOM     18  O   UNL     1      38.296 -25.768 -12.089  0.00  0.00    -0.379 OA
ATOM     19  H   UNL     1      38.117 -26.108 -11.198  0.00  0.00    +0.211 HD
ENDBRANCH  11  18
BRANCH  13  20
ATOM     20  C   UNL     1      38.182 -25.757 -15.042  0.00  0.00    +0.169 C 
BRANCH  20  21
ATOM     21  O   UNL     1      37.336 -26.703 -15.670  0.00  0.00    -0.379 OA
ATOM     22  H   UNL     1      36.785 -26.255 -16.331  0.00  0.00    +0.211 HD
ENDBRANCH  20  21
ENDBRANCH  13  20
ENDBRANCH   2  12
BRANCH   5  23
ATOM     23  C   UNL     1      33.155 -23.344 -18.584  0.00  0.00    +0.053 C 
BRANCH  23  24
ATOM     24  C   UNL     1      33.875 -22.166 -19.204  0.00  0.00    -0.018 C 
ATOM     25  C   UNL     1      35.202 -19.995 -20.349  0.00  0.00    +0.139 C 
ATOM     26  C   UNL     1      35.265 -22.075 -19.121  0.00  0.00    -0.001 C 
ATOM     27  C   UNL     1      33.149 -21.173 -19.861  0.00  0.00    -0.001 C 
ATOM     28  C   UNL     1      35.928 -20.989 -19.694  0.00  0.00    +0.037 C 
ATOM     29  C   UNL     1      33.812 -20.086 -20.432  0.00  0.00    +0.037 C 
BRANCH  25  30
ATOM     30  O   UNL     1      35.849 -18.936 -20.908  0.00  0.00    -0.473 OA
BRANCH  30  31
ATOM     31  C   UNL     1      35.211 -17.663 -20.817  0.00  0.00    +0.237 C 
BRANCH  31  32
ATOM     32  C   UNL     1      35.259 -16.988 -22.173  0.00  0.00    +0.189 C 
BRANCH  32  33
ATOM     33  O   UNL     1      35.862 -17.870 -23.111  0.00  0.00    -0.352 OA
BRANCH  33  34
ATOM     34  C   UNL     1      35.035 -18.077 -24.289  0.00  0.00    +0.116 C 
ATOM     35  C   UNL     1      35.054 -19.460 -24.871  0.00  0.00    +0.032 C 
ATOM     36  C   UNL     1      33.851 -18.982 -24.114  0.00  0.00    +0.032 C 
ENDBRANCH  33  34
ENDBRANCH  32  33
ENDBRANCH  31  32
ENDBRANCH  30  31
ENDBRANCH  25  30
ENDBRANCH  23  24
ENDBRANCH   5  23
TORSDOF 13
ENDMDL
