MODEL 1
REMARK VINA RESULT:     -11.0      0.000      0.000
REMARK  Name = 6918107
REMARK  2 active torsions:
REMARK  status: ('A' for Active; 'I' for Inactive)
REMARK    1  A    between atoms: C_4  and  C_18
REMARK    2  A    between atoms: C_18  and  N_19
REMARK                            x       y       z     vdW  Elec       q    Type
REMARK                         _______ _______ _______ _____ _____    ______ ____
ROOT
ATOM      1  O   UNL     1      34.978 -16.498 -19.896  0.00  0.00    -0.291 OA
ATOM      2  N   UNL     1      34.121 -16.062 -24.360  0.00  0.00    -0.331 N 
ATOM      3  C   UNL     1      34.728 -16.884 -23.460  0.00  0.00    +0.040 A 
ATOM      4  C   UNL     1      35.760 -18.352 -21.225  0.00  0.00    +0.082 C 
ATOM      5  C   UNL     1      34.561 -16.327 -22.201  0.00  0.00    +0.048 A 
ATOM      6  C   UNL     1      35.440 -18.150 -23.775  0.00  0.00    +0.044 C 
ATOM      7  C   UNL     1      33.580 -14.980 -23.708  0.00  0.00    +0.056 A 
ATOM      8  C   UNL     1      36.403 -18.478 -22.623  0.00  0.00    +0.016 C 
ATOM      9  C   UNL     1      33.837 -15.106 -22.351  0.00  0.00    +0.019 A 
ATOM     10  C   UNL     1      34.010 -16.173 -25.805  0.00  0.00    +0.106 C 
ATOM     11  C   UNL     1      35.096 -16.984 -21.018  0.00  0.00    +0.175 C 
ATOM     12  C   UNL     1      32.881 -13.929 -24.302  0.00  0.00    -0.006 C 
ATOM     13  C   UNL     1      32.798 -15.380 -26.342  0.00  0.00    +0.029 C 
ATOM     14  C   UNL     1      32.712 -13.935 -25.794  0.00  0.00    +0.030 C 
ATOM     15  C   UNL     1      33.364 -14.087 -21.503  0.00  0.00    +0.002 C 
ATOM     16  C   UNL     1      32.437 -12.921 -23.446  0.00  0.00    -0.003 C 
ATOM     17  C   UNL     1      32.670 -13.001 -22.069  0.00  0.00    -0.000 C 
ENDROOT
BRANCH   4  18
ATOM     18  C   UNL     1      34.738 -19.454 -20.955  0.00  0.00    +0.104 C 
BRANCH  18  19
ATOM     19  N   UNL     1      35.262 -20.477 -20.063  0.00  0.00    -0.273 N 
ATOM     20  N   UNL     1      35.317 -22.192 -18.670  0.00  0.00    -0.232 NA
ATOM     21  C   UNL     1      34.541 -21.417 -19.395  0.00  0.00    +0.113 C 
ATOM     22  C   UNL     1      36.576 -20.651 -19.755  0.00  0.00    +0.087 C 
ATOM     23  C   UNL     1      36.586 -21.720 -18.889  0.00  0.00    +0.116 C 
ATOM     24  C   UNL     1      33.071 -21.516 -19.502  0.00  0.00    +0.069 C 
ENDBRANCH  18  19
ENDBRANCH   4  18
TORSDOF 2
ENDMDL
MODEL 2
REMARK VINA RESULT:     -10.3      3.804      6.634
REMARK  Name = 6918107
REMARK  2 active torsions:
REMARK  status: ('A' for Active; 'I' for Inactive)
REMARK    1  A    between atoms: C_4  and  C_18
REMARK    2  A    between atoms: C_18  and  N_19
REMARK                            x       y       z     vdW  Elec       q    Type
REMARK                         _______ _______ _______ _____ _____    ______ ____
ROOT
ATOM      1  O   UNL     1      34.524 -12.037 -25.491  0.00  0.00    -0.291 OA
ATOM      2  N   UNL     1      32.412 -10.022 -21.979  0.00  0.00    -0.331 N 
ATOM      3  C   UNL     1      32.600 -11.237 -22.563  0.00  0.00    +0.040 A 
ATOM      4  C   UNL     1      33.357 -13.572 -24.043  0.00  0.00    +0.082 C 
ATOM      5  C   UNL     1      33.422 -11.054 -23.665  0.00  0.00    +0.048 A 
ATOM      6  C   UNL     1      32.025 -12.527 -22.100  0.00  0.00    +0.044 C 
ATOM      7  C   UNL     1      33.084  -9.057 -22.692  0.00  0.00    +0.056 A 
ATOM      8  C   UNL     1      32.020 -13.519 -23.273  0.00  0.00    +0.016 C 
ATOM      9  C   UNL     1      33.728  -9.663 -23.760  0.00  0.00    +0.019 A 
ATOM     10  C   UNL     1      31.633  -9.654 -20.808  0.00  0.00    +0.106 C 
ATOM     11  C   UNL     1      33.815 -12.179 -24.498  0.00  0.00    +0.175 C 
ATOM     12  C   UNL     1      33.124  -7.695 -22.393  0.00  0.00    -0.006 C 
ATOM     13  C   UNL     1      32.144  -8.339 -20.179  0.00  0.00    +0.029 C 
ATOM     14  C   UNL     1      32.347  -7.199 -21.207  0.00  0.00    +0.030 C 
ATOM     15  C   UNL     1      34.475  -8.837 -24.621  0.00  0.00    +0.002 C 
ATOM     16  C   UNL     1      33.855  -6.892 -23.269  0.00  0.00    -0.003 C 
ATOM     17  C   UNL     1      34.524  -7.455 -24.362  0.00  0.00    -0.000 C 
ENDROOT
BRANCH   4  18
ATOM     18  C   UNL     1      34.470 -14.227 -23.228  0.00  0.00    +0.104 C 
BRANCH  18  19
ATOM     19  N   UNL     1      34.573 -15.654 -23.494  0.00  0.00    -0.273 N 
ATOM     20  N   UNL     1      34.786 -17.825 -23.140  0.00  0.00    -0.232 NA
ATOM     21  C   UNL     1      34.726 -16.642 -22.571  0.00  0.00    +0.113 C 
ATOM     22  C   UNL     1      34.532 -16.227 -24.727  0.00  0.00    +0.087 C 
ATOM     23  C   UNL     1      34.666 -17.574 -24.484  0.00  0.00    +0.116 C 
ATOM     24  C   UNL     1      34.808 -16.370 -21.121  0.00  0.00    +0.069 C 
ENDBRANCH  18  19
ENDBRANCH   4  18
TORSDOF 2
ENDMDL
MODEL 3
REMARK VINA RESULT:     -10.3      2.861      8.832
REMARK  Name = 6918107
REMARK  2 active torsions:
REMARK  status: ('A' for Active; 'I' for Inactive)
REMARK    1  A    between atoms: C_4  and  C_18
REMARK    2  A    between atoms: C_18  and  N_19
REMARK                            x       y       z     vdW  Elec       q    Type
REMARK                         _______ _______ _______ _____ _____    ______ ____
ROOT
ATOM      1  O   UNL     1      32.682 -21.640 -20.201  0.00  0.00    -0.291 OA
ATOM      2  N   UNL     1      35.824 -22.477 -16.995  0.00  0.00    -0.331 N 
ATOM      3  C   UNL     1      35.679 -21.955 -18.243  0.00  0.00    +0.040 A 
ATOM      4  C   UNL     1      34.891 -20.859 -20.772  0.00  0.00    +0.082 C 
ATOM      5  C   UNL     1      34.338 -22.043 -18.585  0.00  0.00    +0.048 A 
ATOM      6  C   UNL     1      36.767 -21.393 -19.087  0.00  0.00    +0.044 C 
ATOM      7  C   UNL     1      34.605 -22.913 -16.531  0.00  0.00    +0.056 A 
ATOM      8  C   UNL     1      36.316 -21.412 -20.556  0.00  0.00    +0.016 C 
ATOM      9  C   UNL     1      33.647 -22.662 -17.500  0.00  0.00    +0.019 A 
ATOM     10  C   UNL     1      37.015 -22.637 -16.177  0.00  0.00    +0.106 C 
ATOM     11  C   UNL     1      33.862 -21.554 -19.869  0.00  0.00    +0.175 C 
ATOM     12  C   UNL     1      34.363 -23.503 -15.290  0.00  0.00    -0.006 C 
ATOM     13  C   UNL     1      36.662 -22.724 -14.675  0.00  0.00    +0.029 C 
ATOM     14  C   UNL     1      35.524 -23.726 -14.364  0.00  0.00    +0.030 C 
ATOM     15  C   UNL     1      32.321 -23.041 -17.216  0.00  0.00    +0.002 C 
ATOM     16  C   UNL     1      33.046 -23.889 -15.037  0.00  0.00    -0.003 C 
ATOM     17  C   UNL     1      32.041 -23.656 -15.982  0.00  0.00    -0.000 C 
ENDROOT
BRANCH   4  18
ATOM     18  C   UNL     1      34.815 -19.350 -20.555  0.00  0.00    +0.104 C 
BRANCH  18  19
ATOM     19  N   UNL     1      34.841 -18.617 -21.812  0.00  0.00    -0.273 N 
ATOM     20  N   UNL     1      34.867 -16.923 -23.231  0.00  0.00    -0.232 NA
ATOM     21  C   UNL     1      34.840 -17.265 -21.962  0.00  0.00    +0.113 C 
ATOM     22  C   UNL     1      34.869 -19.182 -23.050  0.00  0.00    +0.087 C 
ATOM     23  C   UNL     1      34.884 -18.112 -23.914  0.00  0.00    +0.116 C 
ATOM     24  C   UNL     1      34.813 -16.337 -20.813  0.00  0.00    +0.069 C 
ENDBRANCH  18  19
ENDBRANCH   4  18
TORSDOF 2
ENDMDL
MODEL 4
REMARK VINA RESULT:      -9.8      2.217      8.265
REMARK  Name = 6918107
REMARK  2 active torsions:
REMARK  status: ('A' for Active; 'I' for Inactive)
REMARK    1  A    between atoms: C_4  and  C_18
REMARK    2  A    between atoms: C_18  and  N_19
REMARK                            x       y       z     vdW  Elec       q    Type
REMARK                         _______ _______ _______ _____ _____    ______ ____
ROOT
ATOM      1  O   UNL     1      32.472 -20.577 -20.746  0.00  0.00    -0.291 OA
ATOM      2  N   UNL     1      36.002 -21.816 -18.128  0.00  0.00    -0.331 N 
ATOM      3  C   UNL     1      35.695 -21.105 -19.247  0.00  0.00    +0.040 A 
ATOM      4  C   UNL     1      34.582 -19.643 -21.448  0.00  0.00    +0.082 C 
ATOM      5  C   UNL     1      34.322 -21.180 -19.432  0.00  0.00    +0.048 A 
ATOM      6  C   UNL     1      36.661 -20.380 -20.114  0.00  0.00    +0.044 C 
ATOM      7  C   UNL     1      34.857 -22.359 -17.596  0.00  0.00    +0.056 A 
ATOM      8  C   UNL     1      36.029 -20.177 -21.500  0.00  0.00    +0.016 C 
ATOM      9  C   UNL     1      33.781 -21.987 -18.387  0.00  0.00    +0.019 A 
ATOM     10  C   UNL     1      37.289 -22.065 -17.499  0.00  0.00    +0.106 C 
ATOM     11  C   UNL     1      33.682 -20.507 -20.551  0.00  0.00    +0.175 C 
ATOM     12  C   UNL     1      34.780 -23.148 -16.448  0.00  0.00    -0.006 C 
ATOM     13  C   UNL     1      37.129 -22.404 -16.000  0.00  0.00    +0.029 C 
ATOM     14  C   UNL     1      36.051 -23.479 -15.720  0.00  0.00    +0.030 C 
ATOM     15  C   UNL     1      32.507 -22.450 -18.009  0.00  0.00    +0.002 C 
ATOM     16  C   UNL     1      33.511 -23.612 -16.102  0.00  0.00    -0.003 C 
ATOM     17  C   UNL     1      32.392 -23.264 -16.867  0.00  0.00    -0.000 C 
ENDROOT
BRANCH   4  18
ATOM     18  C   UNL     1      34.515 -18.191 -20.979  0.00  0.00    +0.104 C 
BRANCH  18  19
ATOM     19  N   UNL     1      34.390 -17.265 -22.095  0.00  0.00    -0.273 N 
ATOM     20  N   UNL     1      33.849 -15.457 -23.245  0.00  0.00    -0.232 NA
ATOM     21  C   UNL     1      33.793 -16.043 -22.070  0.00  0.00    +0.113 C 
ATOM     22  C   UNL     1      34.859 -17.483 -23.353  0.00  0.00    +0.087 C 
ATOM     23  C   UNL     1      34.512 -16.349 -24.050  0.00  0.00    +0.116 C 
ATOM     24  C   UNL     1      33.171 -15.485 -20.851  0.00  0.00    +0.069 C 
ENDBRANCH  18  19
ENDBRANCH   4  18
TORSDOF 2
ENDMDL
MODEL 5
REMARK VINA RESULT:      -9.3      3.019      5.577
REMARK  Name = 6918107
REMARK  2 active torsions:
REMARK  status: ('A' for Active; 'I' for Inactive)
REMARK    1  A    between atoms: C_4  and  C_18
REMARK    2  A    between atoms: C_18  and  N_19
REMARK                            x       y       z     vdW  Elec       q    Type
REMARK                         _______ _______ _______ _____ _____    ______ ____
ROOT
ATOM      1  O   UNL     1      33.341 -13.508 -24.704  0.00  0.00    -0.291 OA
ATOM      2  N   UNL     1      32.094 -11.655 -20.721  0.00  0.00    -0.331 N 
ATOM      3  C   UNL     1      32.403 -12.849 -21.298  0.00  0.00    +0.040 A 
ATOM      4  C   UNL     1      33.229 -15.088 -22.886  0.00  0.00    +0.082 C 
ATOM      5  C   UNL     1      32.707 -12.608 -22.630  0.00  0.00    +0.048 A 
ATOM      6  C   UNL     1      32.413 -14.171 -20.619  0.00  0.00    +0.044 C 
ATOM      7  C   UNL     1      32.178 -10.653 -21.658  0.00  0.00    +0.056 A 
ATOM      8  C   UNL     1      32.284 -15.275 -21.680  0.00  0.00    +0.016 C 
ATOM      9  C   UNL     1      32.555 -11.209 -22.870  0.00  0.00    +0.019 A 
ATOM     10  C   UNL     1      31.698 -11.348 -19.357  0.00  0.00    +0.106 C 
ATOM     11  C   UNL     1      33.088 -13.696 -23.517  0.00  0.00    +0.175 C 
ATOM     12  C   UNL     1      31.932  -9.298 -21.433  0.00  0.00    -0.006 C 
ATOM     13  C   UNL     1      32.001  -9.876 -18.997  0.00  0.00    +0.029 C 
ATOM     14  C   UNL     1      31.506  -8.865 -20.060  0.00  0.00    +0.030 C 
ATOM     15  C   UNL     1      32.694 -10.339 -23.968  0.00  0.00    +0.002 C 
ATOM     16  C   UNL     1      32.057  -8.456 -22.539  0.00  0.00    -0.003 C 
ATOM     17  C   UNL     1      32.437  -8.968 -23.785  0.00  0.00    -0.000 C 
ENDROOT
BRANCH   4  18
ATOM     18  C   UNL     1      34.692 -15.329 -22.519  0.00  0.00    +0.104 C 
BRANCH  18  19
ATOM     19  N   UNL     1      34.990 -16.746 -22.374  0.00  0.00    -0.273 N 
ATOM     20  N   UNL     1      35.350 -18.860 -22.908  0.00  0.00    -0.232 NA
ATOM     21  C   UNL     1      35.060 -17.666 -23.374  0.00  0.00    +0.113 C 
ATOM     22  C   UNL     1      35.248 -17.378 -21.197  0.00  0.00    +0.087 C 
ATOM     23  C   UNL     1      35.467 -18.689 -21.552  0.00  0.00    +0.116 C 
ATOM     24  C   UNL     1      34.832 -17.319 -24.792  0.00  0.00    +0.069 C 
ENDBRANCH  18  19
ENDBRANCH   4  18
TORSDOF 2
ENDMDL
MODEL 6
REMARK VINA RESULT:      -9.2      8.427     10.884
REMARK  Name = 6918107
REMARK  2 active torsions:
REMARK  status: ('A' for Active; 'I' for Inactive)
REMARK    1  A    between atoms: C_4  and  C_18
REMARK    2  A    between atoms: C_18  and  N_19
REMARK                            x       y       z     vdW  Elec       q    Type
REMARK                         _______ _______ _______ _____ _____    ______ ____
ROOT
ATOM      1  O   UNL     1      34.543 -24.689 -11.384  0.00  0.00    -0.291 OA
ATOM      2  N   UNL     1      34.589 -23.219 -15.708  0.00  0.00    -0.331 N 
ATOM      3  C   UNL     1      35.415 -23.516 -14.668  0.00  0.00    +0.040 A 
ATOM      4  C   UNL     1      36.758 -24.357 -12.279  0.00  0.00    +0.082 C 
ATOM      5  C   UNL     1      34.625 -23.935 -13.607  0.00  0.00    +0.048 A 
ATOM      6  C   UNL     1      36.898 -23.408 -14.671  0.00  0.00    +0.044 C 
ATOM      7  C   UNL     1      33.282 -23.425 -15.334  0.00  0.00    +0.056 A 
ATOM      8  C   UNL     1      37.392 -23.311 -13.220  0.00  0.00    +0.016 C 
ATOM      9  C   UNL     1      33.261 -23.871 -14.022  0.00  0.00    +0.019 A 
ATOM     10  C   UNL     1      34.898 -22.730 -17.042  0.00  0.00    +0.106 C 
ATOM     11  C   UNL     1      35.224 -24.334 -12.343  0.00  0.00    +0.175 C 
ATOM     12  C   UNL     1      32.159 -23.228 -16.137  0.00  0.00    -0.006 C 
ATOM     13  C   UNL     1      33.775 -23.075 -18.045  0.00  0.00    +0.029 C 
ATOM     14  C   UNL     1      32.358 -22.715 -17.534  0.00  0.00    +0.030 C 
ATOM     15  C   UNL     1      32.004 -24.138 -13.447  0.00  0.00    +0.002 C 
ATOM     16  C   UNL     1      30.922 -23.481 -15.542  0.00  0.00    -0.003 C 
ATOM     17  C   UNL     1      30.847 -23.933 -14.220  0.00  0.00    -0.000 C 
ENDROOT
BRANCH   4  18
ATOM     18  C   UNL     1      37.253 -25.773 -12.568  0.00  0.00    +0.104 C 
BRANCH  18  19
ATOM     19  N   UNL     1      38.374 -25.778 -13.496  0.00  0.00    -0.273 N 
ATOM     20  N   UNL     1      39.550 -26.128 -15.335  0.00  0.00    -0.232 NA
ATOM     21  C   UNL     1      38.377 -26.279 -14.761  0.00  0.00    +0.113 C 
ATOM     22  C   UNL     1      39.611 -25.276 -13.236  0.00  0.00    +0.087 C 
ATOM     23  C   UNL     1      40.324 -25.504 -14.390  0.00  0.00    +0.116 C 
ATOM     24  C   UNL     1      37.186 -26.905 -15.371  0.00  0.00    +0.069 C 
ENDBRANCH  18  19
ENDBRANCH   4  18
TORSDOF 2
ENDMDL
MODEL 7
REMARK VINA RESULT:      -8.8      7.861     11.061
REMARK  Name = 6918107
REMARK  2 active torsions:
REMARK  status: ('A' for Active; 'I' for Inactive)
REMARK    1  A    between atoms: C_4  and  C_18
REMARK    2  A    between atoms: C_18  and  N_19
REMARK                            x       y       z     vdW  Elec       q    Type
REMARK                         _______ _______ _______ _____ _____    ______ ____
ROOT
ATOM      1  O   UNL     1      31.610  -5.989 -21.301  0.00  0.00    -0.291 OA
ATOM      2  N   UNL     1      33.173  -5.320 -25.539  0.00  0.00    -0.331 N 
ATOM      3  C   UNL     1      33.295  -6.154 -24.471  0.00  0.00    +0.040 A 
ATOM      4  C   UNL     1      33.144  -7.690 -22.055  0.00  0.00    +0.082 C 
ATOM      5  C   UNL     1      32.443  -5.695 -23.477  0.00  0.00    +0.048 A 
ATOM      6  C   UNL     1      34.185  -7.342 -24.387  0.00  0.00    +0.044 C 
ATOM      7  C   UNL     1      32.270  -4.325 -25.249  0.00  0.00    +0.056 A 
ATOM      8  C   UNL     1      34.430  -7.676 -22.908  0.00  0.00    +0.016 C 
ATOM      9  C   UNL     1      31.792  -4.522 -23.963  0.00  0.00    +0.019 A 
ATOM     10  C   UNL     1      33.844  -5.342 -26.829  0.00  0.00    +0.106 C 
ATOM     11  C   UNL     1      32.342  -6.389 -22.203  0.00  0.00    +0.175 C 
ATOM     12  C   UNL     1      31.887  -3.290 -26.102  0.00  0.00    -0.006 C 
ATOM     13  C   UNL     1      33.020  -4.604 -27.908  0.00  0.00    +0.029 C 
ATOM     14  C   UNL     1      32.524  -3.208 -27.459  0.00  0.00    +0.030 C 
ATOM     15  C   UNL     1      30.850  -3.598 -23.471  0.00  0.00    +0.002 C 
ATOM     16  C   UNL     1      30.968  -2.374 -25.588  0.00  0.00    -0.003 C 
ATOM     17  C   UNL     1      30.454  -2.529 -24.296  0.00  0.00    -0.000 C 
ENDROOT
BRANCH   4  18
ATOM     18  C   UNL     1      32.242  -8.878 -22.384  0.00  0.00    +0.104 C 
BRANCH  18  19
ATOM     19  N   UNL     1      31.963  -9.691 -21.210  0.00  0.00    -0.273 N 
ATOM     20  N   UNL     1      31.512 -11.461 -19.967  0.00  0.00    -0.232 NA
ATOM     21  C   UNL     1      31.732 -11.031 -21.190  0.00  0.00    +0.113 C 
ATOM     22  C   UNL     1      31.888  -9.227 -19.934  0.00  0.00    +0.087 C 
ATOM     23  C   UNL     1      31.607 -10.342 -19.180  0.00  0.00    +0.116 C 
ATOM     24  C   UNL     1      31.738 -11.859 -22.413  0.00  0.00    +0.069 C 
ENDBRANCH  18  19
ENDBRANCH   4  18
TORSDOF 2
ENDMDL
MODEL 8
REMARK VINA RESULT:      -8.6      2.746      7.331
REMARK  Name = 6918107
REMARK  2 active torsions:
REMARK  status: ('A' for Active; 'I' for Inactive)
REMARK    1  A    between atoms: C_4  and  C_18
REMARK    2  A    between atoms: C_18  and  N_19
REMARK                            x       y       z     vdW  Elec       q    Type
REMARK                         _______ _______ _______ _____ _____    ______ ____
ROOT
ATOM      1  O   UNL     1      33.434 -14.172 -25.265  0.00  0.00    -0.291 OA
ATOM      2  N   UNL     1      34.714 -17.021 -21.934  0.00  0.00    -0.331 N 
ATOM      3  C   UNL     1      34.389 -15.720 -22.166  0.00  0.00    +0.040 A 
ATOM      4  C   UNL     1      33.532 -13.143 -23.086  0.00  0.00    +0.082 C 
ATOM      5  C   UNL     1      34.085 -15.594 -23.513  0.00  0.00    +0.048 A 
ATOM      6  C   UNL     1      34.366 -14.631 -21.153  0.00  0.00    +0.044 C 
ATOM      7  C   UNL     1      34.640 -17.732 -23.108  0.00  0.00    +0.056 A 
ATOM      8  C   UNL     1      34.479 -13.279 -21.875  0.00  0.00    +0.016 C 
ATOM      9  C   UNL     1      34.252 -16.873 -24.123  0.00  0.00    +0.019 A 
ATOM     10  C   UNL     1      35.119 -17.682 -20.704  0.00  0.00    +0.106 C 
ATOM     11  C   UNL     1      33.688 -14.311 -24.071  0.00  0.00    +0.175 C 
ATOM     12  C   UNL     1      34.902 -19.094 -23.259  0.00  0.00    -0.006 C 
ATOM     13  C   UNL     1      34.834 -19.200 -20.758  0.00  0.00    +0.029 C 
ATOM     14  C   UNL     1      35.337 -19.878 -22.055  0.00  0.00    +0.030 C 
ATOM     15  C   UNL     1      34.120 -17.413 -25.417  0.00  0.00    +0.002 C 
ATOM     16  C   UNL     1      34.784 -19.605 -24.552  0.00  0.00    -0.003 C 
ATOM     17  C   UNL     1      34.394 -18.779 -25.612  0.00  0.00    -0.000 C 
ENDROOT
BRANCH   4  18
ATOM     18  C   UNL     1      32.068 -13.029 -22.668  0.00  0.00    +0.104 C 
BRANCH  18  19
ATOM     19  N   UNL     1      31.862 -11.965 -21.697  0.00  0.00    -0.273 N 
ATOM     20  N   UNL     1      31.694  -9.933 -20.842  0.00  0.00    -0.232 NA
ATOM     21  C   UNL     1      31.932 -10.627 -21.933  0.00  0.00    +0.113 C 
ATOM     22  C   UNL     1      31.562 -12.148 -20.383  0.00  0.00    +0.087 C 
ATOM     23  C   UNL     1      31.463 -10.875 -19.872  0.00  0.00    +0.116 C 
ATOM     24  C   UNL     1      32.241 -10.070 -23.266  0.00  0.00    +0.069 C 
ENDBRANCH  18  19
ENDBRANCH   4  18
TORSDOF 2
ENDMDL
MODEL 9
REMARK VINA RESULT:      -8.5      7.211     12.285
REMARK  Name = 6918107
REMARK  2 active torsions:
REMARK  status: ('A' for Active; 'I' for Inactive)
REMARK    1  A    between atoms: C_4  and  C_18
REMARK    2  A    between atoms: C_18  and  N_19
REMARK                            x       y       z     vdW  Elec       q    Type
REMARK                         _______ _______ _______ _____ _____    ______ ____
ROOT
ATOM      1  O   UNL     1      34.061  -6.897 -24.672  0.00  0.00    -0.291 OA
ATOM      2  N   UNL     1      31.997  -9.783 -21.796  0.00  0.00    -0.331 N 
ATOM      3  C   UNL     1      32.174  -8.455 -22.040  0.00  0.00    +0.040 A 
ATOM      4  C   UNL     1      32.718  -5.806 -22.991  0.00  0.00    +0.082 C 
ATOM      5  C   UNL     1      32.974  -8.335 -23.167  0.00  0.00    +0.048 A 
ATOM      6  C   UNL     1      31.610  -7.337 -21.239  0.00  0.00    +0.044 C 
ATOM      7  C   UNL     1      32.679 -10.520 -22.735  0.00  0.00    +0.056 A 
ATOM      8  C   UNL     1      32.442  -6.072 -21.496  0.00  0.00    +0.016 C 
ATOM      9  C   UNL     1      33.308  -9.650 -23.611  0.00  0.00    +0.019 A 
ATOM     10  C   UNL     1      31.257 -10.452 -20.739  0.00  0.00    +0.106 C 
ATOM     11  C   UNL     1      33.337  -7.027 -23.688  0.00  0.00    +0.175 C 
ATOM     12  C   UNL     1      32.728 -11.913 -22.806  0.00  0.00    -0.006 C 
ATOM     13  C   UNL     1      30.845 -11.882 -21.155  0.00  0.00    +0.029 C 
ATOM     14  C   UNL     1      32.006 -12.710 -21.758  0.00  0.00    +0.030 C 
ATOM     15  C   UNL     1      34.069 -10.214 -24.653  0.00  0.00    +0.002 C 
ATOM     16  C   UNL     1      33.502 -12.451 -23.835  0.00  0.00    -0.003 C 
ATOM     17  C   UNL     1      34.157 -11.615 -24.746  0.00  0.00    -0.000 C 
ENDROOT
BRANCH   4  18
ATOM     18  C   UNL     1      31.461  -5.379 -23.746  0.00  0.00    +0.104 C 
BRANCH  18  19
ATOM     19  N   UNL     1      31.489  -3.967 -24.094  0.00  0.00    -0.273 N 
ATOM     20  N   UNL     1      31.800  -2.120 -25.269  0.00  0.00    -0.232 NA
ATOM     21  C   UNL     1      31.899  -3.431 -25.276  0.00  0.00    +0.113 C 
ATOM     22  C   UNL     1      31.104  -2.949 -23.278  0.00  0.00    +0.087 C 
ATOM     23  C   UNL     1      31.306  -1.813 -24.026  0.00  0.00    +0.116 C 
ATOM     24  C   UNL     1      32.386  -4.259 -26.398  0.00  0.00    +0.069 C 
ENDBRANCH  18  19
ENDBRANCH   4  18
TORSDOF 2
ENDMDL
