MODEL 1
REMARK VINA RESULT:      -5.2      0.000      0.000
REMARK  Name = 7618
REMARK  9 active torsions:
REMARK  status: ('A' for Active; 'I' for Inactive)
REMARK    1  A    between atoms: N_1  and  C_3
REMARK    2  A    between atoms: N_1  and  C_7
REMARK    3  A    between atoms: N_1  and  C_11
REMARK    4  A    between atoms: C_3  and  C_4
REMARK    5  A    between atoms: C_4  and  O_5
REMARK    6  A    between atoms: C_7  and  C_8
REMARK    7  A    between atoms: C_8  and  O_9
REMARK    8  A    between atoms: C_11  and  C_12
REMARK    9  A    between atoms: C_12  and  O_13
REMARK                            x       y       z     vdW  Elec       q    Type
REMARK                         _______ _______ _______ _____ _____    ______ ____
ROOT
ATOM      1  N   UNL     1      38.305 -26.097 -13.394  0.00  0.00    +0.392 N 
ATOM      2  H   UNL     1      39.028 -26.746 -13.083  0.00  0.00    -0.079 HD
ENDROOT
BRANCH   1   3
ATOM      3  C   UNL     1      37.187 -26.871 -13.935  0.00  0.00    -0.045 C 
BRANCH   3   4
ATOM      4  C   UNL     1      36.714 -26.278 -15.252  0.00  0.00    +0.115 C 
BRANCH   4   5
ATOM      5  O   UNL     1      36.814 -27.273 -16.263  0.00  0.00    -0.384 OA
ATOM      6  H   UNL     1      36.202 -27.999 -16.065  0.00  0.00    +0.210 HD
ENDBRANCH   4   5
ENDBRANCH   3   4
ENDBRANCH   1   3
BRANCH   1   7
ATOM      7  C   UNL     1      37.868 -25.305 -12.244  0.00  0.00    -0.045 C 
BRANCH   7   8
ATOM      8  C   UNL     1      37.770 -23.833 -12.611  0.00  0.00    +0.115 C 
BRANCH   8   9
ATOM      9  O   UNL     1      38.476 -23.073 -11.640  0.00  0.00    -0.384 OA
ATOM     10  H   UNL     1      38.354 -22.127 -11.818  0.00  0.00    +0.210 HD
ENDBRANCH   8   9
ENDBRANCH   7   8
ENDBRANCH   1   7
BRANCH   1  11
ATOM     11  C   UNL     1      38.873 -25.229 -14.425  0.00  0.00    -0.045 C 
BRANCH  11  12
ATOM     12  C   UNL     1      40.315 -25.612 -14.713  0.00  0.00    +0.115 C 
BRANCH  12  13
ATOM     13  O   UNL     1      40.432 -25.952 -16.088  0.00  0.00    -0.384 OA
ATOM     14  H   UNL     1      41.062 -26.683 -16.188  0.00  0.00    +0.210 HD
ENDBRANCH  12  13
ENDBRANCH  11  12
ENDBRANCH   1  11
TORSDOF 9
ENDMDL
MODEL 2
REMARK VINA RESULT:      -5.1      0.537      3.961
REMARK  Name = 7618
REMARK  9 active torsions:
REMARK  status: ('A' for Active; 'I' for Inactive)
REMARK    1  A    between atoms: N_1  and  C_3
REMARK    2  A    between atoms: N_1  and  C_7
REMARK    3  A    between atoms: N_1  and  C_11
REMARK    4  A    between atoms: C_3  and  C_4
REMARK    5  A    between atoms: C_4  and  O_5
REMARK    6  A    between atoms: C_7  and  C_8
REMARK    7  A    between atoms: C_8  and  O_9
REMARK    8  A    between atoms: C_11  and  C_12
REMARK    9  A    between atoms: C_12  and  O_13
REMARK                            x       y       z     vdW  Elec       q    Type
REMARK                         _______ _______ _______ _____ _____    ______ ____
ROOT
ATOM      1  N   UNL     1      38.144 -25.785 -13.387  0.00  0.00    +0.392 N 
ATOM      2  H   UNL     1      38.811 -26.227 -12.753  0.00  0.00    -0.079 HD
ENDROOT
BRANCH   1   3
ATOM      3  C   UNL     1      37.341 -24.829 -12.624  0.00  0.00    -0.045 C 
BRANCH   3   4
ATOM      4  C   UNL     1      38.232 -23.798 -11.951  0.00  0.00    +0.115 C 
BRANCH   4   5
ATOM      5  O   UNL     1      37.428 -22.975 -11.115  0.00  0.00    -0.384 OA
ATOM      6  H   UNL     1      37.211 -22.154 -11.582  0.00  0.00    +0.210 HD
ENDBRANCH   4   5
ENDBRANCH   3   4
ENDBRANCH   1   3
BRANCH   1   7
ATOM      7  C   UNL     1      38.893 -25.098 -14.439  0.00  0.00    -0.045 C 
BRANCH   7   8
ATOM      8  C   UNL     1      40.248 -25.754 -14.651  0.00  0.00    +0.115 C 
BRANCH   8   9
ATOM      9  O   UNL     1      40.438 -25.970 -16.043  0.00  0.00    -0.384 OA
ATOM     10  H   UNL     1      41.265 -25.549 -16.326  0.00  0.00    +0.210 HD
ENDBRANCH   8   9
ENDBRANCH   7   8
ENDBRANCH   1   7
BRANCH   1  11
ATOM     11  C   UNL     1      37.292 -26.825 -13.962  0.00  0.00    -0.045 C 
BRANCH  11  12
ATOM     12  C   UNL     1      36.601 -26.319 -15.217  0.00  0.00    +0.115 C 
BRANCH  12  13
ATOM     13  O   UNL     1      36.810 -27.257 -16.265  0.00  0.00    -0.384 OA
ATOM     14  H   UNL     1      36.798 -28.157 -15.901  0.00  0.00    +0.210 HD
ENDBRANCH  12  13
ENDBRANCH  11  12
ENDBRANCH   1  11
TORSDOF 9
ENDMDL
MODEL 3
REMARK VINA RESULT:      -5.1      0.875      3.765
REMARK  Name = 7618
REMARK  9 active torsions:
REMARK  status: ('A' for Active; 'I' for Inactive)
REMARK    1  A    between atoms: N_1  and  C_3
REMARK    2  A    between atoms: N_1  and  C_7
REMARK    3  A    between atoms: N_1  and  C_11
REMARK    4  A    between atoms: C_3  and  C_4
REMARK    5  A    between atoms: C_4  and  O_5
REMARK    6  A    between atoms: C_7  and  C_8
REMARK    7  A    between atoms: C_8  and  O_9
REMARK    8  A    between atoms: C_11  and  C_12
REMARK    9  A    between atoms: C_12  and  O_13
REMARK                            x       y       z     vdW  Elec       q    Type
REMARK                         _______ _______ _______ _____ _____    ______ ____
ROOT
ATOM      1  N   UNL     1      37.974 -24.696 -14.684  0.00  0.00    +0.392 N 
ATOM      2  H   UNL     1      38.368 -24.234 -15.503  0.00  0.00    -0.079 HD
ENDROOT
BRANCH   1   3
ATOM      3  C   UNL     1      37.636 -23.674 -13.692  0.00  0.00    -0.045 C 
BRANCH   3   4
ATOM      4  C   UNL     1      37.967 -24.159 -12.290  0.00  0.00    +0.115 C 
BRANCH   4   5
ATOM      5  O   UNL     1      38.663 -23.126 -11.602  0.00  0.00    -0.384 OA
ATOM      6  H   UNL     1      39.558 -23.041 -11.967  0.00  0.00    +0.210 HD
ENDBRANCH   4   5
ENDBRANCH   3   4
ENDBRANCH   1   3
BRANCH   1   7
ATOM      7  C   UNL     1      36.773 -25.424 -15.095  0.00  0.00    -0.045 C 
BRANCH   7   8
ATOM      8  C   UNL     1      37.032 -26.922 -15.111  0.00  0.00    +0.115 C 
BRANCH   8   9
ATOM      9  O   UNL     1      36.853 -27.402 -16.436  0.00  0.00    -0.384 OA
ATOM     10  H   UNL     1      37.386 -28.203 -16.565  0.00  0.00    +0.210 HD
ENDBRANCH   8   9
ENDBRANCH   7   8
ENDBRANCH   1   7
BRANCH   1  11
ATOM     11  C   UNL     1      38.972 -25.620 -14.147  0.00  0.00    -0.045 C 
BRANCH  11  12
ATOM     12  C   UNL     1      40.338 -25.347 -14.755  0.00  0.00    +0.115 C 
BRANCH  12  13
ATOM     13  O   UNL     1      40.384 -25.928 -16.052  0.00  0.00    -0.384 OA
ATOM     14  H   UNL     1      39.881 -25.376 -16.672  0.00  0.00    +0.210 HD
ENDBRANCH  12  13
ENDBRANCH  11  12
ENDBRANCH   1  11
TORSDOF 9
ENDMDL
MODEL 4
REMARK VINA RESULT:      -5.1      0.739      3.387
REMARK  Name = 7618
REMARK  9 active torsions:
REMARK  status: ('A' for Active; 'I' for Inactive)
REMARK    1  A    between atoms: N_1  and  C_3
REMARK    2  A    between atoms: N_1  and  C_7
REMARK    3  A    between atoms: N_1  and  C_11
REMARK    4  A    between atoms: C_3  and  C_4
REMARK    5  A    between atoms: C_4  and  O_5
REMARK    6  A    between atoms: C_7  and  C_8
REMARK    7  A    between atoms: C_8  and  O_9
REMARK    8  A    between atoms: C_11  and  C_12
REMARK    9  A    between atoms: C_12  and  O_13
REMARK                            x       y       z     vdW  Elec       q    Type
REMARK                         _______ _______ _______ _____ _____    ______ ____
ROOT
ATOM      1  N   UNL     1      37.987 -24.884 -13.931  0.00  0.00    +0.392 N 
ATOM      2  H   UNL     1      38.269 -23.954 -14.241  0.00  0.00    -0.079 HD
ENDROOT
BRANCH   1   3
ATOM      3  C   UNL     1      36.893 -25.347 -14.786  0.00  0.00    -0.045 C 
BRANCH   3   4
ATOM      4  C   UNL     1      36.919 -26.861 -14.916  0.00  0.00    +0.115 C 
BRANCH   4   5
ATOM      5  O   UNL     1      36.785 -27.203 -16.290  0.00  0.00    -0.384 OA
ATOM      6  H   UNL     1      36.502 -28.128 -16.366  0.00  0.00    +0.210 HD
ENDBRANCH   4   5
ENDBRANCH   3   4
ENDBRANCH   1   3
BRANCH   1   7
ATOM      7  C   UNL     1      39.139 -25.779 -14.048  0.00  0.00    -0.045 C 
BRANCH   7   8
ATOM      8  C   UNL     1      40.222 -25.151 -14.909  0.00  0.00    +0.115 C 
BRANCH   8   9
ATOM      9  O   UNL     1      40.511 -26.027 -15.990  0.00  0.00    -0.384 OA
ATOM     10  H   UNL     1      40.183 -25.640 -16.817  0.00  0.00    +0.210 HD
ENDBRANCH   8   9
ENDBRANCH   7   8
ENDBRANCH   1   7
BRANCH   1  11
ATOM     11  C   UNL     1      37.547 -24.797 -12.539  0.00  0.00    -0.045 C 
BRANCH  11  12
ATOM     12  C   UNL     1      37.314 -23.349 -12.140  0.00  0.00    +0.115 C 
BRANCH  12  13
ATOM     13  O   UNL     1      38.538 -22.802 -11.670  0.00  0.00    -0.384 OA
ATOM     14  H   UNL     1      39.100 -23.513 -11.325  0.00  0.00    +0.210 HD
ENDBRANCH  12  13
ENDBRANCH  11  12
ENDBRANCH   1  11
TORSDOF 9
ENDMDL
MODEL 5
REMARK VINA RESULT:      -4.9      1.014      2.816
REMARK  Name = 7618
REMARK  9 active torsions:
REMARK  status: ('A' for Active; 'I' for Inactive)
REMARK    1  A    between atoms: N_1  and  C_3
REMARK    2  A    between atoms: N_1  and  C_7
REMARK    3  A    between atoms: N_1  and  C_11
REMARK    4  A    between atoms: C_3  and  C_4
REMARK    5  A    between atoms: C_4  and  O_5
REMARK    6  A    between atoms: C_7  and  C_8
REMARK    7  A    between atoms: C_8  and  O_9
REMARK    8  A    between atoms: C_11  and  C_12
REMARK    9  A    between atoms: C_12  and  O_13
REMARK                            x       y       z     vdW  Elec       q    Type
REMARK                         _______ _______ _______ _____ _____    ______ ____
ROOT
ATOM      1  N   UNL     1      37.885 -24.658 -14.533  0.00  0.00    +0.392 N 
ATOM      2  H   UNL     1      38.315 -24.124 -15.288  0.00  0.00    -0.079 HD
ENDROOT
BRANCH   1   3
ATOM      3  C   UNL     1      38.872 -25.604 -14.012  0.00  0.00    -0.045 C 
BRANCH   3   4
ATOM      4  C   UNL     1      40.224 -25.384 -14.672  0.00  0.00    +0.115 C 
BRANCH   4   5
ATOM      5  O   UNL     1      40.933 -26.617 -14.683  0.00  0.00    -0.384 OA
ATOM      6  H   UNL     1      41.848 -26.466 -14.400  0.00  0.00    +0.210 HD
ENDBRANCH   4   5
ENDBRANCH   3   4
ENDBRANCH   1   3
BRANCH   1   7
ATOM      7  C   UNL     1      37.468 -23.726 -13.485  0.00  0.00    -0.045 C 
BRANCH   7   8
ATOM      8  C   UNL     1      38.044 -24.139 -12.140  0.00  0.00    +0.115 C 
BRANCH   8   9
ATOM      9  O   UNL     1      38.760 -23.040 -11.593  0.00  0.00    -0.384 OA
ATOM     10  H   UNL     1      39.226 -23.324 -10.791  0.00  0.00    +0.210 HD
ENDBRANCH   8   9
ENDBRANCH   7   8
ENDBRANCH   1   7
BRANCH   1  11
ATOM     11  C   UNL     1      36.728 -25.372 -15.071  0.00  0.00    -0.045 C 
BRANCH  11  12
ATOM     12  C   UNL     1      36.977 -26.871 -15.078  0.00  0.00    +0.115 C 
BRANCH  12  13
ATOM     13  O   UNL     1      36.783 -27.361 -16.398  0.00  0.00    -0.384 OA
ATOM     14  H   UNL     1      37.623 -27.331 -16.882  0.00  0.00    +0.210 HD
ENDBRANCH  12  13
ENDBRANCH  11  12
ENDBRANCH   1  11
TORSDOF 9
ENDMDL
MODEL 6
REMARK VINA RESULT:      -4.8      2.949      4.231
REMARK  Name = 7618
REMARK  9 active torsions:
REMARK  status: ('A' for Active; 'I' for Inactive)
REMARK    1  A    between atoms: N_1  and  C_3
REMARK    2  A    between atoms: N_1  and  C_7
REMARK    3  A    between atoms: N_1  and  C_11
REMARK    4  A    between atoms: C_3  and  C_4
REMARK    5  A    between atoms: C_4  and  O_5
REMARK    6  A    between atoms: C_7  and  C_8
REMARK    7  A    between atoms: C_8  and  O_9
REMARK    8  A    between atoms: C_11  and  C_12
REMARK    9  A    between atoms: C_12  and  O_13
REMARK                            x       y       z     vdW  Elec       q    Type
REMARK                         _______ _______ _______ _____ _____    ______ ____
ROOT
ATOM      1  N   UNL     1      35.784 -25.156 -13.660  0.00  0.00    +0.392 N 
ATOM      2  H   UNL     1      35.166 -25.956 -13.524  0.00  0.00    -0.079 HD
ENDROOT
BRANCH   1   3
ATOM      3  C   UNL     1      36.581 -25.385 -14.866  0.00  0.00    -0.045 C 
BRANCH   3   4
ATOM      4  C   UNL     1      36.948 -26.854 -14.994  0.00  0.00    +0.115 C 
BRANCH   4   5
ATOM      5  O   UNL     1      36.738 -27.262 -16.341  0.00  0.00    -0.384 OA
ATOM      6  H   UNL     1      37.256 -28.061 -16.521  0.00  0.00    +0.210 HD
ENDBRANCH   4   5
ENDBRANCH   3   4
ENDBRANCH   1   3
BRANCH   1   7
ATOM      7  C   UNL     1      34.962 -23.956 -13.812  0.00  0.00    -0.045 C 
BRANCH   7   8
ATOM      8  C   UNL     1      33.519 -24.329 -14.113  0.00  0.00    +0.115 C 
BRANCH   8   9
ATOM      9  O   UNL     1      32.972 -24.990 -12.980  0.00  0.00    -0.384 OA
ATOM     10  H   UNL     1      32.261 -24.450 -12.602  0.00  0.00    +0.210 HD
ENDBRANCH   8   9
ENDBRANCH   7   8
ENDBRANCH   1   7
BRANCH   1  11
ATOM     11  C   UNL     1      36.652 -25.036 -12.489  0.00  0.00    -0.045 C 
BRANCH  11  12
ATOM     12  C   UNL     1      35.953 -24.268 -11.380  0.00  0.00    +0.115 C 
BRANCH  12  13
ATOM     13  O   UNL     1      35.213 -25.186 -10.585  0.00  0.00    -0.384 OA
ATOM     14  H   UNL     1      35.195 -26.052 -11.022  0.00  0.00    +0.210 HD
ENDBRANCH  12  13
ENDBRANCH  11  12
ENDBRANCH   1  11
TORSDOF 9
ENDMDL
MODEL 7
REMARK VINA RESULT:      -4.8      0.997      4.004
REMARK  Name = 7618
REMARK  9 active torsions:
REMARK  status: ('A' for Active; 'I' for Inactive)
REMARK    1  A    between atoms: N_1  and  C_3
REMARK    2  A    between atoms: N_1  and  C_7
REMARK    3  A    between atoms: N_1  and  C_11
REMARK    4  A    between atoms: C_3  and  C_4
REMARK    5  A    between atoms: C_4  and  O_5
REMARK    6  A    between atoms: C_7  and  C_8
REMARK    7  A    between atoms: C_8  and  O_9
REMARK    8  A    between atoms: C_11  and  C_12
REMARK    9  A    between atoms: C_12  and  O_13
REMARK                            x       y       z     vdW  Elec       q    Type
REMARK                         _______ _______ _______ _____ _____    ______ ____
ROOT
ATOM      1  N   UNL     1      37.662 -25.217 -13.851  0.00  0.00    +0.392 N 
ATOM      2  H   UNL     1      37.251 -25.567 -12.985  0.00  0.00    -0.079 HD
ENDROOT
BRANCH   1   3
ATOM      3  C   UNL     1      38.992 -25.807 -14.005  0.00  0.00    -0.045 C 
BRANCH   3   4
ATOM      4  C   UNL     1      39.821 -25.006 -14.994  0.00  0.00    +0.115 C 
BRANCH   4   5
ATOM      5  O   UNL     1      40.371 -25.897 -15.957  0.00  0.00    -0.384 OA
ATOM      6  H   UNL     1      40.857 -25.390 -16.626  0.00  0.00    +0.210 HD
ENDBRANCH   4   5
ENDBRANCH   3   4
ENDBRANCH   1   3
BRANCH   1   7
ATOM      7  C   UNL     1      36.798 -25.610 -14.965  0.00  0.00    -0.045 C 
BRANCH   7   8
ATOM      8  C   UNL     1      36.809 -27.119 -15.146  0.00  0.00    +0.115 C 
BRANCH   8   9
ATOM      9  O   UNL     1      36.797 -27.412 -16.537  0.00  0.00    -0.384 OA
ATOM     10  H   UNL     1      36.034 -27.973 -16.743  0.00  0.00    +0.210 HD
ENDBRANCH   8   9
ENDBRANCH   7   8
ENDBRANCH   1   7
BRANCH   1  11
ATOM     11  C   UNL     1      37.755 -23.760 -13.766  0.00  0.00    -0.045 C 
BRANCH  11  12
ATOM     12  C   UNL     1      37.328 -23.275 -12.391  0.00  0.00    +0.115 C 
BRANCH  12  13
ATOM     13  O   UNL     1      38.491 -22.971 -11.632  0.00  0.00    -0.384 OA
ATOM     14  H   UNL     1      38.279 -22.289 -10.974  0.00  0.00    +0.210 HD
ENDBRANCH  12  13
ENDBRANCH  11  12
ENDBRANCH   1  11
TORSDOF 9
ENDMDL
MODEL 8
REMARK VINA RESULT:      -4.8      3.100      3.762
REMARK  Name = 7618
REMARK  9 active torsions:
REMARK  status: ('A' for Active; 'I' for Inactive)
REMARK    1  A    between atoms: N_1  and  C_3
REMARK    2  A    between atoms: N_1  and  C_7
REMARK    3  A    between atoms: N_1  and  C_11
REMARK    4  A    between atoms: C_3  and  C_4
REMARK    5  A    between atoms: C_4  and  O_5
REMARK    6  A    between atoms: C_7  and  C_8
REMARK    7  A    between atoms: C_8  and  O_9
REMARK    8  A    between atoms: C_11  and  C_12
REMARK    9  A    between atoms: C_12  and  O_13
REMARK                            x       y       z     vdW  Elec       q    Type
REMARK                         _______ _______ _______ _____ _____    ______ ____
ROOT
ATOM      1  N   UNL     1      35.550 -25.200 -13.700  0.00  0.00    +0.392 N 
ATOM      2  H   UNL     1      34.873 -25.960 -13.628  0.00  0.00    -0.079 HD
ENDROOT
BRANCH   1   3
ATOM      3  C   UNL     1      34.824 -23.930 -13.702  0.00  0.00    -0.045 C 
BRANCH   3   4
ATOM      4  C   UNL     1      33.332 -24.166 -13.872  0.00  0.00    +0.115 C 
BRANCH   4   5
ATOM      5  O   UNL     1      32.629 -23.293 -12.997  0.00  0.00    -0.384 OA
ATOM      6  H   UNL     1      32.085 -23.815 -12.388  0.00  0.00    +0.210 HD
ENDBRANCH   4   5
ENDBRANCH   3   4
ENDBRANCH   1   3
BRANCH   1   7
ATOM      7  C   UNL     1      36.450 -25.271 -12.548  0.00  0.00    -0.045 C 
BRANCH   7   8
ATOM      8  C   UNL     1      35.982 -24.338 -11.442  0.00  0.00    +0.115 C 
BRANCH   8   9
ATOM      9  O   UNL     1      35.318 -25.106 -10.448  0.00  0.00    -0.384 OA
ATOM     10  H   UNL     1      34.606 -24.579 -10.053  0.00  0.00    +0.210 HD
ENDBRANCH   8   9
ENDBRANCH   7   8
ENDBRANCH   1   7
BRANCH   1  11
ATOM     11  C   UNL     1      36.300 -25.363 -14.944  0.00  0.00    -0.045 C 
BRANCH  11  12
ATOM     12  C   UNL     1      36.970 -26.726 -14.993  0.00  0.00    +0.115 C 
BRANCH  12  13
ATOM     13  O   UNL     1      36.786 -27.280 -16.289  0.00  0.00    -0.384 OA
ATOM     14  H   UNL     1      36.326 -28.131 -16.214  0.00  0.00    +0.210 HD
ENDBRANCH  12  13
ENDBRANCH  11  12
ENDBRANCH   1  11
TORSDOF 9
ENDMDL
MODEL 9
REMARK VINA RESULT:      -4.7      2.106      4.085
REMARK  Name = 7618
REMARK  9 active torsions:
REMARK  status: ('A' for Active; 'I' for Inactive)
REMARK    1  A    between atoms: N_1  and  C_3
REMARK    2  A    between atoms: N_1  and  C_7
REMARK    3  A    between atoms: N_1  and  C_11
REMARK    4  A    between atoms: C_3  and  C_4
REMARK    5  A    between atoms: C_4  and  O_5
REMARK    6  A    between atoms: C_7  and  C_8
REMARK    7  A    between atoms: C_8  and  O_9
REMARK    8  A    between atoms: C_11  and  C_12
REMARK    9  A    between atoms: C_12  and  O_13
REMARK                            x       y       z     vdW  Elec       q    Type
REMARK                         _______ _______ _______ _____ _____    ______ ____
ROOT
ATOM      1  N   UNL     1      37.785 -25.184 -13.862  0.00  0.00    +0.392 N 
ATOM      2  H   UNL     1      38.410 -24.452 -13.525  0.00  0.00    -0.079 HD
ENDROOT
BRANCH   1   3
ATOM      3  C   UNL     1      36.917 -24.614 -14.892  0.00  0.00    -0.045 C 
BRANCH   3   4
ATOM      4  C   UNL     1      37.358 -23.203 -15.244  0.00  0.00    +0.115 C 
BRANCH   4   5
ATOM      5  O   UNL     1      38.520 -23.278 -16.061  0.00  0.00    -0.384 OA
ATOM      6  H   UNL     1      38.697 -24.204 -16.288  0.00  0.00    +0.210 HD
ENDBRANCH   4   5
ENDBRANCH   3   4
ENDBRANCH   1   3
BRANCH   1   7
ATOM      7  C   UNL     1      38.598 -26.265 -14.420  0.00  0.00    -0.045 C 
BRANCH   7   8
ATOM      8  C   UNL     1      40.048 -25.829 -14.562  0.00  0.00    +0.115 C 
BRANCH   8   9
ATOM      9  O   UNL     1      40.375 -25.773 -15.944  0.00  0.00    -0.384 OA
ATOM     10  H   UNL     1      41.330 -25.636 -16.045  0.00  0.00    +0.210 HD
ENDBRANCH   8   9
ENDBRANCH   7   8
ENDBRANCH   1   7
BRANCH   1  11
ATOM     11  C   UNL     1      36.991 -25.671 -12.735  0.00  0.00    -0.045 C 
BRANCH  11  12
ATOM     12  C   UNL     1      36.179 -24.542 -12.123  0.00  0.00    +0.115 C 
BRANCH  12  13
ATOM     13  O   UNL     1      34.946 -25.070 -11.651  0.00  0.00    -0.384 OA
ATOM     14  H   UNL     1      34.623 -24.528 -10.913  0.00  0.00    +0.210 HD
ENDBRANCH  12  13
ENDBRANCH  11  12
ENDBRANCH   1  11
TORSDOF 9
ENDMDL
