MODEL 1
REMARK VINA RESULT:      -8.9      0.000      0.000
REMARK  Name = 64147
REMARK  11 active torsions:
REMARK  status: ('A' for Active; 'I' for Inactive)
REMARK    1  A    between atoms: O_1  and  C_2
REMARK    2  A    between atoms: O_1  and  C_18
REMARK    3  A    between atoms: C_2  and  C_3
REMARK    4  A    between atoms: C_2  and  C_15
REMARK    5  A    between atoms: C_3  and  O_4
REMARK    6  A    between atoms: O_4  and  C_6
REMARK    7  A    between atoms: C_6  and  C_7
REMARK    8  A    between atoms: C_7  and  N_8
REMARK    9  A    between atoms: C_7  and  C_12
REMARK   10  A    between atoms: C_15  and  O_16
REMARK   11  A    between atoms: C_18  and  N_20
REMARK                            x       y       z     vdW  Elec       q    Type
REMARK                         _______ _______ _______ _____ _____    ______ ____
ROOT
ATOM      1  O   UNL     1      35.210 -23.168 -17.244  0.00  0.00    -0.333 OA
ENDROOT
BRANCH   1   2
ATOM      2  C   UNL     1      34.811 -22.200 -18.217  0.00  0.00    +0.190 C 
BRANCH   2   3
ATOM      3  C   UNL     1      36.058 -21.646 -18.896  0.00  0.00    +0.240 C 
BRANCH   3   4
ATOM      4  O   UNL     1      35.776 -21.359 -20.269  0.00  0.00    -0.447 OA
BRANCH   4   6
ATOM      5  O   UNL     1      36.738 -19.266 -20.212  0.00  0.00    -0.252 OA
ATOM      6  C   UNL     1      35.896 -20.047 -20.634  0.00  0.00    +0.296 C 
BRANCH   6   7
ATOM      7  C   UNL     1      34.817 -19.708 -21.653  0.00  0.00    +0.036 C 
BRANCH   7   8
ATOM      8  N   UNL     1      33.561 -19.479 -20.938  0.00  0.00    +0.389 N 
ATOM      9  H   UNL     1      33.688 -19.698 -19.950  0.00  0.00    -0.088 HD
ATOM     10  H   UNL     1      32.835 -20.079 -21.328  0.00  0.00    -0.088 HD
ATOM     11  H   UNL     1      33.287 -18.502 -21.037  0.00  0.00    -0.088 HD
ENDBRANCH   7   8
BRANCH   7  12
ATOM     12  C   UNL     1      35.227 -18.516 -22.549  0.00  0.00    -0.010 C 
ATOM     13  C   UNL     1      34.561 -17.217 -22.083  0.00  0.00    -0.002 C 
ATOM     14  C   UNL     1      34.940 -18.739 -24.039  0.00  0.00    -0.002 C 
ENDBRANCH   7  12
ENDBRANCH   6   7
ENDBRANCH   4   6
ENDBRANCH   3   4
ENDBRANCH   2   3
BRANCH   2  15
ATOM     15  C   UNL     1      33.892 -22.889 -19.217  0.00  0.00    +0.171 C 
BRANCH  15  16
ATOM     16  O   UNL     1      32.904 -21.961 -19.652  0.00  0.00    -0.379 OA
ATOM     17  H   UNL     1      32.313 -21.748 -18.913  0.00  0.00    +0.211 HD
ENDBRANCH  15  16
ENDBRANCH   2  15
ENDBRANCH   1   2
BRANCH   1  18
ATOM     18  C   UNL     1      36.088 -22.600 -16.287  0.00  0.00    +0.223 C 
BRANCH  18  20
ATOM     19  O   UNL     1      37.058 -26.431 -11.863  0.00  0.00    -0.208 OA
ATOM     20  N   UNL     1      36.084 -23.477 -15.125  0.00  0.00    -0.206 NA
ATOM     21  N   UNL     1      38.287 -24.497 -15.214  0.00  0.00    -0.279 N 
ATOM     22  N   UNL     1      35.340 -24.503 -13.288  0.00  0.00    -0.241 NA
ATOM     23  N   UNL     1      38.716 -26.054 -13.438  0.00  0.00    -0.301 NA
ATOM     24  N   UNL     1      40.320 -25.588 -15.099  0.00  0.00    -0.320 N 
ATOM     25  C   UNL     1      37.071 -24.286 -14.703  0.00  0.00    +0.191 C 
ATOM     26  C   UNL     1      36.612 -24.910 -13.580  0.00  0.00    +0.183 C 
ATOM     27  C   UNL     1      35.049 -23.635 -14.243  0.00  0.00    +0.205 C 
ATOM     28  C   UNL     1      37.450 -25.859 -12.873  0.00  0.00    +0.224 C 
ATOM     29  C   UNL     1      39.086 -25.410 -14.529  0.00  0.00    +0.245 C 
ATOM     30  H   UNL     1      38.599 -24.035 -16.026  0.00  0.00    +0.152 HD
ATOM     31  H   UNL     1      40.564 -25.091 -15.914  0.00  0.00    +0.146 HD
ATOM     32  H   UNL     1      40.964 -26.214 -14.695  0.00  0.00    +0.146 HD
ENDBRANCH  18  20
ENDBRANCH   1  18
TORSDOF 11
ENDMDL
MODEL 2
REMARK VINA RESULT:      -8.6      1.162      2.632
REMARK  Name = 64147
REMARK  11 active torsions:
REMARK  status: ('A' for Active; 'I' for Inactive)
REMARK    1  A    between atoms: O_1  and  C_2
REMARK    2  A    between atoms: O_1  and  C_18
REMARK    3  A    between atoms: C_2  and  C_3
REMARK    4  A    between atoms: C_2  and  C_15
REMARK    5  A    between atoms: C_3  and  O_4
REMARK    6  A    between atoms: O_4  and  C_6
REMARK    7  A    between atoms: C_6  and  C_7
REMARK    8  A    between atoms: C_7  and  N_8
REMARK    9  A    between atoms: C_7  and  C_12
REMARK   10  A    between atoms: C_15  and  O_16
REMARK   11  A    between atoms: C_18  and  N_20
REMARK                            x       y       z     vdW  Elec       q    Type
REMARK                         _______ _______ _______ _____ _____    ______ ____
ROOT
ATOM      1  O   UNL     1      35.297 -22.906 -17.340  0.00  0.00    -0.333 OA
ENDROOT
BRANCH   1   2
ATOM      2  C   UNL     1      34.896 -22.037 -18.402  0.00  0.00    +0.190 C 
BRANCH   2   3
ATOM      3  C   UNL     1      36.141 -21.559 -19.140  0.00  0.00    +0.240 C 
BRANCH   3   4
ATOM      4  O   UNL     1      35.803 -21.213 -20.487  0.00  0.00    -0.447 OA
BRANCH   4   6
ATOM      5  O   UNL     1      36.725 -19.106 -20.354  0.00  0.00    -0.252 OA
ATOM      6  C   UNL     1      35.889 -19.884 -20.793  0.00  0.00    +0.296 C 
BRANCH   6   7
ATOM      7  C   UNL     1      34.780 -19.520 -21.771  0.00  0.00    +0.036 C 
BRANCH   7   8
ATOM      8  N   UNL     1      33.551 -19.291 -21.011  0.00  0.00    +0.389 N 
ATOM      9  H   UNL     1      33.010 -20.155 -20.972  0.00  0.00    -0.088 HD
ATOM     10  H   UNL     1      32.999 -18.566 -21.469  0.00  0.00    -0.088 HD
ATOM     11  H   UNL     1      33.786 -18.993 -20.065  0.00  0.00    -0.088 HD
ENDBRANCH   7   8
BRANCH   7  12
ATOM     12  C   UNL     1      35.172 -18.318 -22.662  0.00  0.00    -0.010 C 
ATOM     13  C   UNL     1      34.549 -17.017 -22.144  0.00  0.00    -0.002 C 
ATOM     14  C   UNL     1      34.816 -18.508 -24.142  0.00  0.00    -0.002 C 
ENDBRANCH   7  12
ENDBRANCH   6   7
ENDBRANCH   4   6
ENDBRANCH   3   4
ENDBRANCH   2   3
BRANCH   2  15
ATOM     15  C   UNL     1      33.968 -22.818 -19.323  0.00  0.00    +0.171 C 
BRANCH  15  16
ATOM     16  O   UNL     1      32.938 -21.951 -19.786  0.00  0.00    -0.379 OA
ATOM     17  H   UNL     1      33.223 -21.520 -20.607  0.00  0.00    +0.211 HD
ENDBRANCH  15  16
ENDBRANCH   2  15
ENDBRANCH   1   2
BRANCH   1  18
ATOM     18  C   UNL     1      36.458 -22.417 -16.690  0.00  0.00    +0.223 C 
BRANCH  18  20
ATOM     19  O   UNL     1      36.081 -25.353 -11.550  0.00  0.00    -0.208 OA
ATOM     20  N   UNL     1      36.621 -23.183 -15.464  0.00  0.00    -0.206 NA
ATOM     21  N   UNL     1      34.383 -23.164 -14.519  0.00  0.00    -0.279 N 
ATOM     22  N   UNL     1      37.622 -24.382 -13.870  0.00  0.00    -0.241 NA
ATOM     23  N   UNL     1      34.191 -24.344 -12.436  0.00  0.00    -0.301 NA
ATOM     24  N   UNL     1      32.344 -23.277 -13.437  0.00  0.00    -0.320 N 
ATOM     25  C   UNL     1      35.681 -23.480 -14.550  0.00  0.00    +0.191 C 
ATOM     26  C   UNL     1      36.298 -24.211 -13.578  0.00  0.00    +0.183 C 
ATOM     27  C   UNL     1      37.786 -23.747 -15.018  0.00  0.00    +0.205 C 
ATOM     28  C   UNL     1      35.547 -24.693 -12.434  0.00  0.00    +0.224 C 
ATOM     29  C   UNL     1      33.669 -23.631 -13.417  0.00  0.00    +0.245 C 
ATOM     30  H   UNL     1      33.957 -22.634 -15.231  0.00  0.00    +0.152 HD
ATOM     31  H   UNL     1      31.988 -22.744 -14.185  0.00  0.00    +0.146 HD
ATOM     32  H   UNL     1      31.749 -23.555 -12.704  0.00  0.00    +0.146 HD
ENDBRANCH  18  20
ENDBRANCH   1  18
TORSDOF 11
ENDMDL
MODEL 3
REMARK VINA RESULT:      -8.6      7.138     12.971
REMARK  Name = 64147
REMARK  11 active torsions:
REMARK  status: ('A' for Active; 'I' for Inactive)
REMARK    1  A    between atoms: O_1  and  C_2
REMARK    2  A    between atoms: O_1  and  C_18
REMARK    3  A    between atoms: C_2  and  C_3
REMARK    4  A    between atoms: C_2  and  C_15
REMARK    5  A    between atoms: C_3  and  O_4
REMARK    6  A    between atoms: O_4  and  C_6
REMARK    7  A    between atoms: C_6  and  C_7
REMARK    8  A    between atoms: C_7  and  N_8
REMARK    9  A    between atoms: C_7  and  C_12
REMARK   10  A    between atoms: C_15  and  O_16
REMARK   11  A    between atoms: C_18  and  N_20
REMARK                            x       y       z     vdW  Elec       q    Type
REMARK                         _______ _______ _______ _____ _____    ______ ____
ROOT
ATOM      1  O   UNL     1      32.990 -14.098 -24.101  0.00  0.00    -0.333 OA
ENDROOT
BRANCH   1   2
ATOM      2  C   UNL     1      34.142 -14.941 -24.170  0.00  0.00    +0.190 C 
BRANCH   2   3
ATOM      3  C   UNL     1      34.593 -15.272 -22.752  0.00  0.00    +0.240 C 
BRANCH   3   4
ATOM      4  O   UNL     1      35.189 -16.572 -22.723  0.00  0.00    -0.447 OA
BRANCH   4   6
ATOM      5  O   UNL     1      35.341 -16.912 -20.450  0.00  0.00    -0.252 OA
ATOM      6  C   UNL     1      35.006 -17.279 -21.568  0.00  0.00    +0.296 C 
BRANCH   6   7
ATOM      7  C   UNL     1      34.314 -18.597 -21.888  0.00  0.00    +0.036 C 
BRANCH   7   8
ATOM      8  N   UNL     1      34.972 -19.192 -23.052  0.00  0.00    +0.389 N 
ATOM      9  H   UNL     1      34.367 -19.100 -23.868  0.00  0.00    -0.088 HD
ATOM     10  H   UNL     1      35.151 -20.180 -22.872  0.00  0.00    -0.088 HD
ATOM     11  H   UNL     1      35.854 -18.713 -23.226  0.00  0.00    -0.088 HD
ENDBRANCH   7   8
BRANCH   7  12
ATOM     12  C   UNL     1      34.281 -19.541 -20.664  0.00  0.00    -0.010 C 
ATOM     13  C   UNL     1      35.494 -20.478 -20.653  0.00  0.00    -0.002 C 
ATOM     14  C   UNL     1      32.992 -20.364 -20.558  0.00  0.00    -0.002 C 
ENDBRANCH   7  12
ENDBRANCH   6   7
ENDBRANCH   4   6
ENDBRANCH   3   4
ENDBRANCH   2   3
BRANCH   2  15
ATOM     15  C   UNL     1      33.759 -16.198 -24.940  0.00  0.00    +0.171 C 
BRANCH  15  16
ATOM     16  O   UNL     1      34.851 -16.585 -25.768  0.00  0.00    -0.379 OA
ATOM     17  H   UNL     1      35.646 -16.694 -25.224  0.00  0.00    +0.211 HD
ENDBRANCH  15  16
ENDBRANCH   2  15
ENDBRANCH   1   2
BRANCH   1  18
ATOM     18  C   UNL     1      32.613 -13.856 -22.756  0.00  0.00    +0.223 C 
BRANCH  18  20
ATOM     19  O   UNL     1      32.397  -7.930 -22.886  0.00  0.00    -0.208 OA
ATOM     20  N   UNL     1      32.352 -12.430 -22.631  0.00  0.00    -0.206 NA
ATOM     21  N   UNL     1      34.102 -11.443 -23.996  0.00  0.00    -0.279 N 
ATOM     22  N   UNL     1      31.363 -10.539 -21.979  0.00  0.00    -0.241 NA
ATOM     23  N   UNL     1      34.047  -9.044 -24.073  0.00  0.00    -0.301 NA
ATOM     24  N   UNL     1      35.675 -10.289 -25.236  0.00  0.00    -0.320 N 
ATOM     25  C   UNL     1      33.035 -11.418 -23.194  0.00  0.00    +0.191 C 
ATOM     26  C   UNL     1      32.427 -10.265 -22.792  0.00  0.00    +0.183 C 
ATOM     27  C   UNL     1      31.345 -11.859 -21.901  0.00  0.00    +0.205 C 
ATOM     28  C   UNL     1      32.928  -8.978 -23.233  0.00  0.00    +0.224 C 
ATOM     29  C   UNL     1      34.578 -10.203 -24.416  0.00  0.00    +0.245 C 
ATOM     30  H   UNL     1      34.527 -12.287 -24.274  0.00  0.00    +0.152 HD
ATOM     31  H   UNL     1      36.046 -11.171 -25.471  0.00  0.00    +0.146 HD
ATOM     32  H   UNL     1      36.091  -9.470 -25.588  0.00  0.00    +0.146 HD
ENDBRANCH  18  20
ENDBRANCH   1  18
TORSDOF 11
ENDMDL
MODEL 4
REMARK VINA RESULT:      -8.5      6.117     12.688
REMARK  Name = 64147
REMARK  11 active torsions:
REMARK  status: ('A' for Active; 'I' for Inactive)
REMARK    1  A    between atoms: O_1  and  C_2
REMARK    2  A    between atoms: O_1  and  C_18
REMARK    3  A    between atoms: C_2  and  C_3
REMARK    4  A    between atoms: C_2  and  C_15
REMARK    5  A    between atoms: C_3  and  O_4
REMARK    6  A    between atoms: O_4  and  C_6
REMARK    7  A    between atoms: C_6  and  C_7
REMARK    8  A    between atoms: C_7  and  N_8
REMARK    9  A    between atoms: C_7  and  C_12
REMARK   10  A    between atoms: C_15  and  O_16
REMARK   11  A    between atoms: C_18  and  N_20
REMARK                            x       y       z     vdW  Elec       q    Type
REMARK                         _______ _______ _______ _____ _____    ______ ____
ROOT
ATOM      1  O   UNL     1      33.611 -14.356 -21.462  0.00  0.00    -0.333 OA
ENDROOT
BRANCH   1   2
ATOM      2  C   UNL     1      34.529 -15.383 -21.843  0.00  0.00    +0.190 C 
BRANCH   2   3
ATOM      3  C   UNL     1      34.009 -16.720 -21.328  0.00  0.00    +0.240 C 
BRANCH   3   4
ATOM      4  O   UNL     1      35.097 -17.636 -21.168  0.00  0.00    -0.447 OA
BRANCH   4   6
ATOM      5  O   UNL     1      34.690 -18.878 -23.065  0.00  0.00    -0.252 OA
ATOM      6  C   UNL     1      35.001 -18.796 -21.885  0.00  0.00    +0.296 C 
BRANCH   6   7
ATOM      7  C   UNL     1      35.344 -19.974 -20.984  0.00  0.00    +0.036 C 
BRANCH   7   8
ATOM      8  N   UNL     1      36.567 -19.651 -20.247  0.00  0.00    +0.389 N 
ATOM      9  H   UNL     1      36.380 -18.887 -19.597  0.00  0.00    -0.088 HD
ATOM     10  H   UNL     1      37.294 -19.368 -20.905  0.00  0.00    -0.088 HD
ATOM     11  H   UNL     1      36.878 -20.472 -19.729  0.00  0.00    -0.088 HD
ENDBRANCH   7   8
BRANCH   7  12
ATOM     12  C   UNL     1      34.164 -20.353 -20.059  0.00  0.00    -0.010 C 
ATOM     13  C   UNL     1      34.346 -21.760 -19.477  0.00  0.00    -0.002 C 
ATOM     14  C   UNL     1      32.793 -20.247 -20.736  0.00  0.00    -0.002 C 
ENDBRANCH   7  12
ENDBRANCH   6   7
ENDBRANCH   4   6
ENDBRANCH   3   4
ENDBRANCH   2   3
BRANCH   2  15
ATOM     15  C   UNL     1      34.639 -15.376 -23.362  0.00  0.00    +0.171 C 
BRANCH  15  16
ATOM     16  O   UNL     1      35.753 -16.174 -23.749  0.00  0.00    -0.379 OA
ATOM     17  H   UNL     1      35.807 -16.954 -23.175  0.00  0.00    +0.211 HD
ENDBRANCH  15  16
ENDBRANCH   2  15
ENDBRANCH   1   2
BRANCH   1  18
ATOM     18  C   UNL     1      32.708 -14.061 -22.514  0.00  0.00    +0.223 C 
BRANCH  18  20
ATOM     19  O   UNL     1      32.198  -8.159 -22.808  0.00  0.00    -0.208 OA
ATOM     20  N   UNL     1      32.384 -12.645 -22.420  0.00  0.00    -0.206 NA
ATOM     21  N   UNL     1      34.022 -11.620 -23.891  0.00  0.00    -0.279 N 
ATOM     22  N   UNL     1      31.332 -10.784 -21.779  0.00  0.00    -0.241 NA
ATOM     23  N   UNL     1      33.847  -9.230 -24.035  0.00  0.00    -0.301 NA
ATOM     24  N   UNL     1      35.481 -10.433 -25.233  0.00  0.00    -0.320 N 
ATOM     25  C   UNL     1      32.991 -11.620 -23.042  0.00  0.00    +0.191 C 
ATOM     26  C   UNL     1      32.345 -10.485 -22.647  0.00  0.00    +0.183 C 
ATOM     27  C   UNL     1      31.382 -12.100 -21.662  0.00  0.00    +0.205 C 
ATOM     28  C   UNL     1      32.764  -9.190 -23.148  0.00  0.00    +0.224 C 
ATOM     29  C   UNL     1      34.419 -10.372 -24.368  0.00  0.00    +0.245 C 
ATOM     30  H   UNL     1      34.475 -12.451 -24.163  0.00  0.00    +0.152 HD
ATOM     31  H   UNL     1      35.884 -11.303 -25.459  0.00  0.00    +0.146 HD
ATOM     32  H   UNL     1      35.842  -9.606 -25.628  0.00  0.00    +0.146 HD
ENDBRANCH  18  20
ENDBRANCH   1  18
TORSDOF 11
ENDMDL
MODEL 5
REMARK VINA RESULT:      -8.4      2.632      4.096
REMARK  Name = 64147
REMARK  11 active torsions:
REMARK  status: ('A' for Active; 'I' for Inactive)
REMARK    1  A    between atoms: O_1  and  C_2
REMARK    2  A    between atoms: O_1  and  C_18
REMARK    3  A    between atoms: C_2  and  C_3
REMARK    4  A    between atoms: C_2  and  C_15
REMARK    5  A    between atoms: C_3  and  O_4
REMARK    6  A    between atoms: O_4  and  C_6
REMARK    7  A    between atoms: C_6  and  C_7
REMARK    8  A    between atoms: C_7  and  N_8
REMARK    9  A    between atoms: C_7  and  C_12
REMARK   10  A    between atoms: C_15  and  O_16
REMARK   11  A    between atoms: C_18  and  N_20
REMARK                            x       y       z     vdW  Elec       q    Type
REMARK                         _______ _______ _______ _____ _____    ______ ____
ROOT
ATOM      1  O   UNL     1      35.252 -23.252 -17.086  0.00  0.00    -0.333 OA
ENDROOT
BRANCH   1   2
ATOM      2  C   UNL     1      34.862 -22.241 -18.019  0.00  0.00    +0.190 C 
BRANCH   2   3
ATOM      3  C   UNL     1      36.101 -21.757 -18.763  0.00  0.00    +0.240 C 
BRANCH   3   4
ATOM      4  O   UNL     1      35.765 -21.457 -20.122  0.00  0.00    -0.447 OA
BRANCH   4   6
ATOM      5  O   UNL     1      36.885 -19.443 -20.121  0.00  0.00    -0.252 OA
ATOM      6  C   UNL     1      35.974 -20.162 -20.508  0.00  0.00    +0.296 C 
BRANCH   6   7
ATOM      7  C   UNL     1      34.895 -19.754 -21.501  0.00  0.00    +0.036 C 
BRANCH   7   8
ATOM      8  N   UNL     1      33.616 -19.688 -20.792  0.00  0.00    +0.389 N 
ATOM      9  H   UNL     1      33.638 -18.920 -20.122  0.00  0.00    -0.088 HD
ATOM     10  H   UNL     1      33.457 -20.566 -20.299  0.00  0.00    -0.088 HD
ATOM     11  H   UNL     1      32.864 -19.534 -21.463  0.00  0.00    -0.088 HD
ENDBRANCH   7   8
BRANCH   7  12
ATOM     12  C   UNL     1      35.251 -18.435 -22.226  0.00  0.00    -0.010 C 
ATOM     13  C   UNL     1      34.557 -17.236 -21.571  0.00  0.00    -0.002 C 
ATOM     14  C   UNL     1      34.940 -18.456 -23.728  0.00  0.00    -0.002 C 
ENDBRANCH   7  12
ENDBRANCH   6   7
ENDBRANCH   4   6
ENDBRANCH   3   4
ENDBRANCH   2   3
BRANCH   2  15
ATOM     15  C   UNL     1      33.842 -22.849 -18.972  0.00  0.00    +0.171 C 
BRANCH  15  16
ATOM     16  O   UNL     1      32.699 -22.002 -19.028  0.00  0.00    -0.379 OA
ATOM     17  H   UNL     1      32.984 -21.081 -19.136  0.00  0.00    +0.211 HD
ENDBRANCH  15  16
ENDBRANCH   2  15
ENDBRANCH   1   2
BRANCH   1  18
ATOM     18  C   UNL     1      35.489 -22.699 -15.802  0.00  0.00    +0.223 C 
BRANCH  18  20
ATOM     19  O   UNL     1      30.832 -24.831 -12.810  0.00  0.00    -0.208 OA
ATOM     20  N   UNL     1      34.524 -23.298 -14.892  0.00  0.00    -0.206 NA
ATOM     21  N   UNL     1      32.410 -22.928 -16.030  0.00  0.00    -0.279 N 
ATOM     22  N   UNL     1      33.728 -24.351 -13.093  0.00  0.00    -0.241 NA
ATOM     23  N   UNL     1      30.501 -23.778 -14.848  0.00  0.00    -0.301 NA
ATOM     24  N   UNL     1      30.294 -22.688 -16.927  0.00  0.00    -0.320 N 
ATOM     25  C   UNL     1      33.190 -23.369 -15.040  0.00  0.00    +0.191 C 
ATOM     26  C   UNL     1      32.709 -24.014 -13.938  0.00  0.00    +0.183 C 
ATOM     27  C   UNL     1      34.815 -23.904 -13.699  0.00  0.00    +0.205 C 
ATOM     28  C   UNL     1      31.286 -24.254 -13.791  0.00  0.00    +0.224 C 
ATOM     29  C   UNL     1      31.045 -23.163 -15.882  0.00  0.00    +0.245 C 
ATOM     30  H   UNL     1      32.778 -22.465 -16.818  0.00  0.00    +0.152 HD
ATOM     31  H   UNL     1      30.733 -22.234 -17.683  0.00  0.00    +0.146 HD
ATOM     32  H   UNL     1      29.316 -22.801 -16.922  0.00  0.00    +0.146 HD
ENDBRANCH  18  20
ENDBRANCH   1  18
TORSDOF 11
ENDMDL
MODEL 6
REMARK VINA RESULT:      -8.4      7.442     11.171
REMARK  Name = 64147
REMARK  11 active torsions:
REMARK  status: ('A' for Active; 'I' for Inactive)
REMARK    1  A    between atoms: O_1  and  C_2
REMARK    2  A    between atoms: O_1  and  C_18
REMARK    3  A    between atoms: C_2  and  C_3
REMARK    4  A    between atoms: C_2  and  C_15
REMARK    5  A    between atoms: C_3  and  O_4
REMARK    6  A    between atoms: O_4  and  C_6
REMARK    7  A    between atoms: C_6  and  C_7
REMARK    8  A    between atoms: C_7  and  N_8
REMARK    9  A    between atoms: C_7  and  C_12
REMARK   10  A    between atoms: C_15  and  O_16
REMARK   11  A    between atoms: C_18  and  N_20
REMARK                            x       y       z     vdW  Elec       q    Type
REMARK                         _______ _______ _______ _____ _____    ______ ____
ROOT
ATOM      1  O   UNL     1      33.173 -14.472 -23.970  0.00  0.00    -0.333 OA
ENDROOT
BRANCH   1   2
ATOM      2  C   UNL     1      32.980 -13.513 -25.012  0.00  0.00    +0.190 C 
BRANCH   2   3
ATOM      3  C   UNL     1      34.074 -12.457 -24.916  0.00  0.00    +0.240 C 
BRANCH   3   4
ATOM      4  O   UNL     1      33.492 -11.150 -24.945  0.00  0.00    -0.447 OA
BRANCH   4   6
ATOM      5  O   UNL     1      35.389 -10.108 -24.154  0.00  0.00    -0.252 OA
ATOM      6  C   UNL     1      34.171 -10.186 -24.253  0.00  0.00    +0.296 C 
BRANCH   6   7
ATOM      7  C   UNL     1      33.176  -9.221 -23.625  0.00  0.00    +0.036 C 
BRANCH   7   8
ATOM      8  N   UNL     1      32.441  -9.932 -22.578  0.00  0.00    +0.389 N 
ATOM      9  H   UNL     1      32.471 -10.935 -22.763  0.00  0.00    -0.088 HD
ATOM     10  H   UNL     1      31.472  -9.616 -22.570  0.00  0.00    -0.088 HD
ATOM     11  H   UNL     1      32.870  -9.740 -21.673  0.00  0.00    -0.088 HD
ENDBRANCH   7   8
BRANCH   7  12
ATOM     12  C   UNL     1      33.867  -7.936 -23.113  0.00  0.00    -0.010 C 
ATOM     13  C   UNL     1      32.957  -7.164 -22.150  0.00  0.00    -0.002 C 
ATOM     14  C   UNL     1      34.341  -7.004 -24.234  0.00  0.00    -0.002 C 
ENDBRANCH   7  12
ENDBRANCH   6   7
ENDBRANCH   4   6
ENDBRANCH   3   4
ENDBRANCH   2   3
BRANCH   2  15
ATOM     15  C   UNL     1      33.033 -14.250 -26.344  0.00  0.00    +0.171 C 
BRANCH  15  16
ATOM     16  O   UNL     1      33.765 -15.460 -26.175  0.00  0.00    -0.379 OA
ATOM     17  H   UNL     1      34.704 -15.298 -26.356  0.00  0.00    +0.211 HD
ENDBRANCH  15  16
ENDBRANCH   2  15
ENDBRANCH   1   2
BRANCH   1  18
ATOM     18  C   UNL     1      33.986 -13.944 -22.935  0.00  0.00    +0.223 C 
BRANCH  18  20
ATOM     19  O   UNL     1      35.613 -19.066 -20.424  0.00  0.00    -0.208 OA
ATOM     20  N   UNL     1      34.396 -15.062 -22.097  0.00  0.00    -0.206 NA
ATOM     21  N   UNL     1      34.514 -16.902 -23.679  0.00  0.00    -0.279 N 
ATOM     22  N   UNL     1      34.994 -16.187 -20.265  0.00  0.00    -0.241 NA
ATOM     23  N   UNL     1      35.170 -18.993 -22.698  0.00  0.00    -0.301 NA
ATOM     24  N   UNL     1      34.692 -18.792 -24.997  0.00  0.00    -0.320 N 
ATOM     25  C   UNL     1      34.612 -16.334 -22.474  0.00  0.00    +0.191 C 
ATOM     26  C   UNL     1      34.976 -17.018 -21.351  0.00  0.00    +0.183 C 
ATOM     27  C   UNL     1      34.638 -15.010 -20.751  0.00  0.00    +0.205 C 
ATOM     28  C   UNL     1      35.283 -18.433 -21.420  0.00  0.00    +0.224 C 
ATOM     29  C   UNL     1      34.810 -18.262 -23.737  0.00  0.00    +0.245 C 
ATOM     30  H   UNL     1      34.248 -16.390 -24.477  0.00  0.00    +0.152 HD
ATOM     31  H   UNL     1      34.421 -18.217 -25.750  0.00  0.00    +0.146 HD
ATOM     32  H   UNL     1      34.877 -19.746 -25.149  0.00  0.00    +0.146 HD
ENDBRANCH  18  20
ENDBRANCH   1  18
TORSDOF 11
ENDMDL
MODEL 7
REMARK VINA RESULT:      -8.4      8.138     13.644
REMARK  Name = 64147
REMARK  11 active torsions:
REMARK  status: ('A' for Active; 'I' for Inactive)
REMARK    1  A    between atoms: O_1  and  C_2
REMARK    2  A    between atoms: O_1  and  C_18
REMARK    3  A    between atoms: C_2  and  C_3
REMARK    4  A    between atoms: C_2  and  C_15
REMARK    5  A    between atoms: C_3  and  O_4
REMARK    6  A    between atoms: O_4  and  C_6
REMARK    7  A    between atoms: C_6  and  C_7
REMARK    8  A    between atoms: C_7  and  N_8
REMARK    9  A    between atoms: C_7  and  C_12
REMARK   10  A    between atoms: C_15  and  O_16
REMARK   11  A    between atoms: C_18  and  N_20
REMARK                            x       y       z     vdW  Elec       q    Type
REMARK                         _______ _______ _______ _____ _____    ______ ____
ROOT
ATOM      1  O   UNL     1      32.262 -12.186 -22.610  0.00  0.00    -0.333 OA
ENDROOT
BRANCH   1   2
ATOM      2  C   UNL     1      32.591 -13.576 -22.665  0.00  0.00    +0.190 C 
BRANCH   2   3
ATOM      3  C   UNL     1      33.971 -13.728 -23.294  0.00  0.00    +0.240 C 
BRANCH   3   4
ATOM      4  O   UNL     1      34.671 -14.812 -22.675  0.00  0.00    -0.447 OA
BRANCH   4   6
ATOM      5  O   UNL     1      34.422 -16.087 -24.578  0.00  0.00    -0.252 OA
ATOM      6  C   UNL     1      34.713 -15.973 -23.394  0.00  0.00    +0.296 C 
BRANCH   6   7
ATOM      7  C   UNL     1      35.183 -17.107 -22.493  0.00  0.00    +0.036 C 
BRANCH   7   8
ATOM      8  N   UNL     1      35.018 -16.688 -21.101  0.00  0.00    +0.389 N 
ATOM      9  H   UNL     1      35.502 -17.346 -20.489  0.00  0.00    -0.088 HD
ATOM     10  H   UNL     1      34.026 -16.672 -20.866  0.00  0.00    -0.088 HD
ATOM     11  H   UNL     1      35.412 -15.756 -20.978  0.00  0.00    -0.088 HD
ENDBRANCH   7   8
BRANCH   7  12
ATOM     12  C   UNL     1      34.458 -18.434 -22.815  0.00  0.00    -0.010 C 
ATOM     13  C   UNL     1      34.384 -19.339 -21.579  0.00  0.00    -0.002 C 
ATOM     14  C   UNL     1      35.081 -19.207 -23.983  0.00  0.00    -0.002 C 
ENDBRANCH   7  12
ENDBRANCH   6   7
ENDBRANCH   4   6
ENDBRANCH   3   4
ENDBRANCH   2   3
BRANCH   2  15
ATOM     15  C   UNL     1      32.564 -14.123 -21.244  0.00  0.00    +0.171 C 
BRANCH  15  16
ATOM     16  O   UNL     1      32.107 -15.471 -21.275  0.00  0.00    -0.379 OA
ATOM     17  H   UNL     1      32.475 -15.919 -22.053  0.00  0.00    +0.211 HD
ENDBRANCH  15  16
ENDBRANCH   2  15
ENDBRANCH   1   2
BRANCH   1  18
ATOM     18  C   UNL     1      31.235 -11.941 -21.664  0.00  0.00    +0.223 C 
BRANCH  18  20
ATOM     19  O   UNL     1      32.929  -6.746 -19.356  0.00  0.00    -0.208 OA
ATOM     20  N   UNL     1      31.647 -10.793 -20.869  0.00  0.00    -0.206 NA
ATOM     21  N   UNL     1      31.890  -9.044 -22.537  0.00  0.00    -0.279 N 
ATOM     22  N   UNL     1      32.208  -9.592 -19.074  0.00  0.00    -0.241 NA
ATOM     23  N   UNL     1      32.574  -6.925 -21.640  0.00  0.00    -0.301 NA
ATOM     24  N   UNL     1      32.184  -7.234 -23.943  0.00  0.00    -0.320 N 
ATOM     25  C   UNL     1      31.921  -9.550 -21.302  0.00  0.00    +0.191 C 
ATOM     26  C   UNL     1      32.263  -8.821 -20.202  0.00  0.00    +0.183 C 
ATOM     27  C   UNL     1      31.832 -10.781 -19.513  0.00  0.00    +0.205 C 
ATOM     28  C   UNL     1      32.619  -7.421 -20.331  0.00  0.00    +0.224 C 
ATOM     29  C   UNL     1      32.232  -7.699 -22.654  0.00  0.00    +0.245 C 
ATOM     30  H   UNL     1      31.639  -9.589 -23.319  0.00  0.00    +0.152 HD
ATOM     31  H   UNL     1      31.925  -7.839 -24.676  0.00  0.00    +0.146 HD
ATOM     32  H   UNL     1      32.410  -6.296 -24.137  0.00  0.00    +0.146 HD
ENDBRANCH  18  20
ENDBRANCH   1  18
TORSDOF 11
ENDMDL
MODEL 8
REMARK VINA RESULT:      -8.4      3.535      5.279
REMARK  Name = 64147
REMARK  11 active torsions:
REMARK  status: ('A' for Active; 'I' for Inactive)
REMARK    1  A    between atoms: O_1  and  C_2
REMARK    2  A    between atoms: O_1  and  C_18
REMARK    3  A    between atoms: C_2  and  C_3
REMARK    4  A    between atoms: C_2  and  C_15
REMARK    5  A    between atoms: C_3  and  O_4
REMARK    6  A    between atoms: O_4  and  C_6
REMARK    7  A    between atoms: C_6  and  C_7
REMARK    8  A    between atoms: C_7  and  N_8
REMARK    9  A    between atoms: C_7  and  C_12
REMARK   10  A    between atoms: C_15  and  O_16
REMARK   11  A    between atoms: C_18  and  N_20
REMARK                            x       y       z     vdW  Elec       q    Type
REMARK                         _______ _______ _______ _____ _____    ______ ____
ROOT
ATOM      1  O   UNL     1      34.899 -22.612 -18.303  0.00  0.00    -0.333 OA
ENDROOT
BRANCH   1   2
ATOM      2  C   UNL     1      35.327 -22.011 -19.527  0.00  0.00    +0.190 C 
BRANCH   2   3
ATOM      3  C   UNL     1      34.334 -20.920 -19.910  0.00  0.00    +0.240 C 
BRANCH   3   4
ATOM      4  O   UNL     1      35.036 -19.712 -20.221  0.00  0.00    -0.447 OA
BRANCH   4   6
ATOM      5  O   UNL     1      33.900 -19.569 -22.220  0.00  0.00    -0.252 OA
ATOM      6  C   UNL     1      34.704 -19.127 -21.411  0.00  0.00    +0.296 C 
BRANCH   6   7
ATOM      7  C   UNL     1      35.489 -17.833 -21.572  0.00  0.00    +0.036 C 
BRANCH   7   8
ATOM      8  N   UNL     1      36.460 -18.013 -22.652  0.00  0.00    +0.389 N 
ATOM      9  H   UNL     1      37.056 -18.814 -22.443  0.00  0.00    -0.088 HD
ATOM     10  H   UNL     1      37.035 -17.175 -22.734  0.00  0.00    -0.088 HD
ATOM     11  H   UNL     1      35.966 -18.175 -23.529  0.00  0.00    -0.088 HD
ENDBRANCH   7   8
BRANCH   7  12
ATOM     12  C   UNL     1      34.558 -16.619 -21.794  0.00  0.00    -0.010 C 
ATOM     13  C   UNL     1      34.854 -15.929 -23.130  0.00  0.00    -0.002 C 
ATOM     14  C   UNL     1      34.608 -15.589 -20.659  0.00  0.00    -0.002 C 
ENDBRANCH   7  12
ENDBRANCH   6   7
ENDBRANCH   4   6
ENDBRANCH   3   4
ENDBRANCH   2   3
BRANCH   2  15
ATOM     15  C   UNL     1      36.723 -21.442 -19.309  0.00  0.00    +0.171 C 
BRANCH  15  16
ATOM     16  O   UNL     1      36.800 -20.897 -17.996  0.00  0.00    -0.379 OA
ATOM     17  H   UNL     1      37.160 -19.997 -18.040  0.00  0.00    +0.211 HD
ENDBRANCH  15  16
ENDBRANCH   2  15
ENDBRANCH   1   2
BRANCH   1  18
ATOM     18  C   UNL     1      33.493 -22.788 -18.284  0.00  0.00    +0.223 C 
BRANCH  18  20
ATOM     19  O   UNL     1      30.965 -23.816 -13.017  0.00  0.00    -0.208 OA
ATOM     20  N   UNL     1      33.115 -23.093 -16.912  0.00  0.00    -0.206 NA
ATOM     21  N   UNL     1      30.708 -22.774 -16.933  0.00  0.00    -0.279 N 
ATOM     22  N   UNL     1      33.334 -23.674 -14.768  0.00  0.00    -0.241 NA
ATOM     23  N   UNL     1      29.649 -23.181 -14.817  0.00  0.00    -0.301 NA
ATOM     24  N   UNL     1      28.420 -22.530 -16.719  0.00  0.00    -0.320 N 
ATOM     25  C   UNL     1      31.884 -23.071 -16.374  0.00  0.00    +0.191 C 
ATOM     26  C   UNL     1      32.023 -23.426 -15.064  0.00  0.00    +0.183 C 
ATOM     27  C   UNL     1      33.970 -23.464 -15.908  0.00  0.00    +0.205 C 
ATOM     28  C   UNL     1      30.863 -23.498 -14.196  0.00  0.00    +0.224 C 
ATOM     29  C   UNL     1      29.598 -22.846 -16.093  0.00  0.00    +0.245 C 
ATOM     30  H   UNL     1      30.629 -22.519 -17.881  0.00  0.00    +0.152 HD
ATOM     31  H   UNL     1      28.419 -22.284 -17.673  0.00  0.00    +0.146 HD
ATOM     32  H   UNL     1      27.574 -22.549 -16.215  0.00  0.00    +0.146 HD
ENDBRANCH  18  20
ENDBRANCH   1  18
TORSDOF 11
ENDMDL
MODEL 9
REMARK VINA RESULT:      -8.3      2.613      8.255
REMARK  Name = 64147
REMARK  11 active torsions:
REMARK  status: ('A' for Active; 'I' for Inactive)
REMARK    1  A    between atoms: O_1  and  C_2
REMARK    2  A    between atoms: O_1  and  C_18
REMARK    3  A    between atoms: C_2  and  C_3
REMARK    4  A    between atoms: C_2  and  C_15
REMARK    5  A    between atoms: C_3  and  O_4
REMARK    6  A    between atoms: O_4  and  C_6
REMARK    7  A    between atoms: C_6  and  C_7
REMARK    8  A    between atoms: C_7  and  N_8
REMARK    9  A    between atoms: C_7  and  C_12
REMARK   10  A    between atoms: C_15  and  O_16
REMARK   11  A    between atoms: C_18  and  N_20
REMARK                            x       y       z     vdW  Elec       q    Type
REMARK                         _______ _______ _______ _____ _____    ______ ____
ROOT
ATOM      1  O   UNL     1      34.689 -23.249 -14.895  0.00  0.00    -0.333 OA
ENDROOT
BRANCH   1   2
ATOM      2  C   UNL     1      34.351 -24.277 -13.961  0.00  0.00    +0.190 C 
BRANCH   2   3
ATOM      3  C   UNL     1      35.098 -24.020 -12.657  0.00  0.00    +0.240 C 
BRANCH   3   4
ATOM      4  O   UNL     1      35.820 -25.194 -12.271  0.00  0.00    -0.447 OA
BRANCH   4   6
ATOM      5  O   UNL     1      37.507 -24.205 -11.053  0.00  0.00    -0.252 OA
ATOM      6  C   UNL     1      37.122 -24.991 -11.908  0.00  0.00    +0.296 C 
BRANCH   6   7
ATOM      7  C   UNL     1      38.022 -25.901 -12.732  0.00  0.00    +0.036 C 
BRANCH   7   8
ATOM      8  N   UNL     1      37.176 -26.833 -13.480  0.00  0.00    +0.389 N 
ATOM      9  H   UNL     1      37.756 -27.569 -13.882  0.00  0.00    -0.088 HD
ATOM     10  H   UNL     1      36.697 -26.330 -14.227  0.00  0.00    -0.088 HD
ATOM     11  H   UNL     1      36.488 -27.246 -12.851  0.00  0.00    -0.088 HD
ENDBRANCH   7   8
BRANCH   7  12
ATOM     12  C   UNL     1      38.980 -25.094 -13.638  0.00  0.00    -0.010 C 
ATOM     13  C   UNL     1      38.241 -24.514 -14.849  0.00  0.00    -0.002 C 
ATOM     14  C   UNL     1      40.199 -25.895 -14.112  0.00  0.00    -0.002 C 
ENDBRANCH   7  12
ENDBRANCH   6   7
ENDBRANCH   4   6
ENDBRANCH   3   4
ENDBRANCH   2   3
BRANCH   2  15
ATOM     15  C   UNL     1      32.843 -24.247 -13.754  0.00  0.00    +0.171 C 
BRANCH  15  16
ATOM     16  O   UNL     1      32.507 -23.112 -12.962  0.00  0.00    -0.379 OA
ATOM     17  H   UNL     1      31.710 -23.305 -12.443  0.00  0.00    +0.211 HD
ENDBRANCH  15  16
ENDBRANCH   2  15
ENDBRANCH   1   2
BRANCH   1  18
ATOM     18  C   UNL     1      35.010 -23.795 -16.163  0.00  0.00    +0.223 C 
BRANCH  18  20
ATOM     19  O   UNL     1      32.474 -20.705 -20.545  0.00  0.00    -0.208 OA
ATOM     20  N   UNL     1      34.163 -23.132 -17.144  0.00  0.00    -0.206 NA
ATOM     21  N   UNL     1      35.769 -21.930 -18.514  0.00  0.00    -0.279 N 
ATOM     22  N   UNL     1      32.308 -22.500 -18.211  0.00  0.00    -0.241 NA
ATOM     23  N   UNL     1      34.779 -20.667 -20.300  0.00  0.00    -0.301 NA
ATOM     24  N   UNL     1      37.108 -20.708 -19.947  0.00  0.00    -0.320 N 
ATOM     25  C   UNL     1      34.547 -22.327 -18.150  0.00  0.00    +0.191 C 
ATOM     26  C   UNL     1      33.410 -21.943 -18.798  0.00  0.00    +0.183 C 
ATOM     27  C   UNL     1      32.798 -23.214 -17.212  0.00  0.00    +0.205 C 
ATOM     28  C   UNL     1      33.482 -21.061 -19.947  0.00  0.00    +0.224 C 
ATOM     29  C   UNL     1      35.830 -21.084 -19.619  0.00  0.00    +0.245 C 
ATOM     30  H   UNL     1      36.577 -22.219 -18.032  0.00  0.00    +0.152 HD
ATOM     31  H   UNL     1      37.870 -21.037 -19.417  0.00  0.00    +0.146 HD
ATOM     32  H   UNL     1      37.264 -20.108 -20.712  0.00  0.00    +0.146 HD
ENDBRANCH  18  20
ENDBRANCH   1  18
TORSDOF 11
ENDMDL
