MODEL 1
REMARK VINA RESULT:      -9.6      0.000      0.000
REMARK  Name = 16757521
REMARK  13 active torsions:
REMARK  status: ('A' for Active; 'I' for Inactive)
REMARK    1  A    between atoms: C_5  and  C_21
REMARK    2  A    between atoms: C_8  and  C_13
REMARK    3  A    between atoms: C_8  and  O_19
REMARK    4  A    between atoms: C_13  and  C_14
REMARK    5  A    between atoms: C_14  and  C_15
REMARK    6  A    between atoms: C_15  and  C_17
REMARK    7  A    between atoms: C_21  and  C_22
REMARK    8  A    between atoms: C_22  and  C_23
REMARK    9  A    between atoms: C_23  and  C_24
REMARK   10  A    between atoms: C_24  and  C_25
REMARK   11  A    between atoms: C_25  and  C_26
REMARK   12  A    between atoms: C_26  and  C_28
REMARK   13  A    between atoms: C_28  and  O_29
REMARK                            x       y       z     vdW  Elec       q    Type
REMARK                         _______ _______ _______ _____ _____    ______ ____
ROOT
ATOM      1  O   UNL     1      33.615 -15.525 -23.582  0.00  0.00    -0.332 OA
ATOM      2  O   UNL     1      35.121 -19.961 -24.389  0.00  0.00    -0.296 OA
ATOM      3  C   UNL     1      34.369 -17.337 -22.183  0.00  0.00    +0.035 C 
ATOM      4  C   UNL     1      34.542 -16.597 -23.507  0.00  0.00    +0.125 C 
ATOM      5  C   UNL     1      35.215 -18.594 -22.373  0.00  0.00    +0.060 C 
ATOM      6  C   UNL     1      34.732 -16.400 -21.044  0.00  0.00    +0.008 C 
ATOM      7  C   UNL     1      34.305 -17.688 -24.544  0.00  0.00    +0.094 C 
ATOM      8  C   UNL     1      33.858 -14.532 -22.565  0.00  0.00    +0.241 C 
ATOM      9  C   UNL     1      33.841 -15.154 -21.151  0.00  0.00    +0.062 C 
ATOM     10  C   UNL     1      34.908 -18.887 -23.838  0.00  0.00    +0.153 C 
ENDROOT
BRANCH   8  13
ATOM     11  F   UNL     1      31.871 -13.903 -23.619  0.00  0.00    -0.199 F 
ATOM     12  F   UNL     1      33.319 -12.343 -23.146  0.00  0.00    -0.199 F 
ATOM     13  C   UNL     1      32.755 -13.482 -22.686  0.00  0.00    +0.309 C 
BRANCH  13  14
ATOM     14  C   UNL     1      32.047 -13.240 -21.360  0.00  0.00    +0.072 C 
BRANCH  14  15
ATOM     15  C   UNL     1      31.859 -11.748 -21.000  0.00  0.00    +0.006 C 
ATOM     16  C   UNL     1      30.674 -11.112 -21.733  0.00  0.00    +0.000 C 
BRANCH  15  17
ATOM     17  C   UNL     1      31.666 -11.556 -19.480  0.00  0.00    +0.000 C 
ATOM     18  C   UNL     1      31.258 -10.144 -19.081  0.00  0.00    +0.000 C 
ENDBRANCH  15  17
ENDBRANCH  14  15
ENDBRANCH  13  14
ENDBRANCH   8  13
BRANCH   8  19
ATOM     19  O   UNL     1      35.121 -13.886 -22.750  0.00  0.00    -0.360 OA
ATOM     20  H   UNL     1      35.828 -14.450 -22.397  0.00  0.00    +0.213 HD
ENDBRANCH   8  19
BRANCH   5  21
ATOM     21  C   UNL     1      34.821 -19.729 -21.450  0.00  0.00    +0.007 C 
BRANCH  21  22
ATOM     22  C   UNL     1      33.344 -19.645 -21.051  0.00  0.00    +0.000 C 
BRANCH  22  23
ATOM     23  C   UNL     1      33.038 -20.548 -19.855  0.00  0.00    +0.000 C 
BRANCH  23  24
ATOM     24  C   UNL     1      33.807 -21.872 -19.876  0.00  0.00    +0.001 C 
BRANCH  24  25
ATOM     25  C   UNL     1      34.622 -22.191 -18.619  0.00  0.00    +0.012 C 
BRANCH  25  26
ATOM     26  C   UNL     1      36.053 -21.660 -18.669  0.00  0.00    +0.109 C 
BRANCH  26  28
ATOM     27  O   UNL     1      36.789 -22.832 -16.666  0.00  0.00    -0.250 OA
ATOM     28  C   UNL     1      36.758 -21.813 -17.341  0.00  0.00    +0.314 C 
BRANCH  28  29
ATOM     29  O   UNL     1      37.376 -20.660 -16.971  0.00  0.00    -0.480 OA
ATOM     30  H   UNL     1      37.970 -20.238 -17.560  0.00  0.00    +0.295 HD
ENDBRANCH  28  29
ENDBRANCH  26  28
ENDBRANCH  25  26
ENDBRANCH  24  25
ENDBRANCH  23  24
ENDBRANCH  22  23
ENDBRANCH  21  22
ENDBRANCH   5  21
TORSDOF 13
ENDMDL
MODEL 2
REMARK VINA RESULT:      -9.5      3.888      6.009
REMARK  Name = 16757521
REMARK  13 active torsions:
REMARK  status: ('A' for Active; 'I' for Inactive)
REMARK    1  A    between atoms: C_5  and  C_21
REMARK    2  A    between atoms: C_8  and  C_13
REMARK    3  A    between atoms: C_8  and  O_19
REMARK    4  A    between atoms: C_13  and  C_14
REMARK    5  A    between atoms: C_14  and  C_15
REMARK    6  A    between atoms: C_15  and  C_17
REMARK    7  A    between atoms: C_21  and  C_22
REMARK    8  A    between atoms: C_22  and  C_23
REMARK    9  A    between atoms: C_23  and  C_24
REMARK   10  A    between atoms: C_24  and  C_25
REMARK   11  A    between atoms: C_25  and  C_26
REMARK   12  A    between atoms: C_26  and  C_28
REMARK   13  A    between atoms: C_28  and  O_29
REMARK                            x       y       z     vdW  Elec       q    Type
REMARK                         _______ _______ _______ _____ _____    ______ ____
ROOT
ATOM      1  O   UNL     1      35.901 -19.344 -21.486  0.00  0.00    -0.332 OA
ATOM      2  O   UNL     1      36.672 -22.413 -17.939  0.00  0.00    -0.296 OA
ATOM      3  C   UNL     1      34.506 -20.830 -20.201  0.00  0.00    +0.035 C 
ATOM      4  C   UNL     1      35.698 -19.878 -20.187  0.00  0.00    +0.125 C 
ATOM      5  C   UNL     1      34.592 -21.517 -18.840  0.00  0.00    +0.060 C 
ATOM      6  C   UNL     1      33.247 -20.041 -20.521  0.00  0.00    +0.008 C 
ATOM      7  C   UNL     1      36.839 -20.763 -19.701  0.00  0.00    +0.094 C 
ATOM      8  C   UNL     1      34.785 -18.538 -21.916  0.00  0.00    +0.241 C 
ATOM      9  C   UNL     1      33.460 -19.333 -21.866  0.00  0.00    +0.062 C 
ATOM     10  C   UNL     1      36.106 -21.662 -18.725  0.00  0.00    +0.153 C 
ENDROOT
BRANCH   8  13
ATOM     11  F   UNL     1      34.112 -18.608 -24.152  0.00  0.00    -0.199 F 
ATOM     12  F   UNL     1      36.250 -18.648 -23.723  0.00  0.00    -0.199 F 
ATOM     13  C   UNL     1      35.073 -18.096 -23.350  0.00  0.00    +0.309 C 
BRANCH  13  14
ATOM     14  C   UNL     1      35.119 -16.580 -23.484  0.00  0.00    +0.072 C 
BRANCH  14  15
ATOM     15  C   UNL     1      33.824 -15.950 -24.048  0.00  0.00    +0.006 C 
ATOM     16  C   UNL     1      33.534 -14.570 -23.451  0.00  0.00    +0.000 C 
BRANCH  15  17
ATOM     17  C   UNL     1      33.884 -15.825 -25.586  0.00  0.00    +0.000 C 
ATOM     18  C   UNL     1      32.999 -14.721 -26.152  0.00  0.00    +0.000 C 
ENDBRANCH  15  17
ENDBRANCH  14  15
ENDBRANCH  13  14
ENDBRANCH   8  13
BRANCH   8  19
ATOM     19  O   UNL     1      34.633 -17.371 -21.103  0.00  0.00    -0.360 OA
ATOM     20  H   UNL     1      33.788 -17.416 -20.628  0.00  0.00    +0.213 HD
ENDBRANCH   8  19
BRANCH   5  21
ATOM     21  C   UNL     1      33.868 -22.848 -18.791  0.00  0.00    +0.007 C 
BRANCH  21  22
ATOM     22  C   UNL     1      33.486 -23.230 -17.358  0.00  0.00    +0.000 C 
BRANCH  22  23
ATOM     23  C   UNL     1      32.041 -22.839 -17.043  0.00  0.00    +0.000 C 
BRANCH  23  24
ATOM     24  C   UNL     1      31.588 -23.256 -15.640  0.00  0.00    +0.001 C 
BRANCH  24  25
ATOM     25  C   UNL     1      30.133 -22.934 -15.286  0.00  0.00    +0.012 C 
BRANCH  25  26
ATOM     26  C   UNL     1      29.131 -23.931 -15.864  0.00  0.00    +0.109 C 
BRANCH  26  28
ATOM     27  O   UNL     1      27.516 -23.919 -17.686  0.00  0.00    -0.250 OA
ATOM     28  C   UNL     1      28.292 -23.315 -16.960  0.00  0.00    +0.314 C 
BRANCH  28  29
ATOM     29  O   UNL     1      28.497 -21.974 -17.046  0.00  0.00    -0.480 OA
ATOM     30  H   UNL     1      28.764 -21.593 -17.860  0.00  0.00    +0.295 HD
ENDBRANCH  28  29
ENDBRANCH  26  28
ENDBRANCH  25  26
ENDBRANCH  24  25
ENDBRANCH  23  24
ENDBRANCH  22  23
ENDBRANCH  21  22
ENDBRANCH   5  21
TORSDOF 13
ENDMDL
MODEL 3
REMARK VINA RESULT:      -9.4      2.919      5.132
REMARK  Name = 16757521
REMARK  13 active torsions:
REMARK  status: ('A' for Active; 'I' for Inactive)
REMARK    1  A    between atoms: C_5  and  C_21
REMARK    2  A    between atoms: C_8  and  C_13
REMARK    3  A    between atoms: C_8  and  O_19
REMARK    4  A    between atoms: C_13  and  C_14
REMARK    5  A    between atoms: C_14  and  C_15
REMARK    6  A    between atoms: C_15  and  C_17
REMARK    7  A    between atoms: C_21  and  C_22
REMARK    8  A    between atoms: C_22  and  C_23
REMARK    9  A    between atoms: C_23  and  C_24
REMARK   10  A    between atoms: C_24  and  C_25
REMARK   11  A    between atoms: C_25  and  C_26
REMARK   12  A    between atoms: C_26  and  C_28
REMARK   13  A    between atoms: C_28  and  O_29
REMARK                            x       y       z     vdW  Elec       q    Type
REMARK                         _______ _______ _______ _____ _____    ______ ____
ROOT
ATOM      1  O   UNL     1      33.947 -19.103 -21.244  0.00  0.00    -0.332 OA
ATOM      2  O   UNL     1      32.611 -22.634 -18.356  0.00  0.00    -0.296 OA
ATOM      3  C   UNL     1      35.099 -20.564 -19.713  0.00  0.00    +0.035 C 
ATOM      4  C   UNL     1      33.980 -20.430 -20.742  0.00  0.00    +0.125 C 
ATOM      5  C   UNL     1      34.828 -21.928 -19.080  0.00  0.00    +0.060 C 
ATOM      6  C   UNL     1      36.435 -20.355 -20.406  0.00  0.00    +0.008 C 
ATOM      7  C   UNL     1      32.738 -20.820 -19.952  0.00  0.00    +0.094 C 
ATOM      8  C   UNL     1      35.154 -18.768 -21.959  0.00  0.00    +0.241 C 
ATOM      9  C   UNL     1      36.409 -18.976 -21.080  0.00  0.00    +0.062 C 
ATOM     10  C   UNL     1      33.305 -21.890 -19.039  0.00  0.00    +0.153 C 
ENDROOT
BRANCH   8  13
ATOM     11  F   UNL     1      34.146 -17.212 -23.379  0.00  0.00    -0.199 F 
ATOM     12  F   UNL     1      36.244 -16.919 -22.859  0.00  0.00    -0.199 F 
ATOM     13  C   UNL     1      35.043 -17.301 -22.370  0.00  0.00    +0.309 C 
BRANCH  13  14
ATOM     14  C   UNL     1      34.622 -16.410 -21.210  0.00  0.00    +0.072 C 
BRANCH  14  15
ATOM     15  C   UNL     1      33.533 -15.371 -21.566  0.00  0.00    +0.006 C 
ATOM     16  C   UNL     1      32.676 -14.981 -20.358  0.00  0.00    +0.000 C 
BRANCH  15  17
ATOM     17  C   UNL     1      34.153 -14.092 -22.170  0.00  0.00    +0.000 C 
ATOM     18  C   UNL     1      33.933 -13.946 -23.670  0.00  0.00    +0.000 C 
ENDBRANCH  15  17
ENDBRANCH  14  15
ENDBRANCH  13  14
ENDBRANCH   8  13
BRANCH   8  19
ATOM     19  O   UNL     1      35.304 -19.560 -23.140  0.00  0.00    -0.360 OA
ATOM     20  H   UNL     1      36.173 -19.992 -23.132  0.00  0.00    +0.213 HD
ENDBRANCH   8  19
BRANCH   5  21
ATOM     21  C   UNL     1      35.450 -22.087 -17.707  0.00  0.00    +0.007 C 
BRANCH  21  22
ATOM     22  C   UNL     1      36.975 -21.956 -17.760  0.00  0.00    +0.000 C 
BRANCH  22  23
ATOM     23  C   UNL     1      37.607 -22.253 -16.398  0.00  0.00    +0.000 C 
BRANCH  23  24
ATOM     24  C   UNL     1      36.652 -22.942 -15.419  0.00  0.00    +0.001 C 
BRANCH  24  25
ATOM     25  C   UNL     1      37.173 -24.229 -14.773  0.00  0.00    +0.012 C 
BRANCH  25  26
ATOM     26  C   UNL     1      36.301 -25.450 -15.058  0.00  0.00    +0.109 C 
BRANCH  26  28
ATOM     27  O   UNL     1      38.061 -27.068 -14.596  0.00  0.00    -0.250 OA
ATOM     28  C   UNL     1      37.130 -26.692 -15.294  0.00  0.00    +0.314 C 
BRANCH  28  29
ATOM     29  O   UNL     1      36.710 -27.367 -16.396  0.00  0.00    -0.480 OA
ATOM     30  H   UNL     1      37.329 -27.832 -16.925  0.00  0.00    +0.295 HD
ENDBRANCH  28  29
ENDBRANCH  26  28
ENDBRANCH  25  26
ENDBRANCH  24  25
ENDBRANCH  23  24
ENDBRANCH  22  23
ENDBRANCH  21  22
ENDBRANCH   5  21
TORSDOF 13
ENDMDL
MODEL 4
REMARK VINA RESULT:      -9.3      5.368     10.872
REMARK  Name = 16757521
REMARK  13 active torsions:
REMARK  status: ('A' for Active; 'I' for Inactive)
REMARK    1  A    between atoms: C_5  and  C_21
REMARK    2  A    between atoms: C_8  and  C_13
REMARK    3  A    between atoms: C_8  and  O_19
REMARK    4  A    between atoms: C_13  and  C_14
REMARK    5  A    between atoms: C_14  and  C_15
REMARK    6  A    between atoms: C_15  and  C_17
REMARK    7  A    between atoms: C_21  and  C_22
REMARK    8  A    between atoms: C_22  and  C_23
REMARK    9  A    between atoms: C_23  and  C_24
REMARK   10  A    between atoms: C_24  and  C_25
REMARK   11  A    between atoms: C_25  and  C_26
REMARK   12  A    between atoms: C_26  and  C_28
REMARK   13  A    between atoms: C_28  and  O_29
REMARK                            x       y       z     vdW  Elec       q    Type
REMARK                         _______ _______ _______ _____ _____    ______ ____
ROOT
ATOM      1  O   UNL     1      34.726 -23.699 -16.482  0.00  0.00    -0.332 OA
ATOM      2  O   UNL     1      32.895 -21.640 -20.355  0.00  0.00    -0.296 OA
ATOM      3  C   UNL     1      35.580 -22.204 -18.168  0.00  0.00    +0.035 C 
ATOM      4  C   UNL     1      34.383 -22.595 -17.306  0.00  0.00    +0.125 C 
ATOM      5  C   UNL     1      34.981 -21.218 -19.169  0.00  0.00    +0.060 C 
ATOM      6  C   UNL     1      36.698 -21.710 -17.266  0.00  0.00    +0.008 C 
ATOM      7  C   UNL     1      33.306 -22.908 -18.336  0.00  0.00    +0.094 C 
ATOM      8  C   UNL     1      35.769 -23.366 -15.544  0.00  0.00    +0.241 C 
ATOM      9  C   UNL     1      37.026 -22.825 -16.262  0.00  0.00    +0.062 C 
ATOM     10  C   UNL     1      33.633 -21.889 -19.410  0.00  0.00    +0.153 C 
ENDROOT
BRANCH   8  13
ATOM     11  F   UNL     1      35.388 -25.657 -15.302  0.00  0.00    -0.199 F 
ATOM     12  F   UNL     1      35.716 -24.476 -13.498  0.00  0.00    -0.199 F 
ATOM     13  C   UNL     1      36.114 -24.643 -14.779  0.00  0.00    +0.309 C 
BRANCH  13  14
ATOM     14  C   UNL     1      37.600 -24.968 -14.849  0.00  0.00    +0.072 C 
BRANCH  14  15
ATOM     15  C   UNL     1      38.285 -25.113 -13.470  0.00  0.00    +0.006 C 
ATOM     16  C   UNL     1      37.656 -26.216 -12.614  0.00  0.00    +0.000 C 
BRANCH  15  17
ATOM     17  C   UNL     1      39.796 -25.401 -13.621  0.00  0.00    +0.000 C 
ATOM     18  C   UNL     1      40.255 -25.550 -15.065  0.00  0.00    +0.000 C 
ENDBRANCH  15  17
ENDBRANCH  14  15
ENDBRANCH  13  14
ENDBRANCH   8  13
BRANCH   8  19
ATOM     19  O   UNL     1      35.336 -22.378 -14.604  0.00  0.00    -0.360 OA
ATOM     20  H   UNL     1      35.833 -21.556 -14.747  0.00  0.00    +0.213 HD
ENDBRANCH   8  19
BRANCH   5  21
ATOM     21  C   UNL     1      35.802 -21.074 -20.435  0.00  0.00    +0.007 C 
BRANCH  21  22
ATOM     22  C   UNL     1      36.216 -19.620 -20.676  0.00  0.00    +0.000 C 
BRANCH  22  23
ATOM     23  C   UNL     1      35.032 -18.773 -21.147  0.00  0.00    +0.000 C 
BRANCH  23  24
ATOM     24  C   UNL     1      34.455 -19.225 -22.492  0.00  0.00    +0.001 C 
BRANCH  24  25
ATOM     25  C   UNL     1      35.295 -18.884 -23.727  0.00  0.00    +0.012 C 
BRANCH  25  26
ATOM     26  C   UNL     1      34.591 -17.939 -24.699  0.00  0.00    +0.109 C 
BRANCH  26  28
ATOM     27  O   UNL     1      33.695 -15.706 -24.324  0.00  0.00    -0.250 OA
ATOM     28  C   UNL     1      34.609 -16.509 -24.206  0.00  0.00    +0.314 C 
BRANCH  28  29
ATOM     29  O   UNL     1      35.786 -16.210 -23.596  0.00  0.00    -0.480 OA
ATOM     30  H   UNL     1      36.007 -15.316 -23.418  0.00  0.00    +0.295 HD
ENDBRANCH  28  29
ENDBRANCH  26  28
ENDBRANCH  25  26
ENDBRANCH  24  25
ENDBRANCH  23  24
ENDBRANCH  22  23
ENDBRANCH  21  22
ENDBRANCH   5  21
TORSDOF 13
ENDMDL
MODEL 5
REMARK VINA RESULT:      -9.3      5.676      8.822
REMARK  Name = 16757521
REMARK  13 active torsions:
REMARK  status: ('A' for Active; 'I' for Inactive)
REMARK    1  A    between atoms: C_5  and  C_21
REMARK    2  A    between atoms: C_8  and  C_13
REMARK    3  A    between atoms: C_8  and  O_19
REMARK    4  A    between atoms: C_13  and  C_14
REMARK    5  A    between atoms: C_14  and  C_15
REMARK    6  A    between atoms: C_15  and  C_17
REMARK    7  A    between atoms: C_21  and  C_22
REMARK    8  A    between atoms: C_22  and  C_23
REMARK    9  A    between atoms: C_23  and  C_24
REMARK   10  A    between atoms: C_24  and  C_25
REMARK   11  A    between atoms: C_25  and  C_26
REMARK   12  A    between atoms: C_26  and  C_28
REMARK   13  A    between atoms: C_28  and  O_29
REMARK                            x       y       z     vdW  Elec       q    Type
REMARK                         _______ _______ _______ _____ _____    ______ ____
ROOT
ATOM      1  O   UNL     1      32.444 -22.555 -17.938  0.00  0.00    -0.332 OA
ATOM      2  O   UNL     1      31.014 -24.463 -13.825  0.00  0.00    -0.296 OA
ATOM      3  C   UNL     1      33.547 -23.185 -15.890  0.00  0.00    +0.035 C 
ATOM      4  C   UNL     1      32.457 -23.525 -16.902  0.00  0.00    +0.125 C 
ATOM      5  C   UNL     1      33.253 -24.132 -14.729  0.00  0.00    +0.060 C 
ATOM      6  C   UNL     1      34.902 -23.292 -16.570  0.00  0.00    +0.008 C 
ATOM      7  C   UNL     1      31.192 -23.536 -16.053  0.00  0.00    +0.094 C 
ATOM      8  C   UNL     1      33.670 -22.560 -18.695  0.00  0.00    +0.241 C 
ATOM      9  C   UNL     1      34.900 -22.351 -17.783  0.00  0.00    +0.062 C 
ATOM     10  C   UNL     1      31.729 -24.092 -14.749  0.00  0.00    +0.153 C 
ENDROOT
BRANCH   8  13
ATOM     11  F   UNL     1      32.857 -20.421 -19.163  0.00  0.00    -0.199 F 
ATOM     12  F   UNL     1      32.886 -21.884 -20.780  0.00  0.00    -0.199 F 
ATOM     13  C   UNL     1      33.578 -21.425 -19.714  0.00  0.00    +0.309 C 
BRANCH  13  14
ATOM     14  C   UNL     1      34.951 -20.919 -20.134  0.00  0.00    +0.072 C 
BRANCH  14  15
ATOM     15  C   UNL     1      34.951 -19.486 -20.716  0.00  0.00    +0.006 C 
ATOM     16  C   UNL     1      36.366 -18.945 -20.940  0.00  0.00    +0.000 C 
BRANCH  15  17
ATOM     17  C   UNL     1      34.177 -19.422 -22.052  0.00  0.00    +0.000 C 
ATOM     18  C   UNL     1      35.043 -19.059 -23.252  0.00  0.00    +0.000 C 
ENDBRANCH  15  17
ENDBRANCH  14  15
ENDBRANCH  13  14
ENDBRANCH   8  13
BRANCH   8  19
ATOM     19  O   UNL     1      33.848 -23.791 -19.403  0.00  0.00    -0.360 OA
ATOM     20  H   UNL     1      34.786 -24.039 -19.390  0.00  0.00    +0.213 HD
ENDBRANCH   8  19
BRANCH   5  21
ATOM     21  C   UNL     1      33.838 -23.666 -13.410  0.00  0.00    +0.007 C 
BRANCH  21  22
ATOM     22  C   UNL     1      35.157 -24.376 -13.096  0.00  0.00    +0.000 C 
BRANCH  22  23
ATOM     23  C   UNL     1      36.308 -23.378 -12.954  0.00  0.00    +0.000 C 
BRANCH  23  24
ATOM     24  C   UNL     1      37.680 -23.978 -13.276  0.00  0.00    +0.001 C 
BRANCH  24  25
ATOM     25  C   UNL     1      37.712 -24.995 -14.420  0.00  0.00    +0.012 C 
BRANCH  25  26
ATOM     26  C   UNL     1      38.844 -26.013 -14.299  0.00  0.00    +0.109 C 
BRANCH  26  28
ATOM     27  O   UNL     1      40.942 -24.777 -14.243  0.00  0.00    -0.250 OA
ATOM     28  C   UNL     1      40.145 -25.476 -14.852  0.00  0.00    +0.314 C 
BRANCH  28  29
ATOM     29  O   UNL     1      40.338 -25.873 -16.138  0.00  0.00    -0.480 OA
ATOM     30  H   UNL     1      41.150 -25.687 -16.569  0.00  0.00    +0.295 HD
ENDBRANCH  28  29
ENDBRANCH  26  28
ENDBRANCH  25  26
ENDBRANCH  24  25
ENDBRANCH  23  24
ENDBRANCH  22  23
ENDBRANCH  21  22
ENDBRANCH   5  21
TORSDOF 13
ENDMDL
MODEL 6
REMARK VINA RESULT:      -9.2      3.517      9.082
REMARK  Name = 16757521
REMARK  13 active torsions:
REMARK  status: ('A' for Active; 'I' for Inactive)
REMARK    1  A    between atoms: C_5  and  C_21
REMARK    2  A    between atoms: C_8  and  C_13
REMARK    3  A    between atoms: C_8  and  O_19
REMARK    4  A    between atoms: C_13  and  C_14
REMARK    5  A    between atoms: C_14  and  C_15
REMARK    6  A    between atoms: C_15  and  C_17
REMARK    7  A    between atoms: C_21  and  C_22
REMARK    8  A    between atoms: C_22  and  C_23
REMARK    9  A    between atoms: C_23  and  C_24
REMARK   10  A    between atoms: C_24  and  C_25
REMARK   11  A    between atoms: C_25  and  C_26
REMARK   12  A    between atoms: C_26  and  C_28
REMARK   13  A    between atoms: C_28  and  O_29
REMARK                            x       y       z     vdW  Elec       q    Type
REMARK                         _______ _______ _______ _____ _____    ______ ____
ROOT
ATOM      1  O   UNL     1      34.264 -16.517 -23.691  0.00  0.00    -0.332 OA
ATOM      2  O   UNL     1      32.907 -13.520 -27.121  0.00  0.00    -0.296 OA
ATOM      3  C   UNL     1      34.141 -14.119 -23.891  0.00  0.00    +0.035 C 
ATOM      4  C   UNL     1      33.493 -15.458 -24.236  0.00  0.00    +0.125 C 
ATOM      5  C   UNL     1      33.373 -13.127 -24.762  0.00  0.00    +0.060 C 
ATOM      6  C   UNL     1      34.100 -13.924 -22.385  0.00  0.00    +0.008 C 
ATOM      7  C   UNL     1      33.459 -15.441 -25.758  0.00  0.00    +0.094 C 
ATOM      8  C   UNL     1      34.293 -16.476 -22.250  0.00  0.00    +0.241 C 
ATOM      9  C   UNL     1      34.814 -15.116 -21.733  0.00  0.00    +0.062 C 
ATOM     10  C   UNL     1      33.208 -13.970 -26.022  0.00  0.00    +0.153 C 
ENDROOT
BRANCH   8  13
ATOM     11  F   UNL     1      35.547 -17.367 -20.493  0.00  0.00    -0.199 F 
ATOM     12  F   UNL     1      36.354 -17.527 -22.513  0.00  0.00    -0.199 F 
ATOM     13  C   UNL     1      35.218 -17.600 -21.784  0.00  0.00    +0.309 C 
BRANCH  13  14
ATOM     14  C   UNL     1      34.570 -18.970 -21.924  0.00  0.00    +0.072 C 
BRANCH  14  15
ATOM     15  C   UNL     1      34.136 -19.610 -20.585  0.00  0.00    +0.006 C 
ATOM     16  C   UNL     1      32.667 -20.045 -20.591  0.00  0.00    +0.000 C 
BRANCH  15  17
ATOM     17  C   UNL     1      35.015 -20.832 -20.235  0.00  0.00    +0.000 C 
ATOM     18  C   UNL     1      36.502 -20.516 -20.134  0.00  0.00    +0.000 C 
ENDBRANCH  15  17
ENDBRANCH  14  15
ENDBRANCH  13  14
ENDBRANCH   8  13
BRANCH   8  19
ATOM     19  O   UNL     1      32.995 -16.696 -21.690  0.00  0.00    -0.360 OA
ATOM     20  H   UNL     1      33.057 -16.702 -20.722  0.00  0.00    +0.213 HD
ENDBRANCH   8  19
BRANCH   5  21
ATOM     21  C   UNL     1      34.127 -11.836 -25.011  0.00  0.00    +0.007 C 
BRANCH  21  22
ATOM     22  C   UNL     1      33.631 -10.708 -24.103  0.00  0.00    +0.000 C 
BRANCH  22  23
ATOM     23  C   UNL     1      34.596  -9.521 -24.110  0.00  0.00    +0.000 C 
BRANCH  23  24
ATOM     24  C   UNL     1      33.901  -8.168 -23.933  0.00  0.00    +0.001 C 
BRANCH  24  25
ATOM     25  C   UNL     1      34.037  -7.524 -22.550  0.00  0.00    +0.012 C 
BRANCH  25  26
ATOM     26  C   UNL     1      32.701  -7.332 -21.834  0.00  0.00    +0.109 C 
BRANCH  26  28
ATOM     27  O   UNL     1      32.288  -9.154 -20.272  0.00  0.00    -0.250 OA
ATOM     28  C   UNL     1      32.681  -8.016 -20.486  0.00  0.00    +0.314 C 
BRANCH  28  29
ATOM     29  O   UNL     1      33.168  -7.204 -19.511  0.00  0.00    -0.480 OA
ATOM     30  H   UNL     1      32.789  -6.358 -19.373  0.00  0.00    +0.295 HD
ENDBRANCH  28  29
ENDBRANCH  26  28
ENDBRANCH  25  26
ENDBRANCH  24  25
ENDBRANCH  23  24
ENDBRANCH  22  23
ENDBRANCH  21  22
ENDBRANCH   5  21
TORSDOF 13
ENDMDL
MODEL 7
REMARK VINA RESULT:      -9.1      7.240     10.818
REMARK  Name = 16757521
REMARK  13 active torsions:
REMARK  status: ('A' for Active; 'I' for Inactive)
REMARK    1  A    between atoms: C_5  and  C_21
REMARK    2  A    between atoms: C_8  and  C_13
REMARK    3  A    between atoms: C_8  and  O_19
REMARK    4  A    between atoms: C_13  and  C_14
REMARK    5  A    between atoms: C_14  and  C_15
REMARK    6  A    between atoms: C_15  and  C_17
REMARK    7  A    between atoms: C_21  and  C_22
REMARK    8  A    between atoms: C_22  and  C_23
REMARK    9  A    between atoms: C_23  and  C_24
REMARK   10  A    between atoms: C_24  and  C_25
REMARK   11  A    between atoms: C_25  and  C_26
REMARK   12  A    between atoms: C_26  and  C_28
REMARK   13  A    between atoms: C_28  and  O_29
REMARK                            x       y       z     vdW  Elec       q    Type
REMARK                         _______ _______ _______ _____ _____    ______ ____
ROOT
ATOM      1  O   UNL     1      33.251 -23.722 -13.096  0.00  0.00    -0.332 OA
ATOM      2  O   UNL     1      37.944 -24.008 -12.392  0.00  0.00    -0.296 OA
ATOM      3  C   UNL     1      35.176 -23.837 -14.542  0.00  0.00    +0.035 C 
ATOM      4  C   UNL     1      34.536 -24.309 -13.240  0.00  0.00    +0.125 C 
ATOM      5  C   UNL     1      36.620 -24.317 -14.414  0.00  0.00    +0.060 C 
ATOM      6  C   UNL     1      34.355 -24.354 -15.712  0.00  0.00    +0.008 C 
ATOM      7  C   UNL     1      35.538 -23.864 -12.183  0.00  0.00    +0.094 C 
ATOM      8  C   UNL     1      32.346 -24.149 -14.133  0.00  0.00    +0.241 C 
ATOM      9  C   UNL     1      32.915 -23.851 -15.540  0.00  0.00    +0.062 C 
ATOM     10  C   UNL     1      36.843 -24.056 -12.929  0.00  0.00    +0.153 C 
ENDROOT
BRANCH   8  13
ATOM     11  F   UNL     1      31.168 -22.162 -14.483  0.00  0.00    -0.199 F 
ATOM     12  F   UNL     1      30.860 -23.220 -12.600  0.00  0.00    -0.199 F 
ATOM     13  C   UNL     1      31.035 -23.390 -13.930  0.00  0.00    +0.309 C 
BRANCH  13  14
ATOM     14  C   UNL     1      29.849 -24.119 -14.545  0.00  0.00    +0.072 C 
BRANCH  14  15
ATOM     15  C   UNL     1      29.274 -23.445 -15.812  0.00  0.00    +0.006 C 
ATOM     16  C   UNL     1      28.661 -24.456 -16.787  0.00  0.00    +0.000 C 
BRANCH  15  17
ATOM     17  C   UNL     1      28.204 -22.391 -15.451  0.00  0.00    +0.000 C 
ATOM     18  C   UNL     1      27.226 -22.090 -16.580  0.00  0.00    +0.000 C 
ENDBRANCH  15  17
ENDBRANCH  14  15
ENDBRANCH  13  14
ENDBRANCH   8  13
BRANCH   8  19
ATOM     19  O   UNL     1      32.075 -25.551 -14.053  0.00  0.00    -0.360 OA
ATOM     20  H   UNL     1      32.912 -26.041 -14.009  0.00  0.00    +0.213 HD
ENDBRANCH   8  19
BRANCH   5  21
ATOM     21  C   UNL     1      37.587 -23.555 -15.298  0.00  0.00    +0.007 C 
BRANCH  21  22
ATOM     22  C   UNL     1      37.236 -22.066 -15.366  0.00  0.00    +0.000 C 
BRANCH  22  23
ATOM     23  C   UNL     1      37.270 -21.550 -16.806  0.00  0.00    +0.000 C 
BRANCH  23  24
ATOM     24  C   UNL     1      36.089 -22.030 -17.655  0.00  0.00    +0.001 C 
BRANCH  24  25
ATOM     25  C   UNL     1      36.051 -21.514 -19.097  0.00  0.00    +0.012 C 
BRANCH  25  26
ATOM     26  C   UNL     1      34.635 -21.345 -19.645  0.00  0.00    +0.109 C 
BRANCH  26  28
ATOM     27  O   UNL     1      34.012 -23.699 -19.589  0.00  0.00    -0.250 OA
ATOM     28  C   UNL     1      33.759 -22.533 -19.319  0.00  0.00    +0.314 C 
BRANCH  28  29
ATOM     29  O   UNL     1      32.629 -22.152 -18.666  0.00  0.00    -0.480 OA
ATOM     30  H   UNL     1      32.645 -22.028 -17.737  0.00  0.00    +0.295 HD
ENDBRANCH  28  29
ENDBRANCH  26  28
ENDBRANCH  25  26
ENDBRANCH  24  25
ENDBRANCH  23  24
ENDBRANCH  22  23
ENDBRANCH  21  22
ENDBRANCH   5  21
TORSDOF 13
ENDMDL
MODEL 8
REMARK VINA RESULT:      -9.1      3.185      9.120
REMARK  Name = 16757521
REMARK  13 active torsions:
REMARK  status: ('A' for Active; 'I' for Inactive)
REMARK    1  A    between atoms: C_5  and  C_21
REMARK    2  A    between atoms: C_8  and  C_13
REMARK    3  A    between atoms: C_8  and  O_19
REMARK    4  A    between atoms: C_13  and  C_14
REMARK    5  A    between atoms: C_14  and  C_15
REMARK    6  A    between atoms: C_15  and  C_17
REMARK    7  A    between atoms: C_21  and  C_22
REMARK    8  A    between atoms: C_22  and  C_23
REMARK    9  A    between atoms: C_23  and  C_24
REMARK   10  A    between atoms: C_24  and  C_25
REMARK   11  A    between atoms: C_25  and  C_26
REMARK   12  A    between atoms: C_26  and  C_28
REMARK   13  A    between atoms: C_28  and  O_29
REMARK                            x       y       z     vdW  Elec       q    Type
REMARK                         _______ _______ _______ _____ _____    ______ ____
ROOT
ATOM      1  O   UNL     1      33.446 -17.231 -21.101  0.00  0.00    -0.332 OA
ATOM      2  O   UNL     1      31.987 -12.708 -21.188  0.00  0.00    -0.296 OA
ATOM      3  C   UNL     1      33.735 -15.389 -22.627  0.00  0.00    +0.035 C 
ATOM      4  C   UNL     1      33.632 -15.826 -21.169  0.00  0.00    +0.125 C 
ATOM      5  C   UNL     1      33.649 -13.866 -22.542  0.00  0.00    +0.060 C 
ATOM      6  C   UNL     1      34.986 -15.998 -23.238  0.00  0.00    +0.008 C 
ATOM      7  C   UNL     1      32.445 -15.023 -20.652  0.00  0.00    +0.094 C 
ATOM      8  C   UNL     1      34.581 -17.949 -21.627  0.00  0.00    +0.241 C 
ATOM      9  C   UNL     1      34.898 -17.522 -23.078  0.00  0.00    +0.062 C 
ATOM     10  C   UNL     1      32.613 -13.733 -21.431  0.00  0.00    +0.153 C 
ENDROOT
BRANCH   8  13
ATOM     11  F   UNL     1      35.028 -20.081 -22.470  0.00  0.00    -0.199 F 
ATOM     12  F   UNL     1      32.957 -19.573 -22.013  0.00  0.00    -0.199 F 
ATOM     13  C   UNL     1      34.232 -19.437 -21.586  0.00  0.00    +0.309 C 
BRANCH  13  14
ATOM     14  C   UNL     1      34.404 -20.027 -20.193  0.00  0.00    +0.072 C 
BRANCH  14  15
ATOM     15  C   UNL     1      35.349 -21.250 -20.132  0.00  0.00    +0.006 C 
ATOM     16  C   UNL     1      36.790 -20.860 -19.786  0.00  0.00    +0.000 C 
BRANCH  15  17
ATOM     17  C   UNL     1      34.855 -22.291 -19.103  0.00  0.00    +0.000 C 
ATOM     18  C   UNL     1      33.366 -22.197 -18.794  0.00  0.00    +0.000 C 
ENDBRANCH  15  17
ENDBRANCH  14  15
ENDBRANCH  13  14
ENDBRANCH   8  13
BRANCH   8  19
ATOM     19  O   UNL     1      35.753 -17.736 -20.835  0.00  0.00    -0.360 OA
ATOM     20  H   UNL     1      35.507 -17.701 -19.897  0.00  0.00    +0.213 HD
ENDBRANCH   8  19
BRANCH   5  21
ATOM     21  C   UNL     1      33.210 -13.215 -23.838  0.00  0.00    +0.007 C 
BRANCH  21  22
ATOM     22  C   UNL     1      33.968 -11.911 -24.100  0.00  0.00    +0.000 C 
BRANCH  22  23
ATOM     23  C   UNL     1      33.070 -10.691 -23.883  0.00  0.00    +0.000 C 
BRANCH  23  24
ATOM     24  C   UNL     1      33.850  -9.399 -23.621  0.00  0.00    +0.001 C 
BRANCH  24  25
ATOM     25  C   UNL     1      33.213  -8.426 -22.624  0.00  0.00    +0.012 C 
BRANCH  25  26
ATOM     26  C   UNL     1      32.049  -9.032 -21.842  0.00  0.00    +0.109 C 
BRANCH  26  28
ATOM     27  O   UNL     1      32.561  -7.888 -19.754  0.00  0.00    -0.250 OA
ATOM     28  C   UNL     1      32.251  -8.910 -20.348  0.00  0.00    +0.314 C 
BRANCH  28  29
ATOM     29  O   UNL     1      32.037 -10.097 -19.721  0.00  0.00    -0.480 OA
ATOM     30  H   UNL     1      32.270 -10.900 -20.145  0.00  0.00    +0.295 HD
ENDBRANCH  28  29
ENDBRANCH  26  28
ENDBRANCH  25  26
ENDBRANCH  24  25
ENDBRANCH  23  24
ENDBRANCH  22  23
ENDBRANCH  21  22
ENDBRANCH   5  21
TORSDOF 13
ENDMDL
MODEL 9
REMARK VINA RESULT:      -9.0      2.951      5.239
REMARK  Name = 16757521
REMARK  13 active torsions:
REMARK  status: ('A' for Active; 'I' for Inactive)
REMARK    1  A    between atoms: C_5  and  C_21
REMARK    2  A    between atoms: C_8  and  C_13
REMARK    3  A    between atoms: C_8  and  O_19
REMARK    4  A    between atoms: C_13  and  C_14
REMARK    5  A    between atoms: C_14  and  C_15
REMARK    6  A    between atoms: C_15  and  C_17
REMARK    7  A    between atoms: C_21  and  C_22
REMARK    8  A    between atoms: C_22  and  C_23
REMARK    9  A    between atoms: C_23  and  C_24
REMARK   10  A    between atoms: C_24  and  C_25
REMARK   11  A    between atoms: C_25  and  C_26
REMARK   12  A    between atoms: C_26  and  C_28
REMARK   13  A    between atoms: C_28  and  O_29
REMARK                            x       y       z     vdW  Elec       q    Type
REMARK                         _______ _______ _______ _____ _____    ______ ____
ROOT
ATOM      1  O   UNL     1      33.960 -18.840 -21.096  0.00  0.00    -0.332 OA
ATOM      2  O   UNL     1      32.496 -22.523 -18.472  0.00  0.00    -0.296 OA
ATOM      3  C   UNL     1      35.070 -20.544 -19.803  0.00  0.00    +0.035 C 
ATOM      4  C   UNL     1      33.904 -20.210 -20.728  0.00  0.00    +0.125 C 
ATOM      5  C   UNL     1      34.717 -21.937 -19.286  0.00  0.00    +0.060 C 
ATOM      6  C   UNL     1      36.372 -20.378 -20.568  0.00  0.00    +0.008 C 
ATOM      7  C   UNL     1      32.685 -20.572 -19.890  0.00  0.00    +0.094 C 
ATOM      8  C   UNL     1      35.144 -18.537 -21.862  0.00  0.00    +0.241 C 
ATOM      9  C   UNL     1      36.428 -18.939 -21.102  0.00  0.00    +0.062 C 
ATOM     10  C   UNL     1      33.209 -21.775 -19.130  0.00  0.00    +0.153 C 
ENDROOT
BRANCH   8  13
ATOM     11  F   UNL     1      36.232 -16.728 -22.862  0.00  0.00    -0.199 F 
ATOM     12  F   UNL     1      35.275 -16.408 -20.928  0.00  0.00    -0.199 F 
ATOM     13  C   UNL     1      35.141 -17.031 -22.121  0.00  0.00    +0.309 C 
BRANCH  13  14
ATOM     14  C   UNL     1      33.876 -16.574 -22.833  0.00  0.00    +0.072 C 
BRANCH  14  15
ATOM     15  C   UNL     1      34.109 -15.498 -23.919  0.00  0.00    +0.006 C 
ATOM     16  C   UNL     1      33.842 -16.025 -25.333  0.00  0.00    +0.000 C 
BRANCH  15  17
ATOM     17  C   UNL     1      33.226 -14.254 -23.676  0.00  0.00    +0.000 C 
ATOM     18  C   UNL     1      32.626 -14.184 -22.278  0.00  0.00    +0.000 C 
ENDBRANCH  15  17
ENDBRANCH  14  15
ENDBRANCH  13  14
ENDBRANCH   8  13
BRANCH   8  19
ATOM     19  O   UNL     1      35.144 -19.214 -23.122  0.00  0.00    -0.360 OA
ATOM     20  H   UNL     1      34.230 -19.417 -23.381  0.00  0.00    +0.213 HD
ENDBRANCH   8  19
BRANCH   5  21
ATOM     21  C   UNL     1      35.409 -22.289 -17.984  0.00  0.00    +0.007 C 
BRANCH  21  22
ATOM     22  C   UNL     1      36.789 -21.632 -17.884  0.00  0.00    +0.000 C 
BRANCH  22  23
ATOM     23  C   UNL     1      37.390 -21.808 -16.488  0.00  0.00    +0.000 C 
BRANCH  23  24
ATOM     24  C   UNL     1      36.595 -22.769 -15.598  0.00  0.00    +0.001 C 
BRANCH  24  25
ATOM     25  C   UNL     1      37.368 -23.389 -14.430  0.00  0.00    +0.012 C 
BRANCH  25  26
ATOM     26  C   UNL     1      36.589 -23.387 -13.116  0.00  0.00    +0.109 C 
BRANCH  26  28
ATOM     27  O   UNL     1      38.324 -22.532 -11.636  0.00  0.00    -0.250 OA
ATOM     28  C   UNL     1      37.509 -23.399 -11.916  0.00  0.00    +0.314 C 
BRANCH  28  29
ATOM     29  O   UNL     1      37.319 -24.512 -11.157  0.00  0.00    -0.480 OA
ATOM     30  H   UNL     1      37.532 -25.356 -11.503  0.00  0.00    +0.295 HD
ENDBRANCH  28  29
ENDBRANCH  26  28
ENDBRANCH  25  26
ENDBRANCH  24  25
ENDBRANCH  23  24
ENDBRANCH  22  23
ENDBRANCH  21  22
ENDBRANCH   5  21
TORSDOF 13
ENDMDL
