MODEL 1
REMARK VINA RESULT:      -7.7      0.000      0.000
REMARK  Name = 6067
REMARK  10 active torsions:
REMARK  status: ('A' for Active; 'I' for Inactive)
REMARK    1  A    between atoms: C_1  and  C_3
REMARK    2  A    between atoms: C_1  and  C_7
REMARK    3  A    between atoms: C_1  and  O_12
REMARK    4  A    between atoms: C_1  and  C_15
REMARK    5  A    between atoms: C_15  and  O_16
REMARK    6  A    between atoms: O_16  and  C_17
REMARK    7  A    between atoms: C_17  and  C_18
REMARK    8  A    between atoms: C_18  and  N_19
REMARK    9  A    between atoms: N_19  and  C_21
REMARK   10  A    between atoms: N_19  and  C_23
REMARK                            x       y       z     vdW  Elec       q    Type
REMARK                         _______ _______ _______ _____ _____    ______ ____
ROOT
ATOM      1  C   UNL     1      33.228 -13.361 -23.094  0.00  0.00    +0.202 C 
ENDROOT
BRANCH   1   3
ATOM      2  S   UNL     1      32.665 -10.617 -23.052  0.00  0.00    -0.088 S 
ATOM      3  C   UNL     1      32.445 -12.209 -22.462  0.00  0.00    +0.041 C 
ATOM      4  C   UNL     1      31.536 -12.255 -21.427  0.00  0.00    +0.005 C 
ATOM      5  C   UNL     1      31.014 -10.967 -21.115  0.00  0.00    +0.007 C 
ATOM      6  C   UNL     1      31.542  -9.985 -21.924  0.00  0.00    +0.035 C 
ENDBRANCH   1   3
BRANCH   1   7
ATOM      7  C   UNL     1      32.774 -13.811 -24.472  0.00  0.00    +0.040 C 
ATOM      8  C   UNL     1      33.329 -15.174 -24.872  0.00  0.00    +0.003 C 
ATOM      9  C   UNL     1      33.280 -12.910 -25.595  0.00  0.00    +0.003 C 
ATOM     10  C   UNL     1      33.140 -15.217 -26.385  0.00  0.00    +0.000 C 
ATOM     11  C   UNL     1      33.120 -13.761 -26.851  0.00  0.00    +0.000 C 
ENDBRANCH   1   7
BRANCH   1  12
ATOM     12  O   UNL     1      34.576 -12.898 -23.211  0.00  0.00    -0.372 OA
ATOM     13  H   UNL     1      34.833 -12.441 -22.395  0.00  0.00    +0.211 HD
ENDBRANCH   1  12
BRANCH   1  15
ATOM     14  O   UNL     1      32.216 -15.156 -21.787  0.00  0.00    -0.247 OA
ATOM     15  C   UNL     1      33.224 -14.545 -22.125  0.00  0.00    +0.346 C 
BRANCH  15  16
ATOM     16  O   UNL     1      34.493 -14.810 -21.693  0.00  0.00    -0.449 OA
BRANCH  16  17
ATOM     17  C   UNL     1      34.714 -16.133 -21.195  0.00  0.00    +0.187 C 
BRANCH  17  18
ATOM     18  C   UNL     1      35.243 -17.013 -22.310  0.00  0.00    -0.025 C 
BRANCH  18  19
ATOM     19  N   UNL     1      35.071 -18.439 -21.932  0.00  0.00    +0.391 N 
ATOM     20  C   UNL     1      36.259 -18.927 -21.093  0.00  0.00    -0.096 C 
BRANCH  19  21
ATOM     21  C   UNL     1      33.791 -18.633 -21.107  0.00  0.00    -0.073 C 
ATOM     22  C   UNL     1      33.714 -20.070 -20.638  0.00  0.00    -0.024 C 
ENDBRANCH  19  21
BRANCH  19  23
ATOM     23  C   UNL     1      34.973 -19.325 -23.182  0.00  0.00    -0.073 C 
ATOM     24  C   UNL     1      34.660 -18.460 -24.383  0.00  0.00    -0.024 C 
ENDBRANCH  19  23
ENDBRANCH  18  19
ENDBRANCH  17  18
ENDBRANCH  16  17
ENDBRANCH  15  16
ENDBRANCH   1  15
TORSDOF 10
ENDMDL
MODEL 2
REMARK VINA RESULT:      -7.3      2.525      6.823
REMARK  Name = 6067
REMARK  10 active torsions:
REMARK  status: ('A' for Active; 'I' for Inactive)
REMARK    1  A    between atoms: C_1  and  C_3
REMARK    2  A    between atoms: C_1  and  C_7
REMARK    3  A    between atoms: C_1  and  O_12
REMARK    4  A    between atoms: C_1  and  C_15
REMARK    5  A    between atoms: C_15  and  O_16
REMARK    6  A    between atoms: O_16  and  C_17
REMARK    7  A    between atoms: C_17  and  C_18
REMARK    8  A    between atoms: C_18  and  N_19
REMARK    9  A    between atoms: N_19  and  C_21
REMARK   10  A    between atoms: N_19  and  C_23
REMARK                            x       y       z     vdW  Elec       q    Type
REMARK                         _______ _______ _______ _____ _____    ______ ____
ROOT
ATOM      1  C   UNL     1      35.279 -18.486 -21.833  0.00  0.00    +0.202 C 
ENDROOT
BRANCH   1   3
ATOM      2  S   UNL     1      35.182 -16.545 -23.851  0.00  0.00    -0.088 S 
ATOM      3  C   UNL     1      34.939 -18.143 -23.284  0.00  0.00    +0.041 C 
ATOM      4  C   UNL     1      34.436 -18.968 -24.266  0.00  0.00    +0.005 C 
ATOM      5  C   UNL     1      34.247 -18.280 -25.500  0.00  0.00    +0.007 C 
ATOM      6  C   UNL     1      34.615 -16.955 -25.415  0.00  0.00    +0.035 C 
ENDBRANCH   1   3
BRANCH   1   7
ATOM      7  C   UNL     1      34.800 -19.836 -21.329  0.00  0.00    +0.040 C 
ATOM      8  C   UNL     1      33.431 -19.777 -20.658  0.00  0.00    +0.003 C 
ATOM      9  C   UNL     1      35.680 -20.412 -20.222  0.00  0.00    +0.003 C 
ATOM     10  C   UNL     1      33.357 -21.073 -19.858  0.00  0.00    +0.000 C 
ATOM     11  C   UNL     1      34.804 -21.475 -19.568  0.00  0.00    +0.000 C 
ENDBRANCH   1   7
BRANCH   1  12
ATOM     12  O   UNL     1      36.707 -18.476 -21.755  0.00  0.00    -0.372 OA
ATOM     13  H   UNL     1      36.986 -17.897 -21.027  0.00  0.00    +0.211 HD
ENDBRANCH   1  12
BRANCH   1  15
ATOM     14  O   UNL     1      35.431 -16.787 -20.089  0.00  0.00    -0.247 OA
ATOM     15  C   UNL     1      34.754 -17.369 -20.930  0.00  0.00    +0.346 C 
BRANCH  15  16
ATOM     16  O   UNL     1      33.435 -17.126 -21.192  0.00  0.00    -0.449 OA
BRANCH  16  17
ATOM     17  C   UNL     1      32.925 -15.884 -20.696  0.00  0.00    +0.187 C 
BRANCH  17  18
ATOM     18  C   UNL     1      32.336 -15.084 -21.841  0.00  0.00    -0.025 C 
BRANCH  18  19
ATOM     19  N   UNL     1      32.854 -13.693 -21.784  0.00  0.00    +0.391 N 
ATOM     20  C   UNL     1      34.378 -13.687 -21.612  0.00  0.00    -0.096 C 
BRANCH  19  21
ATOM     21  C   UNL     1      32.515 -12.933 -23.074  0.00  0.00    -0.073 C 
ATOM     22  C   UNL     1      33.695 -13.007 -24.020  0.00  0.00    -0.024 C 
ENDBRANCH  19  21
BRANCH  19  23
ATOM     23  C   UNL     1      32.237 -12.931 -20.604  0.00  0.00    -0.073 C 
ATOM     24  C   UNL     1      31.459 -11.744 -21.129  0.00  0.00    -0.024 C 
ENDBRANCH  19  23
ENDBRANCH  18  19
ENDBRANCH  17  18
ENDBRANCH  16  17
ENDBRANCH  15  16
ENDBRANCH   1  15
TORSDOF 10
ENDMDL
MODEL 3
REMARK VINA RESULT:      -7.3      3.251      5.691
REMARK  Name = 6067
REMARK  10 active torsions:
REMARK  status: ('A' for Active; 'I' for Inactive)
REMARK    1  A    between atoms: C_1  and  C_3
REMARK    2  A    between atoms: C_1  and  C_7
REMARK    3  A    between atoms: C_1  and  O_12
REMARK    4  A    between atoms: C_1  and  C_15
REMARK    5  A    between atoms: C_15  and  O_16
REMARK    6  A    between atoms: O_16  and  C_17
REMARK    7  A    between atoms: C_17  and  C_18
REMARK    8  A    between atoms: C_18  and  N_19
REMARK    9  A    between atoms: N_19  and  C_21
REMARK   10  A    between atoms: N_19  and  C_23
REMARK                            x       y       z     vdW  Elec       q    Type
REMARK                         _______ _______ _______ _____ _____    ______ ____
ROOT
ATOM      1  C   UNL     1      33.005  -8.559 -22.881  0.00  0.00    +0.202 C 
ENDROOT
BRANCH   1   3
ATOM      2  S   UNL     1      32.260  -9.111 -20.236  0.00  0.00    -0.088 S 
ATOM      3  C   UNL     1      32.192  -9.427 -21.918  0.00  0.00    +0.041 C 
ATOM      4  C   UNL     1      31.363 -10.487 -22.211  0.00  0.00    +0.005 C 
ATOM      5  C   UNL     1      30.776 -11.049 -21.040  0.00  0.00    +0.007 C 
ATOM      6  C   UNL     1      31.179 -10.395 -19.896  0.00  0.00    +0.035 C 
ENDBRANCH   1   3
BRANCH   1   7
ATOM      7  C   UNL     1      32.215  -7.617 -23.773  0.00  0.00    +0.040 C 
ATOM      8  C   UNL     1      33.077  -6.537 -24.419  0.00  0.00    +0.003 C 
ATOM      9  C   UNL     1      31.179  -6.795 -23.013  0.00  0.00    +0.003 C 
ATOM     10  C   UNL     1      32.070  -5.485 -24.871  0.00  0.00    +0.000 C 
ATOM     11  C   UNL     1      30.853  -5.643 -23.958  0.00  0.00    +0.000 C 
ENDBRANCH   1   7
BRANCH   1  12
ATOM     12  O   UNL     1      33.860  -7.761 -22.058  0.00  0.00    -0.372 OA
ATOM     13  H   UNL     1      33.757  -6.826 -22.296  0.00  0.00    +0.211 HD
ENDBRANCH   1  12
BRANCH   1  15
ATOM     14  O   UNL     1      35.105  -9.337 -23.848  0.00  0.00    -0.247 OA
ATOM     15  C   UNL     1      33.892  -9.471 -23.730  0.00  0.00    +0.346 C 
BRANCH  15  16
ATOM     16  O   UNL     1      33.140 -10.438 -24.335  0.00  0.00    -0.449 OA
BRANCH  16  17
ATOM     17  C   UNL     1      33.860 -11.588 -24.791  0.00  0.00    +0.187 C 
BRANCH  17  18
ATOM     18  C   UNL     1      34.164 -12.495 -23.615  0.00  0.00    -0.025 C 
BRANCH  18  19
ATOM     19  N   UNL     1      33.475 -13.797 -23.810  0.00  0.00    +0.391 N 
ATOM     20  C   UNL     1      34.418 -14.965 -23.493  0.00  0.00    -0.096 C 
BRANCH  19  21
ATOM     21  C   UNL     1      32.250 -13.908 -22.891  0.00  0.00    -0.073 C 
ATOM     22  C   UNL     1      32.706 -14.290 -21.500  0.00  0.00    -0.024 C 
ENDBRANCH  19  21
BRANCH  19  23
ATOM     23  C   UNL     1      32.999 -13.948 -25.261  0.00  0.00    -0.073 C 
ATOM     24  C   UNL     1      33.417 -15.304 -25.785  0.00  0.00    -0.024 C 
ENDBRANCH  19  23
ENDBRANCH  18  19
ENDBRANCH  17  18
ENDBRANCH  16  17
ENDBRANCH  15  16
ENDBRANCH   1  15
TORSDOF 10
ENDMDL
MODEL 4
REMARK VINA RESULT:      -7.3      3.111      5.804
REMARK  Name = 6067
REMARK  10 active torsions:
REMARK  status: ('A' for Active; 'I' for Inactive)
REMARK    1  A    between atoms: C_1  and  C_3
REMARK    2  A    between atoms: C_1  and  C_7
REMARK    3  A    between atoms: C_1  and  O_12
REMARK    4  A    between atoms: C_1  and  C_15
REMARK    5  A    between atoms: C_15  and  O_16
REMARK    6  A    between atoms: O_16  and  C_17
REMARK    7  A    between atoms: C_17  and  C_18
REMARK    8  A    between atoms: C_18  and  N_19
REMARK    9  A    between atoms: N_19  and  C_21
REMARK   10  A    between atoms: N_19  and  C_23
REMARK                            x       y       z     vdW  Elec       q    Type
REMARK                         _______ _______ _______ _____ _____    ______ ____
ROOT
ATOM      1  C   UNL     1      32.989  -8.563 -22.830  0.00  0.00    +0.202 C 
ENDROOT
BRANCH   1   3
ATOM      2  S   UNL     1      32.254  -9.131 -20.186  0.00  0.00    -0.088 S 
ATOM      3  C   UNL     1      32.177  -9.434 -21.870  0.00  0.00    +0.041 C 
ATOM      4  C   UNL     1      31.342 -10.489 -22.167  0.00  0.00    +0.005 C 
ATOM      5  C   UNL     1      30.759 -11.057 -20.998  0.00  0.00    +0.007 C 
ATOM      6  C   UNL     1      31.168 -10.413 -19.851  0.00  0.00    +0.035 C 
ENDBRANCH   1   3
BRANCH   1   7
ATOM      7  C   UNL     1      32.200  -7.613 -23.713  0.00  0.00    +0.040 C 
ATOM      8  C   UNL     1      33.067  -6.546 -24.373  0.00  0.00    +0.003 C 
ATOM      9  C   UNL     1      31.185  -6.775 -22.940  0.00  0.00    +0.003 C 
ATOM     10  C   UNL     1      32.068  -5.481 -24.813  0.00  0.00    +0.000 C 
ATOM     11  C   UNL     1      30.862  -5.621 -23.883  0.00  0.00    +0.000 C 
ENDBRANCH   1   7
BRANCH   1  12
ATOM     12  O   UNL     1      33.850  -7.774 -22.005  0.00  0.00    -0.372 OA
ATOM     13  H   UNL     1      34.650  -8.281 -21.793  0.00  0.00    +0.211 HD
ENDBRANCH   1  12
BRANCH   1  15
ATOM     14  O   UNL     1      35.086  -9.353 -23.795  0.00  0.00    -0.247 OA
ATOM     15  C   UNL     1      33.871  -9.472 -23.688  0.00  0.00    +0.346 C 
BRANCH  15  16
ATOM     16  O   UNL     1      33.110 -10.419 -24.315  0.00  0.00    -0.449 OA
BRANCH  16  17
ATOM     17  C   UNL     1      33.812 -11.586 -24.754  0.00  0.00    +0.187 C 
BRANCH  17  18
ATOM     18  C   UNL     1      34.138 -12.460 -23.559  0.00  0.00    -0.025 C 
BRANCH  18  19
ATOM     19  N   UNL     1      33.508 -13.793 -23.742  0.00  0.00    +0.391 N 
ATOM     20  C   UNL     1      33.062 -13.989 -25.196  0.00  0.00    -0.096 C 
BRANCH  19  21
ATOM     21  C   UNL     1      34.495 -14.914 -23.389  0.00  0.00    -0.073 C 
ATOM     22  C   UNL     1      34.292 -16.074 -24.340  0.00  0.00    -0.024 C 
ENDBRANCH  19  21
BRANCH  19  23
ATOM     23  C   UNL     1      32.275 -13.940 -22.840  0.00  0.00    -0.073 C 
ATOM     24  C   UNL     1      32.721 -14.322 -21.445  0.00  0.00    -0.024 C 
ENDBRANCH  19  23
ENDBRANCH  18  19
ENDBRANCH  17  18
ENDBRANCH  16  17
ENDBRANCH  15  16
ENDBRANCH   1  15
TORSDOF 10
ENDMDL
MODEL 5
REMARK VINA RESULT:      -7.2      1.472      3.863
REMARK  Name = 6067
REMARK  10 active torsions:
REMARK  status: ('A' for Active; 'I' for Inactive)
REMARK    1  A    between atoms: C_1  and  C_3
REMARK    2  A    between atoms: C_1  and  C_7
REMARK    3  A    between atoms: C_1  and  O_12
REMARK    4  A    between atoms: C_1  and  C_15
REMARK    5  A    between atoms: C_15  and  O_16
REMARK    6  A    between atoms: O_16  and  C_17
REMARK    7  A    between atoms: C_17  and  C_18
REMARK    8  A    between atoms: C_18  and  N_19
REMARK    9  A    between atoms: N_19  and  C_21
REMARK   10  A    between atoms: N_19  and  C_23
REMARK                            x       y       z     vdW  Elec       q    Type
REMARK                         _______ _______ _______ _____ _____    ______ ____
ROOT
ATOM      1  C   UNL     1      32.869 -13.450 -22.839  0.00  0.00    +0.202 C 
ENDROOT
BRANCH   1   3
ATOM      2  S   UNL     1      32.896 -13.998 -25.587  0.00  0.00    -0.088 S 
ATOM      3  C   UNL     1      33.270 -13.001 -24.245  0.00  0.00    +0.041 C 
ATOM      4  C   UNL     1      33.925 -11.850 -24.624  0.00  0.00    +0.005 C 
ATOM      5  C   UNL     1      34.124 -11.786 -26.033  0.00  0.00    +0.007 C 
ATOM      6  C   UNL     1      33.611 -12.889 -26.679  0.00  0.00    +0.035 C 
ENDBRANCH   1   3
BRANCH   1   7
ATOM      7  C   UNL     1      32.624 -12.349 -21.822  0.00  0.00    +0.040 C 
ATOM      8  C   UNL     1      32.245 -12.878 -20.443  0.00  0.00    +0.003 C 
ATOM      9  C   UNL     1      31.431 -11.463 -22.170  0.00  0.00    +0.003 C 
ATOM     10  C   UNL     1      31.624 -11.673 -19.745  0.00  0.00    +0.000 C 
ATOM     11  C   UNL     1      31.090 -10.768 -20.856  0.00  0.00    +0.000 C 
ENDBRANCH   1   7
BRANCH   1  12
ATOM     12  O   UNL     1      31.646 -14.176 -22.995  0.00  0.00    -0.372 OA
ATOM     13  H   UNL     1      31.706 -14.745 -23.780  0.00  0.00    +0.211 HD
ENDBRANCH   1  12
BRANCH   1  15
ATOM     14  O   UNL     1      35.041 -14.091 -21.931  0.00  0.00    -0.247 OA
ATOM     15  C   UNL     1      33.926 -14.425 -22.317  0.00  0.00    +0.346 C 
BRANCH  15  16
ATOM     16  O   UNL     1      33.451 -15.706 -22.352  0.00  0.00    -0.449 OA
BRANCH  16  17
ATOM     17  C   UNL     1      34.445 -16.733 -22.424  0.00  0.00    +0.187 C 
BRANCH  17  18
ATOM     18  C   UNL     1      34.300 -17.663 -21.235  0.00  0.00    -0.025 C 
BRANCH  18  19
ATOM     19  N   UNL     1      34.934 -18.967 -21.555  0.00  0.00    +0.391 N 
ATOM     20  C   UNL     1      34.932 -19.218 -23.068  0.00  0.00    -0.096 C 
BRANCH  19  21
ATOM     21  C   UNL     1      36.390 -18.998 -21.067  0.00  0.00    -0.073 C 
ATOM     22  C   UNL     1      36.605 -20.234 -20.221  0.00  0.00    -0.024 C 
ENDBRANCH  19  21
BRANCH  19  23
ATOM     23  C   UNL     1      34.179 -20.119 -20.878  0.00  0.00    -0.073 C 
ATOM     24  C   UNL     1      32.753 -19.691 -20.610  0.00  0.00    -0.024 C 
ENDBRANCH  19  23
ENDBRANCH  18  19
ENDBRANCH  17  18
ENDBRANCH  16  17
ENDBRANCH  15  16
ENDBRANCH   1  15
TORSDOF 10
ENDMDL
MODEL 6
REMARK VINA RESULT:      -7.2     10.589     13.121
REMARK  Name = 6067
REMARK  10 active torsions:
REMARK  status: ('A' for Active; 'I' for Inactive)
REMARK    1  A    between atoms: C_1  and  C_3
REMARK    2  A    between atoms: C_1  and  C_7
REMARK    3  A    between atoms: C_1  and  O_12
REMARK    4  A    between atoms: C_1  and  C_15
REMARK    5  A    between atoms: C_15  and  O_16
REMARK    6  A    between atoms: O_16  and  C_17
REMARK    7  A    between atoms: C_17  and  C_18
REMARK    8  A    between atoms: C_18  and  N_19
REMARK    9  A    between atoms: N_19  and  C_21
REMARK   10  A    between atoms: N_19  and  C_23
REMARK                            x       y       z     vdW  Elec       q    Type
REMARK                         _______ _______ _______ _____ _____    ______ ____
ROOT
ATOM      1  C   UNL     1      35.402 -24.149 -14.667  0.00  0.00    +0.202 C 
ENDROOT
BRANCH   1   3
ATOM      2  S   UNL     1      37.261 -26.069 -13.826  0.00  0.00    -0.088 S 
ATOM      3  C   UNL     1      36.585 -24.497 -13.762  0.00  0.00    +0.041 C 
ATOM      4  C   UNL     1      37.229 -23.694 -12.846  0.00  0.00    +0.005 C 
ATOM      5  C   UNL     1      38.292 -24.378 -12.188  0.00  0.00    +0.007 C 
ATOM      6  C   UNL     1      38.421 -25.678 -12.627  0.00  0.00    +0.035 C 
ENDBRANCH   1   3
BRANCH   1   7
ATOM      7  C   UNL     1      35.573 -22.938 -15.567  0.00  0.00    +0.040 C 
ATOM      8  C   UNL     1      34.885 -23.091 -16.919  0.00  0.00    +0.003 C 
ATOM      9  C   UNL     1      37.024 -22.685 -15.967  0.00  0.00    +0.003 C 
ATOM     10  C   UNL     1      35.538 -22.020 -17.787  0.00  0.00    +0.000 C 
ATOM     11  C   UNL     1      36.919 -21.768 -17.181  0.00  0.00    +0.000 C 
ENDBRANCH   1   7
BRANCH   1  12
ATOM     12  O   UNL     1      35.207 -25.289 -15.509  0.00  0.00    -0.372 OA
ATOM     13  H   UNL     1      34.741 -25.019 -16.316  0.00  0.00    +0.211 HD
ENDBRANCH   1  12
BRANCH   1  15
ATOM     14  O   UNL     1      34.171 -23.852 -12.582  0.00  0.00    -0.247 OA
ATOM     15  C   UNL     1      34.152 -23.991 -13.800  0.00  0.00    +0.346 C 
BRANCH  15  16
ATOM     16  O   UNL     1      33.027 -24.035 -14.575  0.00  0.00    -0.449 OA
BRANCH  16  17
ATOM     17  C   UNL     1      32.157 -22.903 -14.467  0.00  0.00    +0.187 C 
BRANCH  17  18
ATOM     18  C   UNL     1      30.731 -23.378 -14.263  0.00  0.00    -0.025 C 
BRANCH  18  19
ATOM     19  N   UNL     1      29.998 -23.292 -15.552  0.00  0.00    +0.391 N 
ATOM     20  C   UNL     1      30.905 -22.739 -16.658  0.00  0.00    -0.096 C 
BRANCH  19  21
ATOM     21  C   UNL     1      29.501 -24.677 -15.989  0.00  0.00    -0.073 C 
ATOM     22  C   UNL     1      29.697 -25.657 -14.852  0.00  0.00    -0.024 C 
ENDBRANCH  19  21
BRANCH  19  23
ATOM     23  C   UNL     1      28.781 -22.366 -15.425  0.00  0.00    -0.073 C 
ATOM     24  C   UNL     1      27.742 -22.765 -16.449  0.00  0.00    -0.024 C 
ENDBRANCH  19  23
ENDBRANCH  18  19
ENDBRANCH  17  18
ENDBRANCH  16  17
ENDBRANCH  15  16
ENDBRANCH   1  15
TORSDOF 10
ENDMDL
MODEL 7
REMARK VINA RESULT:      -7.1      8.404     11.898
REMARK  Name = 6067
REMARK  10 active torsions:
REMARK  status: ('A' for Active; 'I' for Inactive)
REMARK    1  A    between atoms: C_1  and  C_3
REMARK    2  A    between atoms: C_1  and  C_7
REMARK    3  A    between atoms: C_1  and  O_12
REMARK    4  A    between atoms: C_1  and  C_15
REMARK    5  A    between atoms: C_15  and  O_16
REMARK    6  A    between atoms: O_16  and  C_17
REMARK    7  A    between atoms: C_17  and  C_18
REMARK    8  A    between atoms: C_18  and  N_19
REMARK    9  A    between atoms: N_19  and  C_21
REMARK   10  A    between atoms: N_19  and  C_23
REMARK                            x       y       z     vdW  Elec       q    Type
REMARK                         _______ _______ _______ _____ _____    ______ ____
ROOT
ATOM      1  C   UNL     1      33.815 -23.127 -17.067  0.00  0.00    +0.202 C 
ENDROOT
BRANCH   1   3
ATOM      2  S   UNL     1      35.854 -21.893 -18.540  0.00  0.00    -0.088 S 
ATOM      3  C   UNL     1      34.202 -22.234 -18.247  0.00  0.00    +0.041 C 
ATOM      4  C   UNL     1      33.377 -21.622 -19.165  0.00  0.00    +0.005 C 
ATOM      5  C   UNL     1      34.111 -20.863 -20.122  0.00  0.00    +0.007 C 
ATOM      6  C   UNL     1      35.470 -20.925 -19.899  0.00  0.00    +0.035 C 
ENDBRANCH   1   3
BRANCH   1   7
ATOM      7  C   UNL     1      32.585 -22.712 -16.279  0.00  0.00    +0.040 C 
ATOM      8  C   UNL     1      32.583 -23.239 -14.847  0.00  0.00    +0.003 C 
ATOM      9  C   UNL     1      31.288 -23.287 -16.839  0.00  0.00    +0.003 C 
ATOM     10  C   UNL     1      31.128 -23.106 -14.409  0.00  0.00    +0.000 C 
ATOM     11  C   UNL     1      30.294 -23.149 -15.690  0.00  0.00    +0.000 C 
ENDBRANCH   1   7
BRANCH   1  12
ATOM     12  O   UNL     1      33.556 -24.419 -17.625  0.00  0.00    -0.372 OA
ATOM     13  H   UNL     1      32.984 -24.922 -17.024  0.00  0.00    +0.211 HD
ENDBRANCH   1  12
BRANCH   1  15
ATOM     14  O   UNL     1      35.513 -22.323 -15.511  0.00  0.00    -0.247 OA
ATOM     15  C   UNL     1      35.021 -23.256 -16.135  0.00  0.00    +0.346 C 
BRANCH  15  16
ATOM     16  O   UNL     1      35.467 -24.548 -16.109  0.00  0.00    -0.449 OA
BRANCH  16  17
ATOM     17  C   UNL     1      35.834 -25.050 -14.821  0.00  0.00    +0.187 C 
BRANCH  17  18
ATOM     18  C   UNL     1      37.284 -25.494 -14.843  0.00  0.00    -0.025 C 
BRANCH  18  19
ATOM     19  N   UNL     1      37.906 -25.199 -13.527  0.00  0.00    +0.391 N 
ATOM     20  C   UNL     1      37.307 -26.088 -12.430  0.00  0.00    -0.096 C 
BRANCH  19  21
ATOM     21  C   UNL     1      39.420 -25.451 -13.573  0.00  0.00    -0.073 C 
ATOM     22  C   UNL     1      39.910 -25.283 -14.995  0.00  0.00    -0.024 C 
ENDBRANCH  19  21
BRANCH  19  23
ATOM     23  C   UNL     1      37.678 -23.733 -13.133  0.00  0.00    -0.073 C 
ATOM     24  C   UNL     1      37.324 -23.662 -11.664  0.00  0.00    -0.024 C 
ENDBRANCH  19  23
ENDBRANCH  18  19
ENDBRANCH  17  18
ENDBRANCH  16  17
ENDBRANCH  15  16
ENDBRANCH   1  15
TORSDOF 10
ENDMDL
MODEL 8
REMARK VINA RESULT:      -7.1      2.670      6.706
REMARK  Name = 6067
REMARK  10 active torsions:
REMARK  status: ('A' for Active; 'I' for Inactive)
REMARK    1  A    between atoms: C_1  and  C_3
REMARK    2  A    between atoms: C_1  and  C_7
REMARK    3  A    between atoms: C_1  and  O_12
REMARK    4  A    between atoms: C_1  and  C_15
REMARK    5  A    between atoms: C_15  and  O_16
REMARK    6  A    between atoms: O_16  and  C_17
REMARK    7  A    between atoms: C_17  and  C_18
REMARK    8  A    between atoms: C_18  and  N_19
REMARK    9  A    between atoms: N_19  and  C_21
REMARK   10  A    between atoms: N_19  and  C_23
REMARK                            x       y       z     vdW  Elec       q    Type
REMARK                         _______ _______ _______ _____ _____    ______ ____
ROOT
ATOM      1  C   UNL     1      35.248 -18.195 -21.951  0.00  0.00    +0.202 C 
ENDROOT
BRANCH   1   3
ATOM      2  S   UNL     1      34.297 -18.961 -24.472  0.00  0.00    -0.088 S 
ATOM      3  C   UNL     1      34.982 -17.809 -23.406  0.00  0.00    +0.041 C 
ATOM      4  C   UNL     1      35.223 -16.606 -24.032  0.00  0.00    +0.005 C 
ATOM      5  C   UNL     1      34.841 -16.629 -25.405  0.00  0.00    +0.007 C 
ATOM      6  C   UNL     1      34.321 -17.850 -25.776  0.00  0.00    +0.035 C 
ENDBRANCH   1   3
BRANCH   1   7
ATOM      7  C   UNL     1      34.640 -19.503 -21.476  0.00  0.00    +0.040 C 
ATOM      8  C   UNL     1      33.307 -19.321 -20.757  0.00  0.00    +0.003 C 
ATOM      9  C   UNL     1      35.485 -20.212 -20.422  0.00  0.00    +0.003 C 
ATOM     10  C   UNL     1      33.116 -20.631 -20.000  0.00  0.00    +0.000 C 
ATOM     11  C   UNL     1      34.518 -21.199 -19.775  0.00  0.00    +0.000 C 
ENDBRANCH   1   7
BRANCH   1  12
ATOM     12  O   UNL     1      36.669 -18.309 -21.831  0.00  0.00    -0.372 OA
ATOM     13  H   UNL     1      37.027 -18.735 -22.627  0.00  0.00    +0.211 HD
ENDBRANCH   1  12
BRANCH   1  15
ATOM     14  O   UNL     1      35.363 -16.717 -20.013  0.00  0.00    -0.247 OA
ATOM     15  C   UNL     1      34.796 -17.045 -21.049  0.00  0.00    +0.346 C 
BRANCH  15  16
ATOM     16  O   UNL     1      33.676 -16.452 -21.560  0.00  0.00    -0.449 OA
BRANCH  16  17
ATOM     17  C   UNL     1      33.451 -15.098 -21.153  0.00  0.00    +0.187 C 
BRANCH  17  18
ATOM     18  C   UNL     1      34.130 -14.156 -22.128  0.00  0.00    -0.025 C 
BRANCH  18  19
ATOM     19  N   UNL     1      33.098 -13.360 -22.839  0.00  0.00    +0.391 N 
ATOM     20  C   UNL     1      32.513 -14.154 -24.014  0.00  0.00    -0.096 C 
BRANCH  19  21
ATOM     21  C   UNL     1      31.948 -12.991 -21.892  0.00  0.00    -0.073 C 
ATOM     22  C   UNL     1      31.749 -11.491 -21.911  0.00  0.00    -0.024 C 
ENDBRANCH  19  21
BRANCH  19  23
ATOM     23  C   UNL     1      33.698 -12.061 -23.392  0.00  0.00    -0.073 C 
ATOM     24  C   UNL     1      33.796 -12.158 -24.898  0.00  0.00    -0.024 C 
ENDBRANCH  19  23
ENDBRANCH  18  19
ENDBRANCH  17  18
ENDBRANCH  16  17
ENDBRANCH  15  16
ENDBRANCH   1  15
TORSDOF 10
ENDMDL
MODEL 9
REMARK VINA RESULT:      -6.9      9.990     12.605
REMARK  Name = 6067
REMARK  10 active torsions:
REMARK  status: ('A' for Active; 'I' for Inactive)
REMARK    1  A    between atoms: C_1  and  C_3
REMARK    2  A    between atoms: C_1  and  C_7
REMARK    3  A    between atoms: C_1  and  O_12
REMARK    4  A    between atoms: C_1  and  C_15
REMARK    5  A    between atoms: C_15  and  O_16
REMARK    6  A    between atoms: O_16  and  C_17
REMARK    7  A    between atoms: C_17  and  C_18
REMARK    8  A    between atoms: C_18  and  N_19
REMARK    9  A    between atoms: N_19  and  C_21
REMARK   10  A    between atoms: N_19  and  C_23
REMARK                            x       y       z     vdW  Elec       q    Type
REMARK                         _______ _______ _______ _____ _____    ______ ____
ROOT
ATOM      1  C   UNL     1      33.795 -23.475 -15.349  0.00  0.00    +0.202 C 
ENDROOT
BRANCH   1   3
ATOM      2  S   UNL     1      31.733 -25.062 -14.308  0.00  0.00    -0.088 S 
ATOM      3  C   UNL     1      32.296 -23.651 -15.098  0.00  0.00    +0.041 C 
ATOM      4  C   UNL     1      31.266 -22.799 -15.431  0.00  0.00    +0.005 C 
ATOM      5  C   UNL     1      29.997 -23.311 -15.032  0.00  0.00    +0.007 C 
ATOM      6  C   UNL     1      30.107 -24.535 -14.408  0.00  0.00    +0.035 C 
ENDBRANCH   1   3
BRANCH   1   7
ATOM      7  C   UNL     1      34.235 -23.412 -16.801  0.00  0.00    +0.040 C 
ATOM      8  C   UNL     1      35.296 -22.348 -17.062  0.00  0.00    +0.003 C 
ATOM      9  C   UNL     1      33.116 -22.995 -17.751  0.00  0.00    +0.003 C 
ATOM     10  C   UNL     1      35.255 -22.151 -18.574  0.00  0.00    +0.000 C 
ATOM     11  C   UNL     1      33.848 -22.556 -19.015  0.00  0.00    +0.000 C 
ENDBRANCH   1   7
BRANCH   1  12
ATOM     12  O   UNL     1      34.150 -22.233 -14.734  0.00  0.00    -0.372 OA
ATOM     13  H   UNL     1      33.420 -21.931 -14.170  0.00  0.00    +0.211 HD
ENDBRANCH   1  12
BRANCH   1  15
ATOM     14  O   UNL     1      34.554 -24.731 -13.399  0.00  0.00    -0.247 OA
ATOM     15  C   UNL     1      34.547 -24.588 -14.617  0.00  0.00    +0.346 C 
BRANCH  15  16
ATOM     16  O   UNL     1      35.205 -25.385 -15.511  0.00  0.00    -0.449 OA
BRANCH  16  17
ATOM     17  C   UNL     1      36.303 -26.134 -14.981  0.00  0.00    +0.187 C 
BRANCH  17  18
ATOM     18  C   UNL     1      37.554 -25.278 -14.993  0.00  0.00    -0.025 C 
BRANCH  18  19
ATOM     19  N   UNL     1      38.109 -25.203 -13.617  0.00  0.00    +0.391 N 
ATOM     20  C   UNL     1      37.427 -26.225 -12.699  0.00  0.00    -0.096 C 
BRANCH  19  21
ATOM     21  C   UNL     1      39.616 -25.496 -13.622  0.00  0.00    -0.073 C 
ATOM     22  C   UNL     1      40.127 -25.455 -15.046  0.00  0.00    -0.024 C 
ENDBRANCH  19  21
BRANCH  19  23
ATOM     23  C   UNL     1      37.896 -23.806 -13.020  0.00  0.00    -0.073 C 
ATOM     24  C   UNL     1      37.554 -23.939 -11.552  0.00  0.00    -0.024 C 
ENDBRANCH  19  23
ENDBRANCH  18  19
ENDBRANCH  17  18
ENDBRANCH  16  17
ENDBRANCH  15  16
ENDBRANCH   1  15
TORSDOF 10
ENDMDL
