MODEL 1
REMARK VINA RESULT:      -6.4      0.000      0.000
REMARK  Name = 1673
REMARK  0 active torsions:
REMARK  status: ('A' for Active; 'I' for Inactive)
REMARK                            x       y       z     vdW  Elec       q    Type
REMARK                         _______ _______ _______ _____ _____    ______ ____
ROOT
ATOM      1  N   UNL     1      34.716 -19.599 -21.028  0.00  0.00    -0.270 N 
ATOM      2  N   UNL     1      36.710 -20.502 -19.884  0.00  0.00    -0.228 NA
ATOM      3  N   UNL     1      32.653 -20.618 -20.337  0.00  0.00    -0.233 NA
ATOM      4  N   UNL     1      35.615 -22.055 -18.596  0.00  0.00    -0.239 NA
ATOM      5  C   UNL     1      35.445 -20.394 -20.172  0.00  0.00    +0.151 C 
ATOM      6  C   UNL     1      34.707 -21.376 -19.360  0.00  0.00    +0.140 C 
ATOM      7  C   UNL     1      33.362 -21.459 -19.466  0.00  0.00    +0.143 C 
ATOM      8  C   UNL     1      33.341 -19.764 -21.042  0.00  0.00    +0.223 C 
ATOM      9  C   UNL     1      35.359 -18.571 -21.830  0.00  0.00    +0.115 C 
ATOM     10  C   UNL     1      36.748 -21.512 -18.935  0.00  0.00    +0.252 C 
ATOM     11  N   UNL     1      32.697 -22.386 -18.694  0.00  0.00    -0.342 N 
ATOM     12  H   UNL     1      31.717 -22.464 -18.755  0.00  0.00    +0.144 HD
ATOM     13  H   UNL     1      33.201 -22.969 -18.082  0.00  0.00    +0.144 HD
ENDROOT
TORSDOF 0
ENDMDL
MODEL 2
REMARK VINA RESULT:      -6.2      3.944      5.726
REMARK  Name = 1673
REMARK  0 active torsions:
REMARK  status: ('A' for Active; 'I' for Inactive)
REMARK                            x       y       z     vdW  Elec       q    Type
REMARK                         _______ _______ _______ _____ _____    ______ ____
ROOT
ATOM      1  N   UNL     1      34.283 -14.812 -22.606  0.00  0.00    -0.270 N 
ATOM      2  N   UNL     1      34.450 -16.206 -24.638  0.00  0.00    -0.228 NA
ATOM      3  N   UNL     1      34.901 -15.958 -20.587  0.00  0.00    -0.233 NA
ATOM      4  N   UNL     1      35.144 -18.132 -23.601  0.00  0.00    -0.239 NA
ATOM      5  C   UNL     1      34.525 -15.934 -23.368  0.00  0.00    +0.151 C 
ATOM      6  C   UNL     1      34.972 -17.149 -22.667  0.00  0.00    +0.140 C 
ATOM      7  C   UNL     1      35.140 -17.127 -21.326  0.00  0.00    +0.143 C 
ATOM      8  C   UNL     1      34.503 -14.904 -21.242  0.00  0.00    +0.223 C 
ATOM      9  C   UNL     1      33.885 -13.557 -23.223  0.00  0.00    +0.115 C 
ATOM     10  C   UNL     1      34.832 -17.536 -24.715  0.00  0.00    +0.252 C 
ATOM     11  N   UNL     1      35.561 -18.277 -20.696  0.00  0.00    -0.342 N 
ATOM     12  H   UNL     1      35.691 -18.284 -19.720  0.00  0.00    +0.144 HD
ATOM     13  H   UNL     1      35.731 -19.092 -21.222  0.00  0.00    +0.144 HD
ENDROOT
TORSDOF 0
ENDMDL
MODEL 3
REMARK VINA RESULT:      -6.2      3.610      5.347
REMARK  Name = 1673
REMARK  0 active torsions:
REMARK  status: ('A' for Active; 'I' for Inactive)
REMARK                            x       y       z     vdW  Elec       q    Type
REMARK                         _______ _______ _______ _____ _____    ______ ____
ROOT
ATOM      1  N   UNL     1      34.545 -16.673 -23.991  0.00  0.00    -0.270 N 
ATOM      2  N   UNL     1      34.120 -14.852 -22.377  0.00  0.00    -0.228 NA
ATOM      3  N   UNL     1      35.491 -18.648 -23.003  0.00  0.00    -0.233 NA
ATOM      4  N   UNL     1      34.912 -15.937 -20.516  0.00  0.00    -0.239 NA
ATOM      5  C   UNL     1      34.514 -16.027 -22.775  0.00  0.00    +0.151 C 
ATOM      6  C   UNL     1      35.029 -16.757 -21.603  0.00  0.00    +0.140 C 
ATOM      7  C   UNL     1      35.494 -18.017 -21.749  0.00  0.00    +0.143 C 
ATOM      8  C   UNL     1      35.031 -17.970 -24.016  0.00  0.00    +0.223 C 
ATOM      9  C   UNL     1      34.013 -16.044 -25.189  0.00  0.00    +0.115 C 
ATOM     10  C   UNL     1      34.384 -14.858 -21.016  0.00  0.00    +0.252 C 
ATOM     11  N   UNL     1      35.967 -18.676 -20.637  0.00  0.00    -0.342 N 
ATOM     12  H   UNL     1      36.312 -19.596 -20.719  0.00  0.00    +0.144 HD
ATOM     13  H   UNL     1      35.962 -18.229 -19.760  0.00  0.00    +0.144 HD
ENDROOT
TORSDOF 0
ENDMDL
MODEL 4
REMARK VINA RESULT:      -6.1      7.754      8.283
REMARK  Name = 1673
REMARK  0 active torsions:
REMARK  status: ('A' for Active; 'I' for Inactive)
REMARK                            x       y       z     vdW  Elec       q    Type
REMARK                         _______ _______ _______ _____ _____    ______ ____
ROOT
ATOM      1  N   UNL     1      37.228 -23.903 -12.920  0.00  0.00    -0.270 N 
ATOM      2  N   UNL     1      39.529 -24.717 -13.293  0.00  0.00    -0.228 NA
ATOM      3  N   UNL     1      35.549 -25.156 -14.096  0.00  0.00    -0.233 NA
ATOM      4  N   UNL     1      38.993 -26.419 -14.736  0.00  0.00    -0.239 NA
ATOM      5  C   UNL     1      38.235 -24.691 -13.430  0.00  0.00    +0.151 C 
ATOM      6  C   UNL     1      37.852 -25.775 -14.350  0.00  0.00    +0.140 C 
ATOM      7  C   UNL     1      36.549 -25.970 -14.651  0.00  0.00    +0.143 C 
ATOM      8  C   UNL     1      35.928 -24.205 -13.290  0.00  0.00    +0.223 C 
ATOM      9  C   UNL     1      37.513 -22.841 -11.968  0.00  0.00    +0.115 C 
ATOM     10  C   UNL     1      39.926 -25.772 -14.099  0.00  0.00    +0.252 C 
ATOM     11  N   UNL     1      36.218 -26.992 -15.513  0.00  0.00    -0.342 N 
ATOM     12  H   UNL     1      35.275 -27.153 -15.747  0.00  0.00    +0.144 HD
ATOM     13  H   UNL     1      36.925 -27.562 -15.895  0.00  0.00    +0.144 HD
ENDROOT
TORSDOF 0
ENDMDL
MODEL 5
REMARK VINA RESULT:      -6.1      5.007      7.084
REMARK  Name = 1673
REMARK  0 active torsions:
REMARK  status: ('A' for Active; 'I' for Inactive)
REMARK                            x       y       z     vdW  Elec       q    Type
REMARK                         _______ _______ _______ _____ _____    ______ ____
ROOT
ATOM      1  N   UNL     1      34.980 -17.345 -23.729  0.00  0.00    -0.270 N 
ATOM      2  N   UNL     1      34.749 -15.551 -22.047  0.00  0.00    -0.228 NA
ATOM      3  N   UNL     1      34.044 -16.797 -25.872  0.00  0.00    -0.233 NA
ATOM      4  N   UNL     1      33.627 -14.059 -23.382  0.00  0.00    -0.239 NA
ATOM      5  C   UNL     1      34.613 -16.125 -23.207  0.00  0.00    +0.151 C 
ATOM      6  C   UNL     1      33.898 -15.193 -24.096  0.00  0.00    +0.140 C 
ATOM      7  C   UNL     1      33.638 -15.550 -25.373  0.00  0.00    +0.143 C 
ATOM      8  C   UNL     1      34.672 -17.595 -25.056  0.00  0.00    +0.223 C 
ATOM      9  C   UNL     1      35.731 -18.305 -22.936  0.00  0.00    +0.115 C 
ATOM     10  C   UNL     1      34.139 -14.318 -22.214  0.00  0.00    +0.252 C 
ATOM     11  N   UNL     1      32.969 -14.658 -26.182  0.00  0.00    -0.342 N 
ATOM     12  H   UNL     1      32.768 -14.897 -27.116  0.00  0.00    +0.144 HD
ATOM     13  H   UNL     1      32.690 -13.783 -25.826  0.00  0.00    +0.144 HD
ENDROOT
TORSDOF 0
ENDMDL
MODEL 6
REMARK VINA RESULT:      -6.0      5.813      7.821
REMARK  Name = 1673
REMARK  0 active torsions:
REMARK  status: ('A' for Active; 'I' for Inactive)
REMARK                            x       y       z     vdW  Elec       q    Type
REMARK                         _______ _______ _______ _____ _____    ______ ____
ROOT
ATOM      1  N   UNL     1      34.498 -17.077 -24.395  0.00  0.00    -0.270 N 
ATOM      2  N   UNL     1      33.290 -16.091 -26.310  0.00  0.00    -0.228 NA
ATOM      3  N   UNL     1      34.912 -15.530 -22.604  0.00  0.00    -0.233 NA
ATOM      4  N   UNL     1      33.121 -13.962 -25.468  0.00  0.00    -0.239 NA
ATOM      5  C   UNL     1      33.865 -16.109 -25.143  0.00  0.00    +0.151 C 
ATOM      6  C   UNL     1      33.773 -14.757 -24.567  0.00  0.00    +0.140 C 
ATOM      7  C   UNL     1      34.290 -14.512 -23.343  0.00  0.00    +0.143 C 
ATOM      8  C   UNL     1      34.977 -16.713 -23.148  0.00  0.00    +0.223 C 
ATOM      9  C   UNL     1      34.590 -18.449 -24.867  0.00  0.00    +0.115 C 
ATOM     10  C   UNL     1      32.865 -14.779 -26.449  0.00  0.00    +0.252 C 
ATOM     11  N   UNL     1      34.189 -13.239 -22.828  0.00  0.00    -0.342 N 
ATOM     12  H   UNL     1      34.559 -13.037 -21.938  0.00  0.00    +0.144 HD
ATOM     13  H   UNL     1      33.748 -12.530 -23.350  0.00  0.00    +0.144 HD
ENDROOT
TORSDOF 0
ENDMDL
MODEL 7
REMARK VINA RESULT:      -6.0      5.745      7.397
REMARK  Name = 1673
REMARK  0 active torsions:
REMARK  status: ('A' for Active; 'I' for Inactive)
REMARK                            x       y       z     vdW  Elec       q    Type
REMARK                         _______ _______ _______ _____ _____    ______ ____
ROOT
ATOM      1  N   UNL     1      34.099 -15.170 -22.606  0.00  0.00    -0.270 N 
ATOM      2  N   UNL     1      34.949 -17.181 -23.760  0.00  0.00    -0.228 NA
ATOM      3  N   UNL     1      32.826 -13.702 -24.019  0.00  0.00    -0.233 NA
ATOM      4  N   UNL     1      34.104 -16.690 -25.837  0.00  0.00    -0.239 NA
ATOM      5  C   UNL     1      34.322 -16.047 -23.644  0.00  0.00    +0.151 C 
ATOM      6  C   UNL     1      33.761 -15.699 -24.961  0.00  0.00    +0.140 C 
ATOM      7  C   UNL     1      33.048 -14.560 -25.107  0.00  0.00    +0.143 C 
ATOM      8  C   UNL     1      33.341 -14.041 -22.871  0.00  0.00    +0.223 C 
ATOM      9  C   UNL     1      34.575 -15.460 -21.263  0.00  0.00    +0.115 C 
ATOM     10  C   UNL     1      34.784 -17.516 -25.095  0.00  0.00    +0.252 C 
ATOM     11  N   UNL     1      32.534 -14.261 -26.349  0.00  0.00    -0.342 N 
ATOM     12  H   UNL     1      32.011 -13.436 -26.479  0.00  0.00    +0.144 HD
ATOM     13  H   UNL     1      32.689 -14.870 -27.106  0.00  0.00    +0.144 HD
ENDROOT
TORSDOF 0
ENDMDL
MODEL 8
REMARK VINA RESULT:      -6.0      5.355      6.550
REMARK  Name = 1673
REMARK  0 active torsions:
REMARK  status: ('A' for Active; 'I' for Inactive)
REMARK                            x       y       z     vdW  Elec       q    Type
REMARK                         _______ _______ _______ _____ _____    ______ ____
ROOT
ATOM      1  N   UNL     1      33.608 -15.107 -25.058  0.00  0.00    -0.270 N 
ATOM      2  N   UNL     1      34.168 -17.444 -25.626  0.00  0.00    -0.228 NA
ATOM      3  N   UNL     1      34.078 -14.520 -22.776  0.00  0.00    -0.233 NA
ATOM      4  N   UNL     1      34.915 -18.066 -23.547  0.00  0.00    -0.239 NA
ATOM      5  C   UNL     1      34.055 -16.395 -24.865  0.00  0.00    +0.151 C 
ATOM      6  C   UNL     1      34.529 -16.755 -23.518  0.00  0.00    +0.140 C 
ATOM      7  C   UNL     1      34.524 -15.828 -22.534  0.00  0.00    +0.143 C 
ATOM      8  C   UNL     1      33.663 -14.240 -23.979  0.00  0.00    +0.223 C 
ATOM      9  C   UNL     1      33.168 -14.653 -26.368  0.00  0.00    +0.115 C 
ATOM     10  C   UNL     1      34.688 -18.412 -24.782  0.00  0.00    +0.252 C 
ATOM     11  N   UNL     1      34.974 -16.192 -21.285  0.00  0.00    -0.342 N 
ATOM     12  H   UNL     1      34.980 -15.534 -20.553  0.00  0.00    +0.144 HD
ATOM     13  H   UNL     1      35.290 -17.111 -21.123  0.00  0.00    +0.144 HD
ENDROOT
TORSDOF 0
ENDMDL
MODEL 9
REMARK VINA RESULT:      -5.9      7.063      8.479
REMARK  Name = 1673
REMARK  0 active torsions:
REMARK  status: ('A' for Active; 'I' for Inactive)
REMARK                            x       y       z     vdW  Elec       q    Type
REMARK                         _______ _______ _______ _____ _____    ______ ____
ROOT
ATOM      1  N   UNL     1      36.040 -24.954 -14.462  0.00  0.00    -0.270 N 
ATOM      2  N   UNL     1      36.494 -23.322 -12.665  0.00  0.00    -0.228 NA
ATOM      3  N   UNL     1      37.894 -26.399 -14.957  0.00  0.00    -0.233 NA
ATOM      4  N   UNL     1      38.667 -23.945 -12.265  0.00  0.00    -0.239 NA
ATOM      5  C   UNL     1      36.756 -24.296 -13.488  0.00  0.00    +0.151 C 
ATOM      6  C   UNL     1      38.146 -24.726 -13.258  0.00  0.00    +0.140 C 
ATOM      7  C   UNL     1      38.664 -25.741 -13.985  0.00  0.00    +0.143 C 
ATOM      8  C   UNL     1      36.671 -25.988 -15.135  0.00  0.00    +0.223 C 
ATOM      9  C   UNL     1      34.647 -24.626 -14.721  0.00  0.00    +0.115 C 
ATOM     10  C   UNL     1      37.676 -23.157 -11.960  0.00  0.00    +0.252 C 
ATOM     11  N   UNL     1      39.965 -26.123 -13.748  0.00  0.00    -0.342 N 
ATOM     12  H   UNL     1      40.364 -26.860 -14.266  0.00  0.00    +0.144 HD
ATOM     13  H   UNL     1      40.497 -25.660 -13.062  0.00  0.00    +0.144 HD
ENDROOT
TORSDOF 0
ENDMDL
