MODEL 1
REMARK VINA RESULT:     -12.4      0.000      0.000
REMARK  Name = 5330608
REMARK  5 active torsions:
REMARK  status: ('A' for Active; 'I' for Inactive)
REMARK    1  A    between atoms: C_6  and  C_11
REMARK    2  A    between atoms: C_11  and  C_14
REMARK    3  A    between atoms: N_20  and  C_22
REMARK    4  A    between atoms: C_23  and  S_28
REMARK    5  A    between atoms: S_28  and  N_31
REMARK                            x       y       z     vdW  Elec       q    Type
REMARK                         _______ _______ _______ _____ _____    ______ ____
ROOT
ATOM      1  N   UNL     1      34.147 -14.917 -23.435  0.00  0.00    -0.253 N 
ATOM      2  N   UNL     1      33.535 -16.372 -21.850  0.00  0.00    -0.374 NA
ATOM      3  C   UNL     1      33.315 -15.172 -22.348  0.00  0.00    +0.189 C 
ATOM      4  C   UNL     1      34.528 -16.909 -22.628  0.00  0.00    +0.183 C 
ATOM      5  C   UNL     1      34.924 -16.034 -23.612  0.00  0.00    +0.173 C 
ATOM      6  C   UNL     1      33.272 -12.761 -23.790  0.00  0.00    +0.054 C 
ATOM      7  C   UNL     1      34.132 -13.726 -24.156  0.00  0.00    +0.071 C 
ATOM      8  C   UNL     1      32.407 -14.139 -21.970  0.00  0.00    +0.048 C 
ATOM      9  C   UNL     1      32.383 -12.983 -22.659  0.00  0.00    +0.008 C 
ATOM     10  N   UNL     1      35.032 -18.146 -22.427  0.00  0.00    -0.290 N 
ATOM     11  H   UNL     1      35.738 -18.379 -23.071  0.00  0.00    +0.154 HD
ENDROOT
BRANCH  10  12
ATOM     12  C   UNL     1      34.765 -19.207 -21.475  0.00  0.00    +0.050 C 
ATOM     13  C   UNL     1      34.261 -21.218 -19.668  0.00  0.00    +0.122 C 
ATOM     14  C   UNL     1      35.832 -19.832 -20.872  0.00  0.00    +0.016 C 
ATOM     15  C   UNL     1      33.458 -19.544 -21.214  0.00  0.00    +0.016 C 
ATOM     16  C   UNL     1      35.576 -20.852 -19.955  0.00  0.00    +0.021 C 
ATOM     17  C   UNL     1      33.202 -20.564 -20.298  0.00  0.00    +0.021 C 
BRANCH  13  18
ATOM     18  S   UNL     1      33.941 -22.494 -18.521  0.00  0.00    +0.057 S 
ATOM     19  O   UNL     1      35.056 -22.562 -17.586  0.00  0.00    -0.153 OA
ATOM     20  O   UNL     1      32.583 -22.333 -18.016  0.00  0.00    -0.153 OA
BRANCH  18  21
ATOM     21  N   UNL     1      33.988 -23.867 -19.537  0.00  0.00    -0.203 NA
ATOM     22  H   UNL     1      33.037 -24.164 -19.751  0.00  0.00    +0.144 HD
ATOM     23  H   UNL     1      34.482 -24.623 -19.062  0.00  0.00    +0.144 HD
ENDBRANCH  18  21
ENDBRANCH  13  18
ENDBRANCH  10  12
BRANCH   6  25
ATOM     24  O   UNL     1      33.023 -11.504 -25.753  0.00  0.00    -0.286 OA
ATOM     25  C   UNL     1      33.253 -11.507 -24.543  0.00  0.00    +0.198 C 
BRANCH  25  28
ATOM     26 CL   UNL     1      31.122 -10.679 -22.535  0.00  0.00    -0.082 Cl
ATOM     27 CL   UNL     1      35.808 -10.023 -25.261  0.00  0.00    -0.082 Cl
ATOM     28  C   UNL     1      33.489 -10.224 -23.828  0.00  0.00    +0.060 C 
ATOM     29  C   UNL     1      32.558  -9.789 -22.904  0.00  0.00    +0.062 C 
ATOM     30  C   UNL     1      34.631  -9.500 -24.109  0.00  0.00    +0.062 C 
ATOM     31  C   UNL     1      32.779  -8.585 -22.235  0.00  0.00    +0.012 C 
ATOM     32  C   UNL     1      34.852  -8.296 -23.441  0.00  0.00    +0.012 C 
ATOM     33  C   UNL     1      33.926  -7.838 -22.503  0.00  0.00    +0.002 C 
ENDBRANCH  25  28
ENDBRANCH   6  25
TORSDOF 5
ENDMDL
MODEL 2
REMARK VINA RESULT:     -12.4      0.048      1.883
REMARK  Name = 5330608
REMARK  5 active torsions:
REMARK  status: ('A' for Active; 'I' for Inactive)
REMARK    1  A    between atoms: C_6  and  C_11
REMARK    2  A    between atoms: C_11  and  C_14
REMARK    3  A    between atoms: N_20  and  C_22
REMARK    4  A    between atoms: C_23  and  S_28
REMARK    5  A    between atoms: S_28  and  N_31
REMARK                            x       y       z     vdW  Elec       q    Type
REMARK                         _______ _______ _______ _____ _____    ______ ____
ROOT
ATOM      1  N   UNL     1      34.159 -14.910 -23.458  0.00  0.00    -0.253 N 
ATOM      2  N   UNL     1      33.544 -16.362 -21.872  0.00  0.00    -0.374 NA
ATOM      3  C   UNL     1      33.322 -15.165 -22.375  0.00  0.00    +0.189 C 
ATOM      4  C   UNL     1      34.544 -16.898 -22.643  0.00  0.00    +0.183 C 
ATOM      5  C   UNL     1      34.941 -16.024 -23.627  0.00  0.00    +0.173 C 
ATOM      6  C   UNL     1      33.276 -12.759 -23.825  0.00  0.00    +0.054 C 
ATOM      7  C   UNL     1      34.143 -13.721 -24.183  0.00  0.00    +0.071 C 
ATOM      8  C   UNL     1      32.407 -14.135 -22.005  0.00  0.00    +0.048 C 
ATOM      9  C   UNL     1      32.382 -12.981 -22.699  0.00  0.00    +0.008 C 
ATOM     10  N   UNL     1      35.051 -18.132 -22.435  0.00  0.00    -0.290 N 
ATOM     11  H   UNL     1      35.762 -18.364 -23.074  0.00  0.00    +0.154 HD
ENDROOT
BRANCH  10  12
ATOM     12  C   UNL     1      34.784 -19.191 -21.480  0.00  0.00    +0.050 C 
ATOM     13  C   UNL     1      34.276 -21.198 -19.670  0.00  0.00    +0.122 C 
ATOM     14  C   UNL     1      33.476 -19.508 -21.199  0.00  0.00    +0.016 C 
ATOM     15  C   UNL     1      35.850 -19.833 -20.895  0.00  0.00    +0.016 C 
ATOM     16  C   UNL     1      33.218 -20.526 -20.282  0.00  0.00    +0.021 C 
ATOM     17  C   UNL     1      35.592 -20.852 -19.977  0.00  0.00    +0.021 C 
BRANCH  13  18
ATOM     18  S   UNL     1      33.954 -22.472 -18.522  0.00  0.00    +0.057 S 
ATOM     19  O   UNL     1      35.070 -22.541 -17.588  0.00  0.00    -0.153 OA
ATOM     20  O   UNL     1      32.597 -22.310 -18.017  0.00  0.00    -0.153 OA
BRANCH  18  21
ATOM     21  N   UNL     1      34.000 -23.846 -19.537  0.00  0.00    -0.203 NA
ATOM     22  H   UNL     1      34.919 -23.916 -19.974  0.00  0.00    +0.144 HD
ATOM     23  H   UNL     1      33.286 -23.756 -20.261  0.00  0.00    +0.144 HD
ENDBRANCH  18  21
ENDBRANCH  13  18
ENDBRANCH  10  12
BRANCH   6  25
ATOM     24  O   UNL     1      33.006 -11.507 -25.788  0.00  0.00    -0.286 OA
ATOM     25  C   UNL     1      33.256 -11.508 -24.583  0.00  0.00    +0.198 C 
BRANCH  25  28
ATOM     26 CL   UNL     1      35.821 -10.057 -25.340  0.00  0.00    -0.082 Cl
ATOM     27 CL   UNL     1      31.162 -10.644 -22.553  0.00  0.00    -0.082 Cl
ATOM     28  C   UNL     1      33.517 -10.224 -23.876  0.00  0.00    +0.060 C 
ATOM     29  C   UNL     1      34.666  -9.516 -24.173  0.00  0.00    +0.062 C 
ATOM     30  C   UNL     1      32.605  -9.776 -22.941  0.00  0.00    +0.062 C 
ATOM     31  C   UNL     1      34.912  -8.314 -23.509  0.00  0.00    +0.012 C 
ATOM     32  C   UNL     1      32.850  -8.574 -22.277  0.00  0.00    +0.012 C 
ATOM     33  C   UNL     1      34.004  -7.843 -22.561  0.00  0.00    +0.002 C 
ENDBRANCH  25  28
ENDBRANCH   6  25
TORSDOF 5
ENDMDL
MODEL 3
REMARK VINA RESULT:     -12.2      1.754      2.412
REMARK  Name = 5330608
REMARK  5 active torsions:
REMARK  status: ('A' for Active; 'I' for Inactive)
REMARK    1  A    between atoms: C_6  and  C_11
REMARK    2  A    between atoms: C_11  and  C_14
REMARK    3  A    between atoms: N_20  and  C_22
REMARK    4  A    between atoms: C_23  and  S_28
REMARK    5  A    between atoms: S_28  and  N_31
REMARK                            x       y       z     vdW  Elec       q    Type
REMARK                         _______ _______ _______ _____ _____    ______ ____
ROOT
ATOM      1  N   UNL     1      34.167 -15.090 -22.837  0.00  0.00    -0.253 N 
ATOM      2  N   UNL     1      33.495 -16.654 -21.386  0.00  0.00    -0.374 NA
ATOM      3  C   UNL     1      33.268 -15.435 -21.830  0.00  0.00    +0.189 C 
ATOM      4  C   UNL     1      34.562 -17.112 -22.116  0.00  0.00    +0.183 C 
ATOM      5  C   UNL     1      34.995 -16.168 -23.017  0.00  0.00    +0.173 C 
ATOM      6  C   UNL     1      33.240 -12.946 -23.136  0.00  0.00    +0.054 C 
ATOM      7  C   UNL     1      34.160 -13.859 -23.490  0.00  0.00    +0.071 C 
ATOM      8  C   UNL     1      32.297 -14.456 -21.465  0.00  0.00    +0.048 C 
ATOM      9  C   UNL     1      32.281 -13.263 -22.089  0.00  0.00    +0.008 C 
ATOM     10  N   UNL     1      35.095 -18.341 -21.947  0.00  0.00    -0.290 N 
ATOM     11  H   UNL     1      35.854 -18.513 -22.548  0.00  0.00    +0.154 HD
ENDROOT
BRANCH  10  12
ATOM     12  C   UNL     1      34.799 -19.463 -21.077  0.00  0.00    +0.050 C 
ATOM     13  C   UNL     1      34.241 -21.592 -19.428  0.00  0.00    +0.122 C 
ATOM     14  C   UNL     1      35.848 -20.167 -20.533  0.00  0.00    +0.016 C 
ATOM     15  C   UNL     1      33.483 -19.778 -20.833  0.00  0.00    +0.016 C 
ATOM     16  C   UNL     1      35.565 -21.246 -19.696  0.00  0.00    +0.021 C 
ATOM     17  C   UNL     1      33.199 -20.857 -19.996  0.00  0.00    +0.021 C 
BRANCH  13  18
ATOM     18  S   UNL     1      33.885 -22.942 -18.380  0.00  0.00    +0.057 S 
ATOM     19  O   UNL     1      33.824 -24.150 -19.193  0.00  0.00    -0.153 OA
ATOM     20  O   UNL     1      34.781 -22.887 -17.233  0.00  0.00    -0.153 OA
BRANCH  18  21
ATOM     21  N   UNL     1      32.306 -22.546 -17.862  0.00  0.00    -0.203 NA
ATOM     22  H   UNL     1      31.792 -23.401 -17.654  0.00  0.00    +0.144 HD
ATOM     23  H   UNL     1      31.826 -22.032 -18.600  0.00  0.00    +0.144 HD
ENDBRANCH  18  21
ENDBRANCH  13  18
ENDBRANCH  10  12
BRANCH   6  25
ATOM     24  O   UNL     1      32.598 -10.703 -23.354  0.00  0.00    -0.286 OA
ATOM     25  C   UNL     1      33.229 -11.653 -23.818  0.00  0.00    +0.198 C 
BRANCH  25  28
ATOM     26 CL   UNL     1      32.665 -13.660 -26.034  0.00  0.00    -0.082 Cl
ATOM     27 CL   UNL     1      35.204  -9.340 -23.863  0.00  0.00    -0.082 Cl
ATOM     28  C   UNL     1      34.012 -11.483 -25.072  0.00  0.00    +0.060 C 
ATOM     29  C   UNL     1      33.805 -12.363 -26.117  0.00  0.00    +0.062 C 
ATOM     30  C   UNL     1      34.928 -10.452 -25.156  0.00  0.00    +0.062 C 
ATOM     31  C   UNL     1      34.541 -12.206 -27.291  0.00  0.00    +0.012 C 
ATOM     32  C   UNL     1      35.664 -10.294 -26.331  0.00  0.00    +0.012 C 
ATOM     33  C   UNL     1      35.470 -11.171 -27.398  0.00  0.00    +0.002 C 
ENDBRANCH  25  28
ENDBRANCH   6  25
TORSDOF 5
ENDMDL
MODEL 4
REMARK VINA RESULT:     -12.2      1.746      2.713
REMARK  Name = 5330608
REMARK  5 active torsions:
REMARK  status: ('A' for Active; 'I' for Inactive)
REMARK    1  A    between atoms: C_6  and  C_11
REMARK    2  A    between atoms: C_11  and  C_14
REMARK    3  A    between atoms: N_20  and  C_22
REMARK    4  A    between atoms: C_23  and  S_28
REMARK    5  A    between atoms: S_28  and  N_31
REMARK                            x       y       z     vdW  Elec       q    Type
REMARK                         _______ _______ _______ _____ _____    ______ ____
ROOT
ATOM      1  N   UNL     1      34.151 -15.082 -22.848  0.00  0.00    -0.253 N 
ATOM      2  N   UNL     1      33.484 -16.642 -21.390  0.00  0.00    -0.374 NA
ATOM      3  C   UNL     1      33.257 -15.423 -21.836  0.00  0.00    +0.189 C 
ATOM      4  C   UNL     1      34.545 -17.104 -22.125  0.00  0.00    +0.183 C 
ATOM      5  C   UNL     1      34.975 -16.163 -23.031  0.00  0.00    +0.173 C 
ATOM      6  C   UNL     1      33.227 -12.937 -23.146  0.00  0.00    +0.054 C 
ATOM      7  C   UNL     1      34.143 -13.853 -23.503  0.00  0.00    +0.071 C 
ATOM      8  C   UNL     1      32.290 -14.442 -21.467  0.00  0.00    +0.048 C 
ATOM      9  C   UNL     1      32.273 -13.250 -22.093  0.00  0.00    +0.008 C 
ATOM     10  N   UNL     1      35.076 -18.334 -21.957  0.00  0.00    -0.290 N 
ATOM     11  H   UNL     1      35.832 -18.509 -22.562  0.00  0.00    +0.154 HD
ENDROOT
BRANCH  10  12
ATOM     12  C   UNL     1      34.783 -19.454 -21.084  0.00  0.00    +0.050 C 
ATOM     13  C   UNL     1      34.226 -21.577 -19.427  0.00  0.00    +0.122 C 
ATOM     14  C   UNL     1      33.468 -19.785 -20.858  0.00  0.00    +0.016 C 
ATOM     15  C   UNL     1      35.833 -20.138 -20.517  0.00  0.00    +0.016 C 
ATOM     16  C   UNL     1      33.186 -20.862 -20.018  0.00  0.00    +0.021 C 
ATOM     17  C   UNL     1      35.551 -21.216 -19.677  0.00  0.00    +0.021 C 
BRANCH  13  18
ATOM     18  S   UNL     1      33.874 -22.926 -18.376  0.00  0.00    +0.057 S 
ATOM     19  O   UNL     1      33.830 -24.138 -19.184  0.00  0.00    -0.153 OA
ATOM     20  O   UNL     1      34.760 -22.858 -17.222  0.00  0.00    -0.153 OA
BRANCH  18  21
ATOM     21  N   UNL     1      32.287 -22.541 -17.872  0.00  0.00    -0.203 NA
ATOM     22  H   UNL     1      32.176 -22.779 -16.887  0.00  0.00    +0.144 HD
ATOM     23  H   UNL     1      31.617 -23.073 -18.428  0.00  0.00    +0.144 HD
ENDBRANCH  18  21
ENDBRANCH  13  18
ENDBRANCH  10  12
BRANCH   6  25
ATOM     24  O   UNL     1      32.569 -10.699 -23.377  0.00  0.00    -0.286 OA
ATOM     25  C   UNL     1      33.215 -11.645 -23.830  0.00  0.00    +0.198 C 
BRANCH  25  28
ATOM     26 CL   UNL     1      35.190  -9.331 -23.842  0.00  0.00    -0.082 Cl
ATOM     27 CL   UNL     1      32.684 -13.646 -26.058  0.00  0.00    -0.082 Cl
ATOM     28  C   UNL     1      34.015 -11.471 -25.073  0.00  0.00    +0.060 C 
ATOM     29  C   UNL     1      34.929 -10.437 -25.144  0.00  0.00    +0.062 C 
ATOM     30  C   UNL     1      33.821 -12.347 -26.124  0.00  0.00    +0.062 C 
ATOM     31  C   UNL     1      35.678 -10.273 -26.310  0.00  0.00    +0.012 C 
ATOM     32  C   UNL     1      34.569 -12.183 -27.290  0.00  0.00    +0.012 C 
ATOM     33  C   UNL     1      35.498 -11.146 -27.383  0.00  0.00    +0.002 C 
ENDBRANCH  25  28
ENDBRANCH   6  25
TORSDOF 5
ENDMDL
MODEL 5
REMARK VINA RESULT:     -12.1      4.852     10.519
REMARK  Name = 5330608
REMARK  5 active torsions:
REMARK  status: ('A' for Active; 'I' for Inactive)
REMARK    1  A    between atoms: C_6  and  C_11
REMARK    2  A    between atoms: C_11  and  C_14
REMARK    3  A    between atoms: N_20  and  C_22
REMARK    4  A    between atoms: C_23  and  S_28
REMARK    5  A    between atoms: S_28  and  N_31
REMARK                            x       y       z     vdW  Elec       q    Type
REMARK                         _______ _______ _______ _____ _____    ______ ____
ROOT
ATOM      1  N   UNL     1      34.196 -15.560 -23.291  0.00  0.00    -0.253 N 
ATOM      2  N   UNL     1      33.775 -13.626 -22.248  0.00  0.00    -0.374 NA
ATOM      3  C   UNL     1      34.044 -14.904 -22.071  0.00  0.00    +0.189 C 
ATOM      4  C   UNL     1      33.751 -13.446 -23.607  0.00  0.00    +0.183 C 
ATOM      5  C   UNL     1      34.007 -14.622 -24.273  0.00  0.00    +0.173 C 
ATOM      6  C   UNL     1      34.627 -17.645 -22.285  0.00  0.00    +0.054 C 
ATOM      7  C   UNL     1      34.485 -16.917 -23.406  0.00  0.00    +0.071 C 
ATOM      8  C   UNL     1      34.196 -15.688 -20.890  0.00  0.00    +0.048 C 
ATOM      9  C   UNL     1      34.476 -17.001 -20.989  0.00  0.00    +0.008 C 
ATOM     10  N   UNL     1      33.505 -12.251 -24.186  0.00  0.00    -0.290 N 
ATOM     11  H   UNL     1      33.524 -12.294 -25.169  0.00  0.00    +0.154 HD
ENDROOT
BRANCH  10  12
ATOM     12  C   UNL     1      33.218 -10.922 -23.685  0.00  0.00    +0.050 C 
ATOM     13  C   UNL     1      32.676  -8.399 -22.733  0.00  0.00    +0.122 C 
ATOM     14  C   UNL     1      34.074  -9.896 -24.014  0.00  0.00    +0.016 C 
ATOM     15  C   UNL     1      32.103 -10.740 -22.900  0.00  0.00    +0.016 C 
ATOM     16  C   UNL     1      33.798  -8.617 -23.531  0.00  0.00    +0.021 C 
ATOM     17  C   UNL     1      31.828  -9.461 -22.418  0.00  0.00    +0.021 C 
BRANCH  13  18
ATOM     18  S   UNL     1      32.330  -6.798 -22.130  0.00  0.00    +0.057 S 
ATOM     19  O   UNL     1      32.503  -6.805 -20.684  0.00  0.00    -0.153 OA
ATOM     20  O   UNL     1      33.057  -5.830 -22.941  0.00  0.00    -0.153 OA
BRANCH  18  21
ATOM     21  N   UNL     1      30.664  -6.668 -22.486  0.00  0.00    -0.203 NA
ATOM     22  H   UNL     1      30.160  -6.367 -21.651  0.00  0.00    +0.144 HD
ATOM     23  H   UNL     1      30.310  -7.576 -22.787  0.00  0.00    +0.144 HD
ENDBRANCH  18  21
ENDBRANCH  13  18
ENDBRANCH  10  12
BRANCH   6  25
ATOM     24  O   UNL     1      34.963 -19.619 -23.503  0.00  0.00    -0.286 OA
ATOM     25  C   UNL     1      34.930 -19.071 -22.401  0.00  0.00    +0.198 C 
BRANCH  25  28
ATOM     26 CL   UNL     1      37.840 -19.132 -21.516  0.00  0.00    -0.082 Cl
ATOM     27 CL   UNL     1      32.553 -20.422 -21.068  0.00  0.00    -0.082 Cl
ATOM     28  C   UNL     1      35.226 -19.855 -21.171  0.00  0.00    +0.060 C 
ATOM     29  C   UNL     1      36.529 -19.924 -20.717  0.00  0.00    +0.062 C 
ATOM     30  C   UNL     1      34.190 -20.494 -20.518  0.00  0.00    +0.062 C 
ATOM     31  C   UNL     1      36.807 -20.661 -19.565  0.00  0.00    +0.012 C 
ATOM     32  C   UNL     1      34.467 -21.231 -19.366  0.00  0.00    +0.012 C 
ATOM     33  C   UNL     1      35.776 -21.314 -18.890  0.00  0.00    +0.002 C 
ENDBRANCH  25  28
ENDBRANCH   6  25
TORSDOF 5
ENDMDL
MODEL 6
REMARK VINA RESULT:     -12.1      4.851     10.396
REMARK  Name = 5330608
REMARK  5 active torsions:
REMARK  status: ('A' for Active; 'I' for Inactive)
REMARK    1  A    between atoms: C_6  and  C_11
REMARK    2  A    between atoms: C_11  and  C_14
REMARK    3  A    between atoms: N_20  and  C_22
REMARK    4  A    between atoms: C_23  and  S_28
REMARK    5  A    between atoms: S_28  and  N_31
REMARK                            x       y       z     vdW  Elec       q    Type
REMARK                         _______ _______ _______ _____ _____    ______ ____
ROOT
ATOM      1  N   UNL     1      34.173 -15.574 -23.281  0.00  0.00    -0.253 N 
ATOM      2  N   UNL     1      33.759 -13.640 -22.237  0.00  0.00    -0.374 NA
ATOM      3  C   UNL     1      34.029 -14.917 -22.061  0.00  0.00    +0.189 C 
ATOM      4  C   UNL     1      33.726 -13.461 -23.596  0.00  0.00    +0.183 C 
ATOM      5  C   UNL     1      33.978 -14.637 -24.263  0.00  0.00    +0.173 C 
ATOM      6  C   UNL     1      34.611 -17.658 -22.277  0.00  0.00    +0.054 C 
ATOM      7  C   UNL     1      34.462 -16.932 -23.398  0.00  0.00    +0.071 C 
ATOM      8  C   UNL     1      34.190 -15.700 -20.880  0.00  0.00    +0.048 C 
ATOM      9  C   UNL     1      34.469 -17.013 -20.980  0.00  0.00    +0.008 C 
ATOM     10  N   UNL     1      33.477 -12.266 -24.175  0.00  0.00    -0.290 N 
ATOM     11  H   UNL     1      33.489 -12.309 -25.157  0.00  0.00    +0.154 HD
ENDROOT
BRANCH  10  12
ATOM     12  C   UNL     1      33.193 -10.936 -23.672  0.00  0.00    +0.050 C 
ATOM     13  C   UNL     1      32.658  -8.412 -22.719  0.00  0.00    +0.122 C 
ATOM     14  C   UNL     1      34.047  -9.911 -24.007  0.00  0.00    +0.016 C 
ATOM     15  C   UNL     1      32.083 -10.754 -22.881  0.00  0.00    +0.016 C 
ATOM     16  C   UNL     1      33.775  -8.631 -23.523  0.00  0.00    +0.021 C 
ATOM     17  C   UNL     1      31.811  -9.474 -22.398  0.00  0.00    +0.021 C 
BRANCH  13  18
ATOM     18  S   UNL     1      32.316  -6.811 -22.115  0.00  0.00    +0.057 S 
ATOM     19  O   UNL     1      32.475  -6.823 -20.667  0.00  0.00    -0.153 OA
ATOM     20  O   UNL     1      33.057  -5.846 -22.916  0.00  0.00    -0.153 OA
BRANCH  18  21
ATOM     21  N   UNL     1      30.654  -6.670 -22.485  0.00  0.00    -0.203 NA
ATOM     22  H   UNL     1      30.178  -7.541 -22.252  0.00  0.00    +0.144 HD
ATOM     23  H   UNL     1      30.544  -6.479 -23.481  0.00  0.00    +0.144 HD
ENDBRANCH  18  21
ENDBRANCH  13  18
ENDBRANCH  10  12
BRANCH   6  25
ATOM     24  O   UNL     1      34.919 -19.638 -23.493  0.00  0.00    -0.286 OA
ATOM     25  C   UNL     1      34.913 -19.084 -22.394  0.00  0.00    +0.198 C 
BRANCH  25  28
ATOM     26 CL   UNL     1      32.574 -20.447 -21.005  0.00  0.00    -0.082 Cl
ATOM     27 CL   UNL     1      37.841 -19.125 -21.573  0.00  0.00    -0.082 Cl
ATOM     28  C   UNL     1      35.240 -19.862 -21.168  0.00  0.00    +0.060 C 
ATOM     29  C   UNL     1      34.222 -20.504 -20.488  0.00  0.00    +0.062 C 
ATOM     30  C   UNL     1      36.553 -19.920 -20.741  0.00  0.00    +0.062 C 
ATOM     31  C   UNL     1      34.529 -21.232 -19.338  0.00  0.00    +0.012 C 
ATOM     32  C   UNL     1      36.859 -20.647 -19.591  0.00  0.00    +0.012 C 
ATOM     33  C   UNL     1      35.848 -21.303 -18.889  0.00  0.00    +0.002 C 
ENDBRANCH  25  28
ENDBRANCH   6  25
TORSDOF 5
ENDMDL
MODEL 7
REMARK VINA RESULT:     -11.8      1.407      1.677
REMARK  Name = 5330608
REMARK  5 active torsions:
REMARK  status: ('A' for Active; 'I' for Inactive)
REMARK    1  A    between atoms: C_6  and  C_11
REMARK    2  A    between atoms: C_11  and  C_14
REMARK    3  A    between atoms: N_20  and  C_22
REMARK    4  A    between atoms: C_23  and  S_28
REMARK    5  A    between atoms: S_28  and  N_31
REMARK                            x       y       z     vdW  Elec       q    Type
REMARK                         _______ _______ _______ _____ _____    ______ ____
ROOT
ATOM      1  N   UNL     1      32.918 -14.156 -22.480  0.00  0.00    -0.253 N 
ATOM      2  N   UNL     1      33.081 -15.774 -20.945  0.00  0.00    -0.374 NA
ATOM      3  C   UNL     1      32.717 -14.525 -21.152  0.00  0.00    +0.189 C 
ATOM      4  C   UNL     1      33.527 -16.228 -22.160  0.00  0.00    +0.183 C 
ATOM      5  C   UNL     1      33.437 -15.251 -23.124  0.00  0.00    +0.173 C 
ATOM      6  C   UNL     1      32.112 -11.968 -22.150  0.00  0.00    +0.054 C 
ATOM      7  C   UNL     1      32.621 -12.892 -22.983  0.00  0.00    +0.071 C 
ATOM      8  C   UNL     1      32.178 -13.536 -20.278  0.00  0.00    +0.048 C 
ATOM      9  C   UNL     1      31.886 -12.310 -20.753  0.00  0.00    +0.008 C 
ATOM     10  N   UNL     1      33.988 -17.482 -22.353  0.00  0.00    -0.290 N 
ATOM     11  H   UNL     1      34.269 -17.646 -23.281  0.00  0.00    +0.154 HD
ENDROOT
BRANCH  10  12
ATOM     12  C   UNL     1      34.163 -18.640 -21.498  0.00  0.00    +0.050 C 
ATOM     13  C   UNL     1      34.497 -20.837 -19.877  0.00  0.00    +0.122 C 
ATOM     14  C   UNL     1      35.442 -19.036 -21.181  0.00  0.00    +0.016 C 
ATOM     15  C   UNL     1      33.044 -19.296 -21.041  0.00  0.00    +0.016 C 
ATOM     16  C   UNL     1      35.610 -20.150 -20.358  0.00  0.00    +0.021 C 
ATOM     17  C   UNL     1      33.213 -20.410 -20.218  0.00  0.00    +0.021 C 
BRANCH  13  18
ATOM     18  S   UNL     1      34.707 -22.230 -18.847  0.00  0.00    +0.057 S 
ATOM     19  O   UNL     1      36.100 -22.280 -18.421  0.00  0.00    -0.153 OA
ATOM     20  O   UNL     1      33.646 -22.234 -17.850  0.00  0.00    -0.153 OA
BRANCH  18  21
ATOM     21  N   UNL     1      34.424 -23.500 -19.954  0.00  0.00    -0.203 NA
ATOM     22  H   UNL     1      34.984 -23.352 -20.793  0.00  0.00    +0.144 HD
ATOM     23  H   UNL     1      33.435 -23.517 -20.205  0.00  0.00    +0.144 HD
ENDBRANCH  18  21
ENDBRANCH  13  18
ENDBRANCH  10  12
BRANCH   6  25
ATOM     24  O   UNL     1      30.635 -10.309 -22.896  0.00  0.00    -0.286 OA
ATOM     25  C   UNL     1      31.800 -10.639 -22.672  0.00  0.00    +0.198 C 
BRANCH  25  28
ATOM     26 CL   UNL     1      31.997  -8.321 -20.712  0.00  0.00    -0.082 Cl
ATOM     27 CL   UNL     1      33.595 -11.212 -25.060  0.00  0.00    -0.082 Cl
ATOM     28  C   UNL     1      32.905  -9.671 -22.910  0.00  0.00    +0.060 C 
ATOM     29  C   UNL     1      33.049  -8.594 -22.056  0.00  0.00    +0.062 C 
ATOM     30  C   UNL     1      33.756  -9.874 -23.979  0.00  0.00    +0.062 C 
ATOM     31  C   UNL     1      34.083  -7.685 -22.280  0.00  0.00    +0.012 C 
ATOM     32  C   UNL     1      34.790  -8.965 -24.203  0.00  0.00    +0.012 C 
ATOM     33  C   UNL     1      34.954  -7.871 -23.354  0.00  0.00    +0.002 C 
ENDBRANCH  25  28
ENDBRANCH   6  25
TORSDOF 5
ENDMDL
MODEL 8
REMARK VINA RESULT:     -11.6      4.925     10.426
REMARK  Name = 5330608
REMARK  5 active torsions:
REMARK  status: ('A' for Active; 'I' for Inactive)
REMARK    1  A    between atoms: C_6  and  C_11
REMARK    2  A    between atoms: C_11  and  C_14
REMARK    3  A    between atoms: N_20  and  C_22
REMARK    4  A    between atoms: C_23  and  S_28
REMARK    5  A    between atoms: S_28  and  N_31
REMARK                            x       y       z     vdW  Elec       q    Type
REMARK                         _______ _______ _______ _____ _____    ______ ____
ROOT
ATOM      1  N   UNL     1      33.383 -15.760 -21.612  0.00  0.00    -0.253 N 
ATOM      2  N   UNL     1      33.481 -13.626 -22.276  0.00  0.00    -0.374 NA
ATOM      3  C   UNL     1      33.909 -14.847 -22.524  0.00  0.00    +0.189 C 
ATOM      4  C   UNL     1      32.661 -13.745 -21.183  0.00  0.00    +0.183 C 
ATOM      5  C   UNL     1      32.583 -15.049 -20.754  0.00  0.00    +0.173 C 
ATOM      6  C   UNL     1      34.491 -17.596 -22.585  0.00  0.00    +0.054 C 
ATOM      7  C   UNL     1      33.666 -17.124 -21.635  0.00  0.00    +0.071 C 
ATOM      8  C   UNL     1      34.783 -15.362 -23.526  0.00  0.00    +0.048 C 
ATOM      9  C   UNL     1      35.063 -16.678 -23.558  0.00  0.00    +0.008 C 
ATOM     10  N   UNL     1      32.024 -12.694 -20.624  0.00  0.00    -0.290 N 
ATOM     11  H   UNL     1      31.476 -12.950 -19.848  0.00  0.00    +0.154 HD
ENDROOT
BRANCH  10  12
ATOM     12  C   UNL     1      31.968 -11.274 -20.910  0.00  0.00    +0.050 C 
ATOM     13  C   UNL     1      31.862  -8.580 -21.454  0.00  0.00    +0.122 C 
ATOM     14  C   UNL     1      31.844 -10.871 -22.219  0.00  0.00    +0.016 C 
ATOM     15  C   UNL     1      32.042 -10.388 -19.861  0.00  0.00    +0.016 C 
ATOM     16  C   UNL     1      31.790  -9.505 -22.495  0.00  0.00    +0.021 C 
ATOM     17  C   UNL     1      31.987  -9.021 -20.136  0.00  0.00    +0.021 C 
BRANCH  13  18
ATOM     18  S   UNL     1      31.793  -6.870 -21.798  0.00  0.00    +0.057 S 
ATOM     19  O   UNL     1      30.580  -6.603 -22.559  0.00  0.00    -0.153 OA
ATOM     20  O   UNL     1      32.049  -6.138 -20.564  0.00  0.00    -0.153 OA
BRANCH  18  21
ATOM     21  N   UNL     1      33.142  -6.691 -22.831  0.00  0.00    -0.203 NA
ATOM     22  H   UNL     1      32.974  -7.195 -23.701  0.00  0.00    +0.144 HD
ATOM     23  H   UNL     1      33.972  -7.069 -22.374  0.00  0.00    +0.144 HD
ENDBRANCH  18  21
ENDBRANCH  13  18
ENDBRANCH  10  12
BRANCH   6  25
ATOM     24  O   UNL     1      34.670 -19.675 -23.653  0.00  0.00    -0.286 OA
ATOM     25  C   UNL     1      34.791 -19.027 -22.613  0.00  0.00    +0.198 C 
BRANCH  25  28
ATOM     26 CL   UNL     1      37.769 -18.798 -22.034  0.00  0.00    -0.082 Cl
ATOM     27 CL   UNL     1      32.680 -20.459 -20.956  0.00  0.00    -0.082 Cl
ATOM     28  C   UNL     1      35.272 -19.695 -21.373  0.00  0.00    +0.060 C 
ATOM     29  C   UNL     1      36.615 -19.630 -21.053  0.00  0.00    +0.062 C 
ATOM     30  C   UNL     1      34.363 -20.364 -20.576  0.00  0.00    +0.062 C 
ATOM     31  C   UNL     1      37.066 -20.258 -19.892  0.00  0.00    +0.012 C 
ATOM     32  C   UNL     1      34.814 -20.992 -19.415  0.00  0.00    +0.012 C 
ATOM     33  C   UNL     1      36.165 -20.939 -19.073  0.00  0.00    +0.002 C 
ENDBRANCH  25  28
ENDBRANCH   6  25
TORSDOF 5
ENDMDL
MODEL 9
REMARK VINA RESULT:     -11.6      4.923     10.301
REMARK  Name = 5330608
REMARK  5 active torsions:
REMARK  status: ('A' for Active; 'I' for Inactive)
REMARK    1  A    between atoms: C_6  and  C_11
REMARK    2  A    between atoms: C_11  and  C_14
REMARK    3  A    between atoms: N_20  and  C_22
REMARK    4  A    between atoms: C_23  and  S_28
REMARK    5  A    between atoms: S_28  and  N_31
REMARK                            x       y       z     vdW  Elec       q    Type
REMARK                         _______ _______ _______ _____ _____    ______ ____
ROOT
ATOM      1  N   UNL     1      33.384 -15.798 -21.594  0.00  0.00    -0.253 N 
ATOM      2  N   UNL     1      33.508 -13.658 -22.234  0.00  0.00    -0.374 NA
ATOM      3  C   UNL     1      33.941 -14.878 -22.480  0.00  0.00    +0.189 C 
ATOM      4  C   UNL     1      32.654 -13.785 -21.169  0.00  0.00    +0.183 C 
ATOM      5  C   UNL     1      32.559 -15.093 -20.755  0.00  0.00    +0.173 C 
ATOM      6  C   UNL     1      34.516 -17.628 -22.549  0.00  0.00    +0.054 C 
ATOM      7  C   UNL     1      33.663 -17.162 -21.622  0.00  0.00    +0.071 C 
ATOM      8  C   UNL     1      34.845 -15.386 -23.459  0.00  0.00    +0.048 C 
ATOM      9  C   UNL     1      35.122 -16.703 -23.495  0.00  0.00    +0.008 C 
ATOM     10  N   UNL     1      32.002 -12.738 -20.620  0.00  0.00    -0.290 N 
ATOM     11  H   UNL     1      31.429 -12.999 -19.864  0.00  0.00    +0.154 HD
ENDROOT
BRANCH  10  12
ATOM     12  C   UNL     1      31.959 -11.314 -20.894  0.00  0.00    +0.050 C 
ATOM     13  C   UNL     1      31.878  -8.615 -21.415  0.00  0.00    +0.122 C 
ATOM     14  C   UNL     1      31.886 -10.899 -22.203  0.00  0.00    +0.016 C 
ATOM     15  C   UNL     1      31.994 -10.439 -19.834  0.00  0.00    +0.016 C 
ATOM     16  C   UNL     1      31.845  -9.529 -22.467  0.00  0.00    +0.021 C 
ATOM     17  C   UNL     1      31.952  -9.070 -20.098  0.00  0.00    +0.021 C 
BRANCH  13  18
ATOM     18  S   UNL     1      31.826  -6.902 -21.744  0.00  0.00    +0.057 S 
ATOM     19  O   UNL     1      30.588  -6.608 -22.454  0.00  0.00    -0.153 OA
ATOM     20  O   UNL     1      32.142  -6.184 -20.516  0.00  0.00    -0.153 OA
BRANCH  18  21
ATOM     21  N   UNL     1      33.136  -6.737 -22.828  0.00  0.00    -0.203 NA
ATOM     22  H   UNL     1      33.425  -5.760 -22.867  0.00  0.00    +0.144 HD
ATOM     23  H   UNL     1      32.847  -7.042 -23.758  0.00  0.00    +0.144 HD
ENDBRANCH  18  21
ENDBRANCH  13  18
ENDBRANCH  10  12
BRANCH   6  25
ATOM     24  O   UNL     1      34.695 -19.703 -23.625  0.00  0.00    -0.286 OA
ATOM     25  C   UNL     1      34.813 -19.060 -22.582  0.00  0.00    +0.198 C 
BRANCH  25  28
ATOM     26 CL   UNL     1      32.696 -20.514 -20.952  0.00  0.00    -0.082 Cl
ATOM     27 CL   UNL     1      37.785 -18.822 -21.979  0.00  0.00    -0.082 Cl
ATOM     28  C   UNL     1      35.287 -19.734 -21.342  0.00  0.00    +0.060 C 
ATOM     29  C   UNL     1      34.375 -20.411 -20.555  0.00  0.00    +0.062 C 
ATOM     30  C   UNL     1      36.626 -19.662 -21.011  0.00  0.00    +0.062 C 
ATOM     31  C   UNL     1      34.819 -21.040 -19.393  0.00  0.00    +0.012 C 
ATOM     32  C   UNL     1      37.071 -20.292 -19.848  0.00  0.00    +0.012 C 
ATOM     33  C   UNL     1      36.167 -20.981 -19.039  0.00  0.00    +0.002 C 
ENDBRANCH  25  28
ENDBRANCH   6  25
TORSDOF 5
ENDMDL
