MODEL 1
REMARK VINA RESULT:     -10.9      0.000      0.000
REMARK  Name = 11143173
REMARK  9 active torsions:
REMARK  status: ('A' for Active; 'I' for Inactive)
REMARK    1  A    between atoms: C_1  and  C_4
REMARK    2  A    between atoms: C_1  and  C_17
REMARK    3  A    between atoms: C_1  and  C_26
REMARK    4  A    between atoms: N_3  and  C_6
REMARK    5  A    between atoms: C_7  and  O_15
REMARK    6  A    between atoms: C_17  and  C_18
REMARK    7  A    between atoms: C_21  and  O_24
REMARK    8  A    between atoms: C_26  and  C_29
REMARK    9  A    between atoms: N_28  and  O_31
REMARK                            x       y       z     vdW  Elec       q    Type
REMARK                         _______ _______ _______ _____ _____    ______ ____
ROOT
ATOM      1  C   UNL     1      33.487 -23.630 -16.091  0.00  0.00    +0.090 C 
ENDROOT
BRANCH   1   4
ATOM      2  O   UNL     1      33.405 -24.175 -18.454  0.00  0.00    -0.275 OA
ATOM      3  N   UNL     1      34.811 -22.464 -17.757  0.00  0.00    -0.300 N 
ATOM      4  C   UNL     1      33.882 -23.476 -17.563  0.00  0.00    +0.223 C 
ATOM      5  H   UNL     1      35.128 -21.963 -16.971  0.00  0.00    +0.150 HD
BRANCH   3   6
ATOM      6  C   UNL     1      35.330 -22.109 -19.047  0.00  0.00    +0.121 C 
ATOM      7  C   UNL     1      36.743 -21.489 -18.999  0.00  0.00    +0.137 C 
ATOM      8  C   UNL     1      36.858 -20.587 -20.242  0.00  0.00    +0.057 C 
ATOM      9  C   UNL     1      34.557 -21.030 -19.748  0.00  0.00    -0.006 C 
ATOM     10  C   UNL     1      35.429 -20.172 -20.434  0.00  0.00    -0.022 C 
ATOM     11  C   UNL     1      33.184 -20.854 -19.826  0.00  0.00    -0.003 C 
ATOM     12  C   UNL     1      34.948 -19.125 -21.201  0.00  0.00    -0.004 C 
ATOM     13  C   UNL     1      32.691 -19.792 -20.587  0.00  0.00    -0.000 C 
ATOM     14  C   UNL     1      33.567 -18.933 -21.270  0.00  0.00    -0.000 C 
BRANCH   7  15
ATOM     15  O   UNL     1      36.891 -20.680 -17.829  0.00  0.00    -0.382 OA
ATOM     16  H   UNL     1      37.659 -20.098 -17.933  0.00  0.00    +0.210 HD
ENDBRANCH   7  15
ENDBRANCH   3   6
ENDBRANCH   1   4
BRANCH   1  17
ATOM     17  C   UNL     1      32.301 -22.701 -15.757  0.00  0.00    +0.036 C 
BRANCH  17  18
ATOM     18  C   UNL     1      30.975 -23.415 -15.662  0.00  0.00    -0.019 C 
ATOM     19  C   UNL     1      29.979 -23.124 -16.582  0.00  0.00    +0.032 C 
ATOM     20  C   UNL     1      30.775 -24.348 -14.657  0.00  0.00    -0.004 C 
ATOM     21  C   UNL     1      28.753 -23.784 -16.494  0.00  0.00    +0.133 C 
ATOM     22  C   UNL     1      29.550 -25.008 -14.570  0.00  0.00    +0.003 C 
ATOM     23  C   UNL     1      28.538 -24.727 -15.488  0.00  0.00    +0.037 C 
BRANCH  21  24
ATOM     24  O   UNL     1      27.766 -23.510 -17.390  0.00  0.00    -0.506 OA
ATOM     25  H   UNL     1      27.710 -23.997 -18.189  0.00  0.00    +0.292 HD
ENDBRANCH  21  24
ENDBRANCH  17  18
ENDBRANCH   1  17
BRANCH   1  26
ATOM     26  C   UNL     1      34.717 -23.346 -15.206  0.00  0.00    +0.097 C 
BRANCH  26  29
ATOM     27  O   UNL     1      36.010 -25.369 -15.538  0.00  0.00    -0.273 OA
ATOM     28  N   UNL     1      35.428 -24.749 -13.393  0.00  0.00    -0.197 N 
ATOM     29  C   UNL     1      35.451 -24.603 -14.758  0.00  0.00    +0.245 C 
ATOM     30  H   UNL     1      34.966 -24.108 -12.806  0.00  0.00    +0.182 HD
BRANCH  28  31
ATOM     31  O   UNL     1      36.104 -25.866 -12.886  0.00  0.00    -0.295 OA
ATOM     32  H   UNL     1      37.020 -25.623 -12.675  0.00  0.00    +0.241 HD
ENDBRANCH  28  31
ENDBRANCH  26  29
ENDBRANCH   1  26
TORSDOF 9
ENDMDL
MODEL 2
REMARK VINA RESULT:     -10.1      5.183      8.758
REMARK  Name = 11143173
REMARK  9 active torsions:
REMARK  status: ('A' for Active; 'I' for Inactive)
REMARK    1  A    between atoms: C_1  and  C_4
REMARK    2  A    between atoms: C_1  and  C_17
REMARK    3  A    between atoms: C_1  and  C_26
REMARK    4  A    between atoms: N_3  and  C_6
REMARK    5  A    between atoms: C_7  and  O_15
REMARK    6  A    between atoms: C_17  and  C_18
REMARK    7  A    between atoms: C_21  and  O_24
REMARK    8  A    between atoms: C_26  and  C_29
REMARK    9  A    between atoms: N_28  and  O_31
REMARK                            x       y       z     vdW  Elec       q    Type
REMARK                         _______ _______ _______ _____ _____    ______ ____
ROOT
ATOM      1  C   UNL     1      35.093 -18.607 -22.138  0.00  0.00    +0.090 C 
ENDROOT
BRANCH   1   4
ATOM      2  O   UNL     1      35.650 -17.182 -20.255  0.00  0.00    -0.275 OA
ATOM      3  N   UNL     1      34.191 -16.371 -21.868  0.00  0.00    -0.300 N 
ATOM      4  C   UNL     1      35.022 -17.326 -21.301  0.00  0.00    +0.223 C 
ATOM      5  H   UNL     1      33.733 -16.590 -22.712  0.00  0.00    +0.150 HD
BRANCH   3   6
ATOM      6  C   UNL     1      33.968 -15.078 -21.287  0.00  0.00    +0.121 C 
ATOM      7  C   UNL     1      32.760 -15.031 -20.325  0.00  0.00    +0.137 C 
ATOM      8  C   UNL     1      32.255 -13.575 -20.343  0.00  0.00    +0.057 C 
ATOM      9  C   UNL     1      33.599 -14.011 -22.277  0.00  0.00    -0.006 C 
ATOM     10  C   UNL     1      32.632 -13.154 -21.733  0.00  0.00    -0.022 C 
ATOM     11  C   UNL     1      34.124 -13.778 -23.539  0.00  0.00    -0.003 C 
ATOM     12  C   UNL     1      32.169 -12.056 -22.439  0.00  0.00    -0.004 C 
ATOM     13  C   UNL     1      33.652 -12.681 -24.263  0.00  0.00    -0.000 C 
ATOM     14  C   UNL     1      32.682 -11.826 -23.717  0.00  0.00    -0.000 C 
BRANCH   7  15
ATOM     15  O   UNL     1      31.716 -15.885 -20.797  0.00  0.00    -0.382 OA
ATOM     16  H   UNL     1      32.083 -16.756 -21.014  0.00  0.00    +0.210 HD
ENDBRANCH   7  15
ENDBRANCH   3   6
ENDBRANCH   1   4
BRANCH   1  17
ATOM     17  C   UNL     1      35.825 -19.717 -21.353  0.00  0.00    +0.036 C 
BRANCH  17  18
ATOM     18  C   UNL     1      34.927 -20.509 -20.436  0.00  0.00    -0.019 C 
ATOM     19  C   UNL     1      35.493 -21.366 -19.504  0.00  0.00    +0.032 C 
ATOM     20  C   UNL     1      33.552 -20.368 -20.541  0.00  0.00    -0.004 C 
ATOM     21  C   UNL     1      34.662 -22.099 -18.655  0.00  0.00    +0.133 C 
ATOM     22  C   UNL     1      32.722 -21.100 -19.692  0.00  0.00    +0.003 C 
ATOM     23  C   UNL     1      33.276 -21.966 -18.750  0.00  0.00    +0.037 C 
BRANCH  21  24
ATOM     24  O   UNL     1      35.203 -22.943 -17.736  0.00  0.00    -0.506 OA
ATOM     25  H   UNL     1      34.747 -23.121 -16.937  0.00  0.00    +0.292 HD
ENDBRANCH  21  24
ENDBRANCH  17  18
ENDBRANCH   1  17
BRANCH   1  26
ATOM     26  C   UNL     1      35.778 -18.295 -23.483  0.00  0.00    +0.097 C 
BRANCH  26  29
ATOM     27  O   UNL     1      33.947 -18.781 -24.993  0.00  0.00    -0.273 OA
ATOM     28  N   UNL     1      34.983 -16.722 -25.110  0.00  0.00    -0.197 N 
ATOM     29  C   UNL     1      34.802 -17.988 -24.609  0.00  0.00    +0.245 C 
ATOM     30  H   UNL     1      35.683 -16.120 -24.770  0.00  0.00    +0.182 HD
BRANCH  28  31
ATOM     31  O   UNL     1      34.108 -16.340 -26.136  0.00  0.00    -0.295 OA
ATOM     32  H   UNL     1      33.214 -16.660 -25.934  0.00  0.00    +0.241 HD
ENDBRANCH  28  31
ENDBRANCH  26  29
ENDBRANCH   1  26
TORSDOF 9
ENDMDL
MODEL 3
REMARK VINA RESULT:      -9.7      6.511     11.217
REMARK  Name = 11143173
REMARK  9 active torsions:
REMARK  status: ('A' for Active; 'I' for Inactive)
REMARK    1  A    between atoms: C_1  and  C_4
REMARK    2  A    between atoms: C_1  and  C_17
REMARK    3  A    between atoms: C_1  and  C_26
REMARK    4  A    between atoms: N_3  and  C_6
REMARK    5  A    between atoms: C_7  and  O_15
REMARK    6  A    between atoms: C_17  and  C_18
REMARK    7  A    between atoms: C_21  and  O_24
REMARK    8  A    between atoms: C_26  and  C_29
REMARK    9  A    between atoms: N_28  and  O_31
REMARK                            x       y       z     vdW  Elec       q    Type
REMARK                         _______ _______ _______ _____ _____    ______ ____
ROOT
ATOM      1  C   UNL     1      33.878 -14.934 -23.081  0.00  0.00    +0.090 C 
ENDROOT
BRANCH   1   4
ATOM      2  O   UNL     1      34.899 -14.949 -20.880  0.00  0.00    -0.275 OA
ATOM      3  N   UNL     1      34.752 -16.949 -22.049  0.00  0.00    -0.300 N 
ATOM      4  C   UNL     1      34.568 -15.585 -21.878  0.00  0.00    +0.223 C 
ATOM      5  H   UNL     1      34.449 -17.360 -22.891  0.00  0.00    +0.150 HD
BRANCH   3   6
ATOM      6  C   UNL     1      35.362 -17.791 -21.059  0.00  0.00    +0.121 C 
ATOM      7  C   UNL     1      36.714 -18.390 -21.502  0.00  0.00    +0.137 C 
ATOM      8  C   UNL     1      36.877 -19.705 -20.717  0.00  0.00    +0.057 C 
ATOM      9  C   UNL     1      34.579 -19.031 -20.738  0.00  0.00    -0.006 C 
ATOM     10  C   UNL     1      35.445 -20.115 -20.534  0.00  0.00    -0.022 C 
ATOM     11  C   UNL     1      33.210 -19.178 -20.574  0.00  0.00    -0.003 C 
ATOM     12  C   UNL     1      34.961 -21.361 -20.173  0.00  0.00    -0.004 C 
ATOM     13  C   UNL     1      32.713 -20.434 -20.223  0.00  0.00    -0.000 C 
ATOM     14  C   UNL     1      33.582 -21.518 -20.023  0.00  0.00    -0.000 C 
BRANCH   7  15
ATOM     15  O   UNL     1      36.690 -18.690 -22.900  0.00  0.00    -0.382 OA
ATOM     16  H   UNL     1      36.579 -19.645 -23.024  0.00  0.00    +0.210 HD
ENDBRANCH   7  15
ENDBRANCH   3   6
ENDBRANCH   1   4
BRANCH   1  17
ATOM     17  C   UNL     1      32.689 -14.070 -22.611  0.00  0.00    +0.036 C 
BRANCH  17  18
ATOM     18  C   UNL     1      32.835 -12.604 -22.934  0.00  0.00    -0.019 C 
ATOM     19  C   UNL     1      33.856 -12.191 -23.776  0.00  0.00    +0.032 C 
ATOM     20  C   UNL     1      31.947 -11.694 -22.381  0.00  0.00    -0.004 C 
ATOM     21  C   UNL     1      33.991 -10.835 -24.074  0.00  0.00    +0.133 C 
ATOM     22  C   UNL     1      32.082 -10.338 -22.680  0.00  0.00    +0.003 C 
ATOM     23  C   UNL     1      33.104  -9.908 -23.526  0.00  0.00    +0.037 C 
BRANCH  21  24
ATOM     24  O   UNL     1      34.988 -10.416 -24.900  0.00  0.00    -0.506 OA
ATOM     25  H   UNL     1      35.722 -10.973 -25.069  0.00  0.00    +0.292 HD
ENDBRANCH  21  24
ENDBRANCH  17  18
ENDBRANCH   1  17
BRANCH   1  26
ATOM     26  C   UNL     1      33.444 -16.034 -24.070  0.00  0.00    +0.097 C 
BRANCH  26  29
ATOM     27  O   UNL     1      34.854 -16.490 -25.988  0.00  0.00    -0.273 OA
ATOM     28  N   UNL     1      33.277 -14.811 -26.128  0.00  0.00    -0.197 N 
ATOM     29  C   UNL     1      33.956 -15.818 -25.487  0.00  0.00    +0.245 C 
ATOM     30  H   UNL     1      32.563 -14.299 -25.685  0.00  0.00    +0.182 HD
BRANCH  28  31
ATOM     31  O   UNL     1      33.663 -14.559 -27.451  0.00  0.00    -0.295 OA
ATOM     32  H   UNL     1      34.630 -14.484 -27.497  0.00  0.00    +0.241 HD
ENDBRANCH  28  31
ENDBRANCH  26  29
ENDBRANCH   1  26
TORSDOF 9
ENDMDL
MODEL 4
REMARK VINA RESULT:      -9.7      9.075     13.503
REMARK  Name = 11143173
REMARK  9 active torsions:
REMARK  status: ('A' for Active; 'I' for Inactive)
REMARK    1  A    between atoms: C_1  and  C_4
REMARK    2  A    between atoms: C_1  and  C_17
REMARK    3  A    between atoms: C_1  and  C_26
REMARK    4  A    between atoms: N_3  and  C_6
REMARK    5  A    between atoms: C_7  and  O_15
REMARK    6  A    between atoms: C_17  and  C_18
REMARK    7  A    between atoms: C_21  and  O_24
REMARK    8  A    between atoms: C_26  and  C_29
REMARK    9  A    between atoms: N_28  and  O_31
REMARK                            x       y       z     vdW  Elec       q    Type
REMARK                         _______ _______ _______ _____ _____    ______ ____
ROOT
ATOM      1  C   UNL     1      32.662 -11.235 -22.565  0.00  0.00    +0.090 C 
ENDROOT
BRANCH   1   4
ATOM      2  O   UNL     1      31.544 -12.808 -21.093  0.00  0.00    -0.275 OA
ATOM      3  N   UNL     1      33.211 -13.598 -22.503  0.00  0.00    -0.300 N 
ATOM      4  C   UNL     1      32.397 -12.616 -21.957  0.00  0.00    +0.223 C 
ATOM      5  H   UNL     1      33.863 -13.336 -23.191  0.00  0.00    +0.150 HD
BRANCH   3   6
ATOM      6  C   UNL     1      33.148 -14.978 -22.114  0.00  0.00    +0.121 C 
ATOM      7  C   UNL     1      33.868 -15.281 -20.782  0.00  0.00    +0.137 C 
ATOM      8  C   UNL     1      34.298 -16.758 -20.854  0.00  0.00    +0.057 C 
ATOM      9  C   UNL     1      33.852 -15.916 -23.051  0.00  0.00    -0.006 C 
ATOM     10  C   UNL     1      34.497 -16.932 -22.331  0.00  0.00    -0.022 C 
ATOM     11  C   UNL     1      33.870 -15.910 -24.437  0.00  0.00    -0.003 C 
ATOM     12  C   UNL     1      35.173 -17.951 -22.979  0.00  0.00    -0.004 C 
ATOM     13  C   UNL     1      34.561 -16.927 -25.098  0.00  0.00    -0.000 C 
ATOM     14  C   UNL     1      35.208 -17.941 -24.375  0.00  0.00    -0.000 C 
BRANCH   7  15
ATOM     15  O   UNL     1      35.037 -14.468 -20.653  0.00  0.00    -0.382 OA
ATOM     16  H   UNL     1      35.717 -14.955 -20.163  0.00  0.00    +0.210 HD
ENDBRANCH   7  15
ENDBRANCH   3   6
ENDBRANCH   1   4
BRANCH   1  17
ATOM     17  C   UNL     1      31.388 -10.367 -22.490  0.00  0.00    +0.036 C 
BRANCH  17  18
ATOM     18  C   UNL     1      31.653  -8.926 -22.128  0.00  0.00    -0.019 C 
ATOM     19  C   UNL     1      32.246  -8.629 -20.910  0.00  0.00    +0.032 C 
ATOM     20  C   UNL     1      31.298  -7.925 -23.019  0.00  0.00    -0.004 C 
ATOM     21  C   UNL     1      32.491  -7.296 -20.577  0.00  0.00    +0.133 C 
ATOM     22  C   UNL     1      31.543  -6.593 -22.684  0.00  0.00    +0.003 C 
ATOM     23  C   UNL     1      32.139  -6.278 -21.464  0.00  0.00    +0.037 C 
BRANCH  21  24
ATOM     24  O   UNL     1      33.073  -6.989 -19.386  0.00  0.00    -0.506 OA
ATOM     25  H   UNL     1      32.695  -6.332 -18.835  0.00  0.00    +0.292 HD
ENDBRANCH  21  24
ENDBRANCH  17  18
ENDBRANCH   1  17
BRANCH   1  26
ATOM     26  C   UNL     1      33.165 -11.408 -24.012  0.00  0.00    +0.097 C 
BRANCH  26  29
ATOM     27  O   UNL     1      34.690  -9.554 -23.685  0.00  0.00    -0.273 OA
ATOM     28  N   UNL     1      35.030 -10.987 -25.461  0.00  0.00    -0.197 N 
ATOM     29  C   UNL     1      34.362 -10.532 -24.351  0.00  0.00    +0.245 C 
ATOM     30  H   UNL     1      34.730 -11.777 -25.964  0.00  0.00    +0.182 HD
BRANCH  28  31
ATOM     31  O   UNL     1      36.166 -10.256 -25.834  0.00  0.00    -0.295 OA
ATOM     32  H   UNL     1      36.790 -10.226 -25.090  0.00  0.00    +0.241 HD
ENDBRANCH  28  31
ENDBRANCH  26  29
ENDBRANCH   1  26
TORSDOF 9
ENDMDL
MODEL 5
REMARK VINA RESULT:      -9.5      1.554      2.122
REMARK  Name = 11143173
REMARK  9 active torsions:
REMARK  status: ('A' for Active; 'I' for Inactive)
REMARK    1  A    between atoms: C_1  and  C_4
REMARK    2  A    between atoms: C_1  and  C_17
REMARK    3  A    between atoms: C_1  and  C_26
REMARK    4  A    between atoms: N_3  and  C_6
REMARK    5  A    between atoms: C_7  and  O_15
REMARK    6  A    between atoms: C_17  and  C_18
REMARK    7  A    between atoms: C_21  and  O_24
REMARK    8  A    between atoms: C_26  and  C_29
REMARK    9  A    between atoms: N_28  and  O_31
REMARK                            x       y       z     vdW  Elec       q    Type
REMARK                         _______ _______ _______ _____ _____    ______ ____
ROOT
ATOM      1  C   UNL     1      34.675 -23.992 -14.078  0.00  0.00    +0.090 C 
ENDROOT
BRANCH   1   4
ATOM      2  O   UNL     1      35.179 -25.218 -16.110  0.00  0.00    -0.275 OA
ATOM      3  N   UNL     1      35.369 -22.904 -16.132  0.00  0.00    -0.300 N 
ATOM      4  C   UNL     1      35.102 -24.131 -15.542  0.00  0.00    +0.223 C 
ATOM      5  H   UNL     1      35.277 -22.091 -15.585  0.00  0.00    +0.150 HD
BRANCH   3   6
ATOM      6  C   UNL     1      35.773 -22.762 -17.502  0.00  0.00    +0.121 C 
ATOM      7  C   UNL     1      37.008 -21.854 -17.693  0.00  0.00    +0.137 C 
ATOM      8  C   UNL     1      36.894 -21.270 -19.115  0.00  0.00    +0.057 C 
ATOM      9  C   UNL     1      34.763 -22.075 -18.375  0.00  0.00    -0.006 C 
ATOM     10  C   UNL     1      35.404 -21.236 -19.296  0.00  0.00    -0.022 C 
ATOM     11  C   UNL     1      33.385 -22.229 -18.396  0.00  0.00    -0.003 C 
ATOM     12  C   UNL     1      34.685 -20.532 -20.247  0.00  0.00    -0.004 C 
ATOM     13  C   UNL     1      32.651 -21.512 -19.343  0.00  0.00    -0.000 C 
ATOM     14  C   UNL     1      33.296 -20.670 -20.262  0.00  0.00    -0.000 C 
BRANCH   7  15
ATOM     15  O   UNL     1      36.984 -20.778 -16.752  0.00  0.00    -0.382 OA
ATOM     16  H   UNL     1      37.515 -21.015 -15.977  0.00  0.00    +0.210 HD
ENDBRANCH   7  15
ENDBRANCH   3   6
ENDBRANCH   1   4
BRANCH   1  17
ATOM     17  C   UNL     1      33.479 -23.023 -13.961  0.00  0.00    +0.036 C 
BRANCH  17  18
ATOM     18  C   UNL     1      32.186 -23.582 -14.501  0.00  0.00    -0.019 C 
ATOM     19  C   UNL     1      31.497 -22.881 -15.479  0.00  0.00    +0.032 C 
ATOM     20  C   UNL     1      31.707 -24.787 -14.008  0.00  0.00    -0.004 C 
ATOM     21  C   UNL     1      30.301 -23.399 -15.978  0.00  0.00    +0.133 C 
ATOM     22  C   UNL     1      30.512 -25.304 -14.507  0.00  0.00    +0.003 C 
ATOM     23  C   UNL     1      29.809 -24.610 -15.492  0.00  0.00    +0.037 C 
BRANCH  21  24
ATOM     24  O   UNL     1      29.615 -22.722 -16.939  0.00  0.00    -0.506 OA
ATOM     25  H   UNL     1      28.679 -22.750 -16.954  0.00  0.00    +0.292 HD
ENDBRANCH  21  24
ENDBRANCH  17  18
ENDBRANCH   1  17
BRANCH   1  26
ATOM     26  C   UNL     1      35.883 -23.530 -13.240  0.00  0.00    +0.097 C 
BRANCH  26  29
ATOM     27  O   UNL     1      36.978 -25.202 -11.868  0.00  0.00    -0.273 OA
ATOM     28  N   UNL     1      35.218 -24.000 -10.983  0.00  0.00    -0.197 N 
ATOM     29  C   UNL     1      36.099 -24.350 -11.976  0.00  0.00    +0.245 C 
ATOM     30  H   UNL     1      34.529 -23.311 -11.115  0.00  0.00    +0.182 HD
BRANCH  28  31
ATOM     31  O   UNL     1      35.360 -24.686  -9.770  0.00  0.00    -0.295 OA
ATOM     32  H   UNL     1      34.956 -25.566  -9.846  0.00  0.00    +0.241 HD
ENDBRANCH  28  31
ENDBRANCH  26  29
ENDBRANCH   1  26
TORSDOF 9
ENDMDL
MODEL 6
REMARK VINA RESULT:      -9.3      8.445     12.337
REMARK  Name = 11143173
REMARK  9 active torsions:
REMARK  status: ('A' for Active; 'I' for Inactive)
REMARK    1  A    between atoms: C_1  and  C_4
REMARK    2  A    between atoms: C_1  and  C_17
REMARK    3  A    between atoms: C_1  and  C_26
REMARK    4  A    between atoms: N_3  and  C_6
REMARK    5  A    between atoms: C_7  and  O_15
REMARK    6  A    between atoms: C_17  and  C_18
REMARK    7  A    between atoms: C_21  and  O_24
REMARK    8  A    between atoms: C_26  and  C_29
REMARK    9  A    between atoms: N_28  and  O_31
REMARK                            x       y       z     vdW  Elec       q    Type
REMARK                         _______ _______ _______ _____ _____    ______ ____
ROOT
ATOM      1  C   UNL     1      33.970 -14.117 -23.650  0.00  0.00    +0.090 C 
ENDROOT
BRANCH   1   4
ATOM      2  O   UNL     1      33.385 -12.846 -25.633  0.00  0.00    -0.275 OA
ATOM      3  N   UNL     1      33.717 -11.703 -23.639  0.00  0.00    -0.300 N 
ATOM      4  C   UNL     1      33.661 -12.838 -24.436  0.00  0.00    +0.223 C 
ATOM      5  H   UNL     1      33.949 -11.810 -22.688  0.00  0.00    +0.150 HD
BRANCH   3   6
ATOM      6  C   UNL     1      33.452 -10.382 -24.132  0.00  0.00    +0.121 C 
ATOM      7  C   UNL     1      34.687  -9.692 -24.753  0.00  0.00    +0.137 C 
ATOM      8  C   UNL     1      34.456  -8.178 -24.593  0.00  0.00    +0.057 C 
ATOM      9  C   UNL     1      33.063  -9.394 -23.072  0.00  0.00    -0.006 C 
ATOM     10  C   UNL     1      33.628  -8.140 -23.342  0.00  0.00    -0.022 C 
ATOM     11  C   UNL     1      32.222  -9.572 -21.984  0.00  0.00    -0.003 C 
ATOM     12  C   UNL     1      33.370  -7.047 -22.532  0.00  0.00    -0.004 C 
ATOM     13  C   UNL     1      31.968  -8.478 -21.153  0.00  0.00    -0.000 C 
ATOM     14  C   UNL     1      32.537  -7.225 -21.425  0.00  0.00    -0.000 C 
BRANCH   7  15
ATOM     15  O   UNL     1      35.870 -10.055 -24.037  0.00  0.00    -0.382 OA
ATOM     16  H   UNL     1      36.601  -9.479 -24.308  0.00  0.00    +0.210 HD
ENDBRANCH   7  15
ENDBRANCH   3   6
ENDBRANCH   1   4
BRANCH   1  17
ATOM     17  C   UNL     1      34.467 -15.222 -24.606  0.00  0.00    +0.036 C 
BRANCH  17  18
ATOM     18  C   UNL     1      34.696 -16.553 -23.934  0.00  0.00    -0.019 C 
ATOM     19  C   UNL     1      35.097 -16.584 -22.607  0.00  0.00    +0.032 C 
ATOM     20  C   UNL     1      34.502 -17.722 -24.654  0.00  0.00    -0.004 C 
ATOM     21  C   UNL     1      35.309 -17.815 -21.985  0.00  0.00    +0.133 C 
ATOM     22  C   UNL     1      34.713 -18.951 -24.031  0.00  0.00    +0.003 C 
ATOM     23  C   UNL     1      35.117 -18.999 -22.697  0.00  0.00    +0.037 C 
BRANCH  21  24
ATOM     24  O   UNL     1      35.703 -17.861 -20.683  0.00  0.00    -0.506 OA
ATOM     25  H   UNL     1      36.464 -17.389 -20.406  0.00  0.00    +0.292 HD
ENDBRANCH  21  24
ENDBRANCH  17  18
ENDBRANCH   1  17
BRANCH   1  26
ATOM     26  C   UNL     1      32.714 -14.545 -22.867  0.00  0.00    +0.097 C 
BRANCH  26  29
ATOM     27  O   UNL     1      33.321 -14.632 -20.523  0.00  0.00    -0.273 OA
ATOM     28  N   UNL     1      31.948 -12.932 -21.264  0.00  0.00    -0.197 N 
ATOM     29  C   UNL     1      32.703 -14.068 -21.422  0.00  0.00    +0.245 C 
ATOM     30  H   UNL     1      31.469 -12.515 -22.015  0.00  0.00    +0.182 HD
BRANCH  28  31
ATOM     31  O   UNL     1      31.902 -12.404 -19.967  0.00  0.00    -0.295 OA
ATOM     32  H   UNL     1      32.012 -13.120 -19.322  0.00  0.00    +0.241 HD
ENDBRANCH  28  31
ENDBRANCH  26  29
ENDBRANCH   1  26
TORSDOF 9
ENDMDL
MODEL 7
REMARK VINA RESULT:      -9.1      7.897     11.987
REMARK  Name = 11143173
REMARK  9 active torsions:
REMARK  status: ('A' for Active; 'I' for Inactive)
REMARK    1  A    between atoms: C_1  and  C_4
REMARK    2  A    between atoms: C_1  and  C_17
REMARK    3  A    between atoms: C_1  and  C_26
REMARK    4  A    between atoms: N_3  and  C_6
REMARK    5  A    between atoms: C_7  and  O_15
REMARK    6  A    between atoms: C_17  and  C_18
REMARK    7  A    between atoms: C_21  and  O_24
REMARK    8  A    between atoms: C_26  and  C_29
REMARK    9  A    between atoms: N_28  and  O_31
REMARK                            x       y       z     vdW  Elec       q    Type
REMARK                         _______ _______ _______ _____ _____    ______ ____
ROOT
ATOM      1  C   UNL     1      33.441 -13.012 -23.018  0.00  0.00    +0.090 C 
ENDROOT
BRANCH   1   4
ATOM      2  O   UNL     1      35.066 -14.298 -21.756  0.00  0.00    -0.275 OA
ATOM      3  N   UNL     1      34.275 -15.168 -23.758  0.00  0.00    -0.300 N 
ATOM      4  C   UNL     1      34.358 -14.212 -22.756  0.00  0.00    +0.223 C 
ATOM      5  H   UNL     1      33.674 -14.998 -24.519  0.00  0.00    +0.150 HD
BRANCH   3   6
ATOM      6  C   UNL     1      35.023 -16.393 -23.739  0.00  0.00    +0.121 C 
ATOM      7  C   UNL     1      34.939 -17.191 -25.059  0.00  0.00    +0.137 C 
ATOM      8  C   UNL     1      35.164 -18.667 -24.680  0.00  0.00    +0.057 C 
ATOM      9  C   UNL     1      34.524 -17.405 -22.749  0.00  0.00    -0.006 C 
ATOM     10  C   UNL     1      34.615 -18.697 -23.284  0.00  0.00    -0.022 C 
ATOM     11  C   UNL     1      34.083 -17.205 -21.449  0.00  0.00    -0.003 C 
ATOM     12  C   UNL     1      34.263 -19.809 -22.537  0.00  0.00    -0.004 C 
ATOM     13  C   UNL     1      33.713 -18.320 -20.695  0.00  0.00    -0.000 C 
ATOM     14  C   UNL     1      33.802 -19.613 -21.234  0.00  0.00    -0.000 C 
BRANCH   7  15
ATOM     15  O   UNL     1      33.638 -17.059 -25.637  0.00  0.00    -0.382 OA
ATOM     16  H   UNL     1      33.679 -17.281 -26.580  0.00  0.00    +0.210 HD
ENDBRANCH   7  15
ENDBRANCH   3   6
ENDBRANCH   1   4
BRANCH   1  17
ATOM     17  C   UNL     1      32.176 -13.106 -22.139  0.00  0.00    +0.036 C 
BRANCH  17  18
ATOM     18  C   UNL     1      31.939 -11.888 -21.280  0.00  0.00    -0.019 C 
ATOM     19  C   UNL     1      31.952 -10.631 -21.865  0.00  0.00    +0.032 C 
ATOM     20  C   UNL     1      31.713 -12.048 -19.922  0.00  0.00    -0.004 C 
ATOM     21  C   UNL     1      31.732  -9.505 -21.070  0.00  0.00    +0.133 C 
ATOM     22  C   UNL     1      31.493 -10.922 -19.128  0.00  0.00    +0.003 C 
ATOM     23  C   UNL     1      31.503  -9.651 -19.701  0.00  0.00    +0.037 C 
BRANCH  21  24
ATOM     24  O   UNL     1      31.741  -8.265 -21.630  0.00  0.00    -0.506 OA
ATOM     25  H   UNL     1      31.551  -8.161 -22.541  0.00  0.00    +0.292 HD
ENDBRANCH  21  24
ENDBRANCH  17  18
ENDBRANCH   1  17
BRANCH   1  26
ATOM     26  C   UNL     1      33.103 -12.954 -24.521  0.00  0.00    +0.097 C 
BRANCH  26  29
ATOM     27  O   UNL     1      33.940 -11.876 -26.524  0.00  0.00    -0.273 OA
ATOM     28  N   UNL     1      34.677 -11.143 -24.463  0.00  0.00    -0.197 N 
ATOM     29  C   UNL     1      33.945 -11.952 -25.298  0.00  0.00    +0.245 C 
ATOM     30  H   UNL     1      34.650 -11.242 -23.485  0.00  0.00    +0.182 HD
BRANCH  28  31
ATOM     31  O   UNL     1      35.464 -10.170 -25.091  0.00  0.00    -0.295 OA
ATOM     32  H   UNL     1      36.244 -10.590 -25.488  0.00  0.00    +0.241 HD
ENDBRANCH  28  31
ENDBRANCH  26  29
ENDBRANCH   1  26
TORSDOF 9
ENDMDL
MODEL 8
REMARK VINA RESULT:      -9.1      4.687      9.556
REMARK  Name = 11143173
REMARK  9 active torsions:
REMARK  status: ('A' for Active; 'I' for Inactive)
REMARK    1  A    between atoms: C_1  and  C_4
REMARK    2  A    between atoms: C_1  and  C_17
REMARK    3  A    between atoms: C_1  and  C_26
REMARK    4  A    between atoms: N_3  and  C_6
REMARK    5  A    between atoms: C_7  and  O_15
REMARK    6  A    between atoms: C_17  and  C_18
REMARK    7  A    between atoms: C_21  and  O_24
REMARK    8  A    between atoms: C_26  and  C_29
REMARK    9  A    between atoms: N_28  and  O_31
REMARK                            x       y       z     vdW  Elec       q    Type
REMARK                         _______ _______ _______ _____ _____    ______ ____
ROOT
ATOM      1  C   UNL     1      34.494 -17.441 -22.151  0.00  0.00    +0.090 C 
ENDROOT
BRANCH   1   4
ATOM      2  O   UNL     1      34.774 -19.653 -23.108  0.00  0.00    -0.275 OA
ATOM      3  N   UNL     1      34.494 -19.464 -20.811  0.00  0.00    -0.300 N 
ATOM      4  C   UNL     1      34.600 -18.968 -22.103  0.00  0.00    +0.223 C 
ATOM      5  H   UNL     1      34.356 -18.825 -20.075  0.00  0.00    +0.150 HD
BRANCH   3   6
ATOM      6  C   UNL     1      34.577 -20.861 -20.496  0.00  0.00    +0.121 C 
ATOM      7  C   UNL     1      33.221 -21.493 -20.114  0.00  0.00    +0.137 C 
ATOM      8  C   UNL     1      33.547 -22.685 -19.195  0.00  0.00    +0.057 C 
ATOM      9  C   UNL     1      35.400 -21.171 -19.279  0.00  0.00    -0.006 C 
ATOM     10  C   UNL     1      34.816 -22.215 -18.547  0.00  0.00    -0.022 C 
ATOM     11  C   UNL     1      36.607 -20.616 -18.881  0.00  0.00    -0.003 C 
ATOM     12  C   UNL     1      35.420 -22.717 -17.407  0.00  0.00    -0.004 C 
ATOM     13  C   UNL     1      37.216 -21.108 -17.724  0.00  0.00    -0.000 C 
ATOM     14  C   UNL     1      36.627 -22.151 -16.992  0.00  0.00    -0.000 C 
BRANCH   7  15
ATOM     15  O   UNL     1      32.424 -20.556 -19.386  0.00  0.00    -0.382 OA
ATOM     16  H   UNL     1      32.895 -20.287 -18.582  0.00  0.00    +0.210 HD
ENDBRANCH   7  15
ENDBRANCH   3   6
ENDBRANCH   1   4
BRANCH   1  17
ATOM     17  C   UNL     1      35.241 -16.893 -23.386  0.00  0.00    +0.036 C 
BRANCH  17  18
ATOM     18  C   UNL     1      34.435 -15.913 -24.202  0.00  0.00    -0.019 C 
ATOM     19  C   UNL     1      34.269 -14.617 -23.737  0.00  0.00    +0.032 C 
ATOM     20  C   UNL     1      33.874 -16.324 -25.401  0.00  0.00    -0.004 C 
ATOM     21  C   UNL     1      33.523 -13.710 -24.492  0.00  0.00    +0.133 C 
ATOM     22  C   UNL     1      33.130 -15.418 -26.155  0.00  0.00    +0.003 C 
ATOM     23  C   UNL     1      32.954 -14.111 -25.701  0.00  0.00    +0.037 C 
BRANCH  21  24
ATOM     24  O   UNL     1      33.352 -12.435 -24.049  0.00  0.00    -0.506 OA
ATOM     25  H   UNL     1      34.079 -11.844 -24.032  0.00  0.00    +0.292 HD
ENDBRANCH  21  24
ENDBRANCH  17  18
ENDBRANCH   1  17
BRANCH   1  26
ATOM     26  C   UNL     1      35.038 -16.854 -20.834  0.00  0.00    +0.097 C 
BRANCH  26  29
ATOM     27  O   UNL     1      35.145 -14.518 -20.198  0.00  0.00    -0.273 OA
ATOM     28  N   UNL     1      33.083 -15.489 -20.559  0.00  0.00    -0.197 N 
ATOM     29  C   UNL     1      34.455 -15.492 -20.485  0.00  0.00    +0.245 C 
ATOM     30  H   UNL     1      32.571 -16.296 -20.794  0.00  0.00    +0.182 HD
BRANCH  28  31
ATOM     31  O   UNL     1      32.459 -14.267 -20.280  0.00  0.00    -0.295 OA
ATOM     32  H   UNL     1      31.706 -14.143 -20.881  0.00  0.00    +0.241 HD
ENDBRANCH  28  31
ENDBRANCH  26  29
ENDBRANCH   1  26
TORSDOF 9
ENDMDL
MODEL 9
REMARK VINA RESULT:      -9.1      8.510     12.675
REMARK  Name = 11143173
REMARK  9 active torsions:
REMARK  status: ('A' for Active; 'I' for Inactive)
REMARK    1  A    between atoms: C_1  and  C_4
REMARK    2  A    between atoms: C_1  and  C_17
REMARK    3  A    between atoms: C_1  and  C_26
REMARK    4  A    between atoms: N_3  and  C_6
REMARK    5  A    between atoms: C_7  and  O_15
REMARK    6  A    between atoms: C_17  and  C_18
REMARK    7  A    between atoms: C_21  and  O_24
REMARK    8  A    between atoms: C_26  and  C_29
REMARK    9  A    between atoms: N_28  and  O_31
REMARK                            x       y       z     vdW  Elec       q    Type
REMARK                         _______ _______ _______ _____ _____    ______ ____
ROOT
ATOM      1  C   UNL     1      33.096 -14.647 -23.777  0.00  0.00    +0.090 C 
ENDROOT
BRANCH   1   4
ATOM      2  O   UNL     1      33.371 -13.896 -21.486  0.00  0.00    -0.275 OA
ATOM      3  N   UNL     1      32.951 -12.312 -23.131  0.00  0.00    -0.300 N 
ATOM      4  C   UNL     1      33.154 -13.601 -22.659  0.00  0.00    +0.223 C 
ATOM      5  H   UNL     1      32.785 -12.187 -24.094  0.00  0.00    +0.150 HD
BRANCH   3   6
ATOM      6  C   UNL     1      32.972 -11.153 -22.286  0.00  0.00    +0.121 C 
ATOM      7  C   UNL     1      31.590 -10.781 -21.708  0.00  0.00    +0.137 C 
ATOM      8  C   UNL     1      31.630  -9.264 -21.443  0.00  0.00    +0.057 C 
ATOM      9  C   UNL     1      33.349  -9.882 -22.992  0.00  0.00    -0.006 C 
ATOM     10  C   UNL     1      32.591  -8.809 -22.503  0.00  0.00    -0.022 C 
ATOM     11  C   UNL     1      34.332  -9.677 -23.948  0.00  0.00    -0.003 C 
ATOM     12  C   UNL     1      32.794  -7.519 -22.963  0.00  0.00    -0.004 C 
ATOM     13  C   UNL     1      34.534  -8.381 -24.427  0.00  0.00    -0.000 C 
ATOM     14  C   UNL     1      33.771  -7.309 -23.938  0.00  0.00    -0.000 C 
BRANCH   7  15
ATOM     15  O   UNL     1      30.562 -11.054 -22.663  0.00  0.00    -0.382 OA
ATOM     16  H   UNL     1      30.393 -12.008 -22.694  0.00  0.00    +0.210 HD
ENDBRANCH   7  15
ENDBRANCH   3   6
ENDBRANCH   1   4
BRANCH   1  17
ATOM     17  C   UNL     1      34.512 -15.178 -24.084  0.00  0.00    +0.036 C 
BRANCH  17  18
ATOM     18  C   UNL     1      34.747 -16.594 -23.619  0.00  0.00    -0.019 C 
ATOM     19  C   UNL     1      35.133 -16.824 -22.307  0.00  0.00    +0.032 C 
ATOM     20  C   UNL     1      34.573 -17.641 -24.512  0.00  0.00    -0.004 C 
ATOM     21  C   UNL     1      35.350 -18.134 -21.878  0.00  0.00    +0.133 C 
ATOM     22  C   UNL     1      34.789 -18.950 -24.081  0.00  0.00    +0.003 C 
ATOM     23  C   UNL     1      35.178 -19.197 -22.765  0.00  0.00    +0.037 C 
BRANCH  21  24
ATOM     24  O   UNL     1      35.729 -18.374 -20.593  0.00  0.00    -0.506 OA
ATOM     25  H   UNL     1      35.310 -19.052 -20.100  0.00  0.00    +0.292 HD
ENDBRANCH  21  24
ENDBRANCH  17  18
ENDBRANCH   1  17
BRANCH   1  26
ATOM     26  C   UNL     1      32.425 -14.024 -25.018  0.00  0.00    +0.097 C 
BRANCH  26  29
ATOM     27  O   UNL     1      33.214 -15.486 -26.782  0.00  0.00    -0.273 OA
ATOM     28  N   UNL     1      33.643 -13.223 -26.924  0.00  0.00    -0.197 N 
ATOM     29  C   UNL     1      33.135 -14.349 -26.324  0.00  0.00    +0.245 C 
ATOM     30  H   UNL     1      33.556 -12.331 -26.519  0.00  0.00    +0.182 HD
BRANCH  28  31
ATOM     31  O   UNL     1      34.292 -13.423 -28.149  0.00  0.00    -0.295 OA
ATOM     32  H   UNL     1      35.047 -14.021 -28.022  0.00  0.00    +0.241 HD
ENDBRANCH  28  31
ENDBRANCH  26  29
ENDBRANCH   1  26
TORSDOF 9
ENDMDL
