MODEL 1
REMARK VINA RESULT:      -6.4      0.000      0.000
REMARK  Name = 68888
REMARK  6 active torsions:
REMARK  status: ('A' for Active; 'I' for Inactive)
REMARK    1  A    between atoms: N_2  and  C_9
REMARK    2  A    between atoms: C_3  and  C_5
REMARK    3  A    between atoms: C_9  and  C_10
REMARK    4  A    between atoms: C_10  and  C_11
REMARK    5  A    between atoms: C_11  and  C_13
REMARK    6  A    between atoms: C_13  and  O_14
REMARK                            x       y       z     vdW  Elec       q    Type
REMARK                         _______ _______ _______ _____ _____    ______ ____
ROOT
ATOM      1  O   UNL     1      35.213 -16.597 -20.298  0.00  0.00    -0.275 OA
ATOM      2  N   UNL     1      34.182 -16.477 -22.360  0.00  0.00    -0.304 N 
ATOM      3  C   UNL     1      34.827 -17.146 -21.330  0.00  0.00    +0.222 C 
ATOM      4  H   UNL     1      33.903 -16.987 -23.155  0.00  0.00    +0.149 HD
ENDROOT
BRANCH   3   5
ATOM      5  C   UNL     1      35.022 -18.655 -21.581  0.00  0.00    +0.069 C 
ATOM      6  C   UNL     1      33.852 -19.446 -20.976  0.00  0.00    +0.009 C 
ATOM      7  C   UNL     1      35.062 -18.920 -23.097  0.00  0.00    +0.009 C 
ATOM      8  C   UNL     1      36.350 -19.125 -20.967  0.00  0.00    +0.009 C 
ENDBRANCH   3   5
BRANCH   2   9
ATOM      9  C   UNL     1      33.905 -15.061 -22.309  0.00  0.00    +0.090 C 
BRANCH   9  10
ATOM     10  C   UNL     1      34.192 -14.353 -23.634  0.00  0.00    +0.033 C 
BRANCH  10  11
ATOM     11  C   UNL     1      33.078 -14.496 -24.674  0.00  0.00    +0.111 C 
BRANCH  11  13
ATOM     12  O   UNL     1      33.507 -14.883 -27.041  0.00  0.00    -0.250 OA
ATOM     13  C   UNL     1      33.496 -15.295 -25.890  0.00  0.00    +0.314 C 
BRANCH  13  14
ATOM     14  O   UNL     1      33.892 -16.549 -25.547  0.00  0.00    -0.480 OA
ATOM     15  H   UNL     1      33.252 -17.208 -25.363  0.00  0.00    +0.295 HD
ENDBRANCH  13  14
ENDBRANCH  11  13
ENDBRANCH  10  11
ENDBRANCH   9  10
ENDBRANCH   2   9
TORSDOF 6
ENDMDL
MODEL 2
REMARK VINA RESULT:      -6.0      1.843      2.200
REMARK  Name = 68888
REMARK  6 active torsions:
REMARK  status: ('A' for Active; 'I' for Inactive)
REMARK    1  A    between atoms: N_2  and  C_9
REMARK    2  A    between atoms: C_3  and  C_5
REMARK    3  A    between atoms: C_9  and  C_10
REMARK    4  A    between atoms: C_10  and  C_11
REMARK    5  A    between atoms: C_11  and  C_13
REMARK    6  A    between atoms: C_13  and  O_14
REMARK                            x       y       z     vdW  Elec       q    Type
REMARK                         _______ _______ _______ _____ _____    ______ ____
ROOT
ATOM      1  O   UNL     1      35.491 -16.559 -22.925  0.00  0.00    -0.275 OA
ATOM      2  N   UNL     1      34.596 -16.413 -20.802  0.00  0.00    -0.304 N 
ATOM      3  C   UNL     1      35.057 -17.107 -21.911  0.00  0.00    +0.222 C 
ATOM      4  H   UNL     1      34.264 -16.924 -20.029  0.00  0.00    +0.149 HD
ENDROOT
BRANCH   3   5
ATOM      5  C   UNL     1      34.989 -18.641 -21.772  0.00  0.00    +0.069 C 
ATOM      6  C   UNL     1      33.726 -19.045 -20.995  0.00  0.00    +0.009 C 
ATOM      7  C   UNL     1      34.929 -19.279 -23.172  0.00  0.00    +0.009 C 
ATOM      8  C   UNL     1      36.241 -19.162 -21.050  0.00  0.00    +0.009 C 
ENDBRANCH   3   5
BRANCH   2   9
ATOM      9  C   UNL     1      34.583 -14.971 -20.740  0.00  0.00    +0.090 C 
BRANCH   9  10
ATOM     10  C   UNL     1      33.169 -14.392 -20.695  0.00  0.00    +0.033 C 
BRANCH  10  11
ATOM     11  C   UNL     1      32.413 -14.482 -22.023  0.00  0.00    +0.111 C 
BRANCH  11  13
ATOM     12  O   UNL     1      33.647 -12.809 -23.294  0.00  0.00    -0.250 OA
ATOM     13  C   UNL     1      33.203 -13.944 -23.197  0.00  0.00    +0.314 C 
BRANCH  13  14
ATOM     14  O   UNL     1      33.389 -14.897 -24.147  0.00  0.00    -0.480 OA
ATOM     15  H   UNL     1      33.642 -15.765 -23.898  0.00  0.00    +0.295 HD
ENDBRANCH  13  14
ENDBRANCH  11  13
ENDBRANCH  10  11
ENDBRANCH   9  10
ENDBRANCH   2   9
TORSDOF 6
ENDMDL
MODEL 3
REMARK VINA RESULT:      -5.9      2.743      3.382
REMARK  Name = 68888
REMARK  6 active torsions:
REMARK  status: ('A' for Active; 'I' for Inactive)
REMARK    1  A    between atoms: N_2  and  C_9
REMARK    2  A    between atoms: C_3  and  C_5
REMARK    3  A    between atoms: C_9  and  C_10
REMARK    4  A    between atoms: C_10  and  C_11
REMARK    5  A    between atoms: C_11  and  C_13
REMARK    6  A    between atoms: C_13  and  O_14
REMARK                            x       y       z     vdW  Elec       q    Type
REMARK                         _______ _______ _______ _____ _____    ______ ____
ROOT
ATOM      1  O   UNL     1      35.216 -16.551 -20.248  0.00  0.00    -0.275 OA
ATOM      2  N   UNL     1      34.377 -16.304 -22.384  0.00  0.00    -0.304 N 
ATOM      3  C   UNL     1      34.897 -17.042 -21.331  0.00  0.00    +0.222 C 
ATOM      4  H   UNL     1      34.145 -16.770 -23.220  0.00  0.00    +0.149 HD
ENDROOT
BRANCH   3   5
ATOM      5  C   UNL     1      35.041 -18.549 -21.626  0.00  0.00    +0.069 C 
ATOM      6  C   UNL     1      33.821 -19.311 -21.086  0.00  0.00    +0.009 C 
ATOM      7  C   UNL     1      35.122 -18.767 -23.148  0.00  0.00    +0.009 C 
ATOM      8  C   UNL     1      36.328 -19.091 -20.985  0.00  0.00    +0.009 C 
ENDBRANCH   3   5
BRANCH   2   9
ATOM      9  C   UNL     1      34.164 -14.878 -22.300  0.00  0.00    +0.090 C 
BRANCH   9  10
ATOM     10  C   UNL     1      32.712 -14.513 -21.991  0.00  0.00    +0.033 C 
BRANCH  10  11
ATOM     11  C   UNL     1      32.290 -13.135 -22.510  0.00  0.00    +0.111 C 
BRANCH  11  13
ATOM     12  O   UNL     1      31.929 -12.261 -20.264  0.00  0.00    -0.250 OA
ATOM     13  C   UNL     1      31.637 -12.273 -21.452  0.00  0.00    +0.314 C 
BRANCH  13  14
ATOM     14  O   UNL     1      30.678 -11.473 -21.986  0.00  0.00    -0.480 OA
ATOM     15  H   UNL     1      29.787 -11.763 -22.015  0.00  0.00    +0.295 HD
ENDBRANCH  13  14
ENDBRANCH  11  13
ENDBRANCH  10  11
ENDBRANCH   9  10
ENDBRANCH   2   9
TORSDOF 6
ENDMDL
MODEL 4
REMARK VINA RESULT:      -5.9      3.105      6.345
REMARK  Name = 68888
REMARK  6 active torsions:
REMARK  status: ('A' for Active; 'I' for Inactive)
REMARK    1  A    between atoms: N_2  and  C_9
REMARK    2  A    between atoms: C_3  and  C_5
REMARK    3  A    between atoms: C_9  and  C_10
REMARK    4  A    between atoms: C_10  and  C_11
REMARK    5  A    between atoms: C_11  and  C_13
REMARK    6  A    between atoms: C_13  and  O_14
REMARK                            x       y       z     vdW  Elec       q    Type
REMARK                         _______ _______ _______ _____ _____    ______ ____
ROOT
ATOM      1  O   UNL     1      34.541 -17.529 -23.078  0.00  0.00    -0.275 OA
ATOM      2  N   UNL     1      35.017 -17.782 -20.833  0.00  0.00    -0.304 N 
ATOM      3  C   UNL     1      34.562 -17.073 -21.935  0.00  0.00    +0.222 C 
ATOM      4  H   UNL     1      35.002 -17.347 -19.950  0.00  0.00    +0.149 HD
ENDROOT
BRANCH   3   5
ATOM      5  C   UNL     1      34.070 -15.647 -21.610  0.00  0.00    +0.069 C 
ATOM      6  C   UNL     1      34.308 -14.720 -22.811  0.00  0.00    +0.009 C 
ATOM      7  C   UNL     1      32.560 -15.684 -21.310  0.00  0.00    +0.009 C 
ATOM      8  C   UNL     1      34.802 -15.106 -20.372  0.00  0.00    +0.009 C 
ENDBRANCH   3   5
BRANCH   2   9
ATOM      9  C   UNL     1      35.515 -19.134 -20.934  0.00  0.00    +0.090 C 
BRANCH   9  10
ATOM     10  C   UNL     1      34.448 -20.183 -20.621  0.00  0.00    +0.033 C 
BRANCH  10  11
ATOM     11  C   UNL     1      34.917 -21.287 -19.670  0.00  0.00    +0.111 C 
BRANCH  11  13
ATOM     12  O   UNL     1      34.005 -23.533 -19.420  0.00  0.00    -0.250 OA
ATOM     13  C   UNL     1      33.850 -22.320 -19.382  0.00  0.00    +0.314 C 
BRANCH  13  14
ATOM     14  O   UNL     1      32.672 -21.735 -19.041  0.00  0.00    -0.480 OA
ATOM     15  H   UNL     1      31.887 -21.956 -19.505  0.00  0.00    +0.295 HD
ENDBRANCH  13  14
ENDBRANCH  11  13
ENDBRANCH  10  11
ENDBRANCH   9  10
ENDBRANCH   2   9
TORSDOF 6
ENDMDL
MODEL 5
REMARK VINA RESULT:      -5.8      6.583      8.906
REMARK  Name = 68888
REMARK  6 active torsions:
REMARK  status: ('A' for Active; 'I' for Inactive)
REMARK    1  A    between atoms: N_2  and  C_9
REMARK    2  A    between atoms: C_3  and  C_5
REMARK    3  A    between atoms: C_9  and  C_10
REMARK    4  A    between atoms: C_10  and  C_11
REMARK    5  A    between atoms: C_11  and  C_13
REMARK    6  A    between atoms: C_13  and  O_14
REMARK                            x       y       z     vdW  Elec       q    Type
REMARK                         _______ _______ _______ _____ _____    ______ ____
ROOT
ATOM      1  O   UNL     1      32.953  -7.286 -19.837  0.00  0.00    -0.275 OA
ATOM      2  N   UNL     1      31.984  -9.201 -20.689  0.00  0.00    -0.304 N 
ATOM      3  C   UNL     1      32.486  -7.911 -20.790  0.00  0.00    +0.222 C 
ATOM      4  H   UNL     1      31.627  -9.634 -21.498  0.00  0.00    +0.149 HD
ENDROOT
BRANCH   3   5
ATOM      5  C   UNL     1      32.417  -7.315 -22.211  0.00  0.00    +0.069 C 
ATOM      6  C   UNL     1      31.400  -8.091 -23.061  0.00  0.00    +0.009 C 
ATOM      7  C   UNL     1      31.966  -5.845 -22.126  0.00  0.00    +0.009 C 
ATOM      8  C   UNL     1      33.804  -7.363 -22.870  0.00  0.00    +0.009 C 
ENDBRANCH   3   5
BRANCH   2   9
ATOM      9  C   UNL     1      31.964  -9.930 -19.443  0.00  0.00    +0.090 C 
BRANCH   9  10
ATOM     10  C   UNL     1      31.583 -11.400 -19.621  0.00  0.00    +0.033 C 
BRANCH  10  11
ATOM     11  C   UNL     1      31.296 -11.799 -21.071  0.00  0.00    +0.111 C 
BRANCH  11  13
ATOM     12  O   UNL     1      32.763 -13.726 -20.800  0.00  0.00    -0.250 OA
ATOM     13  C   UNL     1      32.076 -13.016 -21.520  0.00  0.00    +0.314 C 
BRANCH  13  14
ATOM     14  O   UNL     1      31.903 -13.253 -22.847  0.00  0.00    -0.480 OA
ATOM     15  H   UNL     1      31.867 -14.134 -23.165  0.00  0.00    +0.295 HD
ENDBRANCH  13  14
ENDBRANCH  11  13
ENDBRANCH  10  11
ENDBRANCH   9  10
ENDBRANCH   2   9
TORSDOF 6
ENDMDL
MODEL 6
REMARK VINA RESULT:      -5.8      1.892      5.058
REMARK  Name = 68888
REMARK  6 active torsions:
REMARK  status: ('A' for Active; 'I' for Inactive)
REMARK    1  A    between atoms: N_2  and  C_9
REMARK    2  A    between atoms: C_3  and  C_5
REMARK    3  A    between atoms: C_9  and  C_10
REMARK    4  A    between atoms: C_10  and  C_11
REMARK    5  A    between atoms: C_11  and  C_13
REMARK    6  A    between atoms: C_13  and  O_14
REMARK                            x       y       z     vdW  Elec       q    Type
REMARK                         _______ _______ _______ _____ _____    ______ ____
ROOT
ATOM      1  O   UNL     1      33.315 -14.939 -23.937  0.00  0.00    -0.275 OA
ATOM      2  N   UNL     1      34.372 -16.640 -22.788  0.00  0.00    -0.304 N 
ATOM      3  C   UNL     1      33.633 -15.469 -22.872  0.00  0.00    +0.222 C 
ATOM      4  H   UNL     1      34.586 -17.001 -21.897  0.00  0.00    +0.149 HD
ENDROOT
BRANCH   3   5
ATOM      5  C   UNL     1      33.229 -14.876 -21.507  0.00  0.00    +0.069 C 
ATOM      6  C   UNL     1      32.522 -13.527 -21.705  0.00  0.00    +0.009 C 
ATOM      7  C   UNL     1      32.259 -15.839 -20.798  0.00  0.00    +0.009 C 
ATOM      8  C   UNL     1      34.473 -14.695 -20.623  0.00  0.00    +0.009 C 
ENDBRANCH   3   5
BRANCH   2   9
ATOM      9  C   UNL     1      34.839 -17.347 -23.957  0.00  0.00    +0.090 C 
BRANCH   9  10
ATOM     10  C   UNL     1      35.281 -18.777 -23.648  0.00  0.00    +0.033 C 
BRANCH  10  11
ATOM     11  C   UNL     1      34.596 -19.392 -22.424  0.00  0.00    +0.111 C 
BRANCH  11  13
ATOM     12  O   UNL     1      35.909 -18.355 -20.653  0.00  0.00    -0.250 OA
ATOM     13  C   UNL     1      35.457 -19.362 -21.180  0.00  0.00    +0.314 C 
BRANCH  13  14
ATOM     14  O   UNL     1      35.658 -20.611 -20.685  0.00  0.00    -0.480 OA
ATOM     15  H   UNL     1      34.982 -21.257 -20.754  0.00  0.00    +0.295 HD
ENDBRANCH  13  14
ENDBRANCH  11  13
ENDBRANCH  10  11
ENDBRANCH   9  10
ENDBRANCH   2   9
TORSDOF 6
ENDMDL
MODEL 7
REMARK VINA RESULT:      -5.7      9.961     10.705
REMARK  Name = 68888
REMARK  6 active torsions:
REMARK  status: ('A' for Active; 'I' for Inactive)
REMARK    1  A    between atoms: N_2  and  C_9
REMARK    2  A    between atoms: C_3  and  C_5
REMARK    3  A    between atoms: C_9  and  C_10
REMARK    4  A    between atoms: C_10  and  C_11
REMARK    5  A    between atoms: C_11  and  C_13
REMARK    6  A    between atoms: C_13  and  O_14
REMARK                            x       y       z     vdW  Elec       q    Type
REMARK                         _______ _______ _______ _____ _____    ______ ____
ROOT
ATOM      1  O   UNL     1      34.515 -23.344 -17.001  0.00  0.00    -0.275 OA
ATOM      2  N   UNL     1      32.815 -23.560 -15.454  0.00  0.00    -0.304 N 
ATOM      3  C   UNL     1      34.140 -23.613 -15.860  0.00  0.00    +0.222 C 
ATOM      4  H   UNL     1      32.595 -23.790 -14.522  0.00  0.00    +0.149 HD
ENDROOT
BRANCH   3   5
ATOM      5  C   UNL     1      35.125 -24.037 -14.750  0.00  0.00    +0.069 C 
ATOM      6  C   UNL     1      34.387 -24.155 -13.407  0.00  0.00    +0.009 C 
ATOM      7  C   UNL     1      35.730 -25.409 -15.101  0.00  0.00    +0.009 C 
ATOM      8  C   UNL     1      36.265 -23.013 -14.638  0.00  0.00    +0.009 C 
ENDBRANCH   3   5
BRANCH   2   9
ATOM      9  C   UNL     1      31.746 -23.181 -16.348  0.00  0.00    +0.090 C 
BRANCH   9  10
ATOM     10  C   UNL     1      30.414 -22.975 -15.626  0.00  0.00    +0.033 C 
BRANCH  10  11
ATOM     11  C   UNL     1      29.310 -23.942 -16.063  0.00  0.00    +0.111 C 
BRANCH  11  13
ATOM     12  O   UNL     1      27.473 -23.927 -17.663  0.00  0.00    -0.250 OA
ATOM     13  C   UNL     1      28.312 -23.318 -17.014  0.00  0.00    +0.314 C 
BRANCH  13  14
ATOM     14  O   UNL     1      28.439 -21.966 -17.049  0.00  0.00    -0.480 OA
ATOM     15  H   UNL     1      27.680 -21.422 -16.965  0.00  0.00    +0.295 HD
ENDBRANCH  13  14
ENDBRANCH  11  13
ENDBRANCH  10  11
ENDBRANCH   9  10
ENDBRANCH   2   9
TORSDOF 6
ENDMDL
MODEL 8
REMARK VINA RESULT:      -5.7      1.880      2.495
REMARK  Name = 68888
REMARK  6 active torsions:
REMARK  status: ('A' for Active; 'I' for Inactive)
REMARK    1  A    between atoms: N_2  and  C_9
REMARK    2  A    between atoms: C_3  and  C_5
REMARK    3  A    between atoms: C_9  and  C_10
REMARK    4  A    between atoms: C_10  and  C_11
REMARK    5  A    between atoms: C_11  and  C_13
REMARK    6  A    between atoms: C_13  and  O_14
REMARK                            x       y       z     vdW  Elec       q    Type
REMARK                         _______ _______ _______ _____ _____    ______ ____
ROOT
ATOM      1  O   UNL     1      34.916 -18.964 -23.968  0.00  0.00    -0.275 OA
ATOM      2  N   UNL     1      34.473 -16.741 -23.530  0.00  0.00    -0.304 N 
ATOM      3  C   UNL     1      34.811 -18.036 -23.166  0.00  0.00    +0.222 C 
ATOM      4  H   UNL     1      34.409 -16.053 -22.828  0.00  0.00    +0.149 HD
ENDROOT
BRANCH   3   5
ATOM      5  C   UNL     1      35.055 -18.225 -21.654  0.00  0.00    +0.069 C 
ATOM      6  C   UNL     1      34.880 -16.887 -20.920  0.00  0.00    +0.009 C 
ATOM      7  C   UNL     1      34.032 -19.230 -21.094  0.00  0.00    +0.009 C 
ATOM      8  C   UNL     1      36.468 -18.779 -21.414  0.00  0.00    +0.009 C 
ENDBRANCH   3   5
BRANCH   2   9
ATOM      9  C   UNL     1      34.209 -16.365 -24.899  0.00  0.00    +0.090 C 
BRANCH   9  10
ATOM     10  C   UNL     1      33.425 -15.057 -25.014  0.00  0.00    +0.033 C 
BRANCH  10  11
ATOM     11  C   UNL     1      33.014 -14.699 -26.445  0.00  0.00    +0.111 C 
BRANCH  11  13
ATOM     12  O   UNL     1      33.454 -12.308 -26.286  0.00  0.00    -0.250 OA
ATOM     13  C   UNL     1      33.550 -13.360 -26.902  0.00  0.00    +0.314 C 
BRANCH  13  14
ATOM     14  O   UNL     1      34.189 -13.464 -28.097  0.00  0.00    -0.480 OA
ATOM     15  H   UNL     1      34.866 -14.101 -28.212  0.00  0.00    +0.295 HD
ENDBRANCH  13  14
ENDBRANCH  11  13
ENDBRANCH  10  11
ENDBRANCH   9  10
ENDBRANCH   2   9
TORSDOF 6
ENDMDL
MODEL 9
REMARK VINA RESULT:      -5.7      3.322      6.743
REMARK  Name = 68888
REMARK  6 active torsions:
REMARK  status: ('A' for Active; 'I' for Inactive)
REMARK    1  A    between atoms: N_2  and  C_9
REMARK    2  A    between atoms: C_3  and  C_5
REMARK    3  A    between atoms: C_9  and  C_10
REMARK    4  A    between atoms: C_10  and  C_11
REMARK    5  A    between atoms: C_11  and  C_13
REMARK    6  A    between atoms: C_13  and  O_14
REMARK                            x       y       z     vdW  Elec       q    Type
REMARK                         _______ _______ _______ _____ _____    ______ ____
ROOT
ATOM      1  O   UNL     1      33.602 -17.452 -21.024  0.00  0.00    -0.275 OA
ATOM      2  N   UNL     1      33.899 -19.716 -21.366  0.00  0.00    -0.304 N 
ATOM      3  C   UNL     1      34.155 -18.377 -21.621  0.00  0.00    +0.222 C 
ATOM      4  H   UNL     1      34.382 -20.398 -21.886  0.00  0.00    +0.149 HD
ENDROOT
BRANCH   3   5
ATOM      5  C   UNL     1      35.206 -18.132 -22.723  0.00  0.00    +0.069 C 
ATOM      6  C   UNL     1      35.214 -16.650 -23.125  0.00  0.00    +0.009 C 
ATOM      7  C   UNL     1      36.601 -18.504 -22.189  0.00  0.00    +0.009 C 
ATOM      8  C   UNL     1      34.900 -19.010 -23.947  0.00  0.00    +0.009 C 
ENDBRANCH   3   5
BRANCH   2   9
ATOM      9  C   UNL     1      32.949 -20.147 -20.367  0.00  0.00    +0.090 C 
BRANCH   9  10
ATOM     10  C   UNL     1      33.362 -21.448 -19.678  0.00  0.00    +0.033 C 
BRANCH  10  11
ATOM     11  C   UNL     1      34.873 -21.597 -19.477  0.00  0.00    +0.111 C 
BRANCH  11  13
ATOM     12  O   UNL     1      34.485 -22.978 -17.508  0.00  0.00    -0.250 OA
ATOM     13  C   UNL     1      35.238 -22.289 -18.182  0.00  0.00    +0.314 C 
BRANCH  13  14
ATOM     14  O   UNL     1      36.539 -22.075 -17.855  0.00  0.00    -0.480 OA
ATOM     15  H   UNL     1      37.137 -22.796 -17.815  0.00  0.00    +0.295 HD
ENDBRANCH  13  14
ENDBRANCH  11  13
ENDBRANCH  10  11
ENDBRANCH   9  10
ENDBRANCH   2   9
TORSDOF 6
ENDMDL
