MODEL 1
REMARK VINA RESULT:      -5.6      0.000      0.000
REMARK  Name = 19395
REMARK  10 active torsions:
REMARK  status: ('A' for Active; 'I' for Inactive)
REMARK    1  A    between atoms: O_1  and  P_3
REMARK    2  A    between atoms: O_1  and  P_11
REMARK    3  A    between atoms: P_3  and  O_4
REMARK    4  A    between atoms: P_3  and  O_7
REMARK    5  A    between atoms: O_4  and  C_5
REMARK    6  A    between atoms: O_7  and  C_8
REMARK    7  A    between atoms: P_11  and  O_12
REMARK    8  A    between atoms: P_11  and  O_15
REMARK    9  A    between atoms: O_12  and  C_13
REMARK   10  A    between atoms: O_15  and  C_16
REMARK                            x       y       z     vdW  Elec       q    Type
REMARK                         _______ _______ _______ _____ _____    ______ ____
ROOT
ATOM      1  O   UNL     1      36.672 -24.624 -15.537  0.00  0.00    -0.236 OA
ENDROOT
BRANCH   1   3
ATOM      2  S   UNL     1      37.011 -26.804 -13.492  0.00  0.00    +0.023 S 
ATOM      3  P   UNL     1      37.718 -25.297 -14.497  0.00  0.00    +0.316 P 
BRANCH   3   4
ATOM      4  O   UNL     1      39.017 -25.572 -15.435  0.00  0.00    -0.297 OA
BRANCH   4   5
ATOM      5  C   UNL     1      40.314 -25.273 -14.946  0.00  0.00    +0.151 C 
ATOM      6  C   UNL     1      40.810 -26.439 -14.119  0.00  0.00    +0.035 C 
ENDBRANCH   4   5
ENDBRANCH   3   4
BRANCH   3   7
ATOM      7  O   UNL     1      38.192 -24.008 -13.630  0.00  0.00    -0.297 OA
BRANCH   7   8
ATOM      8  C   UNL     1      38.160 -24.059 -12.214  0.00  0.00    +0.151 C 
ATOM      9  C   UNL     1      37.203 -23.003 -11.704  0.00  0.00    +0.035 C 
ENDBRANCH   7   8
ENDBRANCH   3   7
ENDBRANCH   1   3
BRANCH   1  11
ATOM     10  S   UNL     1      34.309 -24.012 -13.778  0.00  0.00    +0.023 S 
ATOM     11  P   UNL     1      35.367 -23.677 -15.376  0.00  0.00    +0.316 P 
BRANCH  11  12
ATOM     12  O   UNL     1      35.990 -22.188 -15.558  0.00  0.00    -0.297 OA
BRANCH  12  13
ATOM     13  C   UNL     1      37.187 -22.012 -16.298  0.00  0.00    +0.151 C 
ATOM     14  C   UNL     1      36.844 -21.481 -17.673  0.00  0.00    +0.035 C 
ENDBRANCH  12  13
ENDBRANCH  11  12
BRANCH  11  15
ATOM     15  O   UNL     1      34.618 -23.908 -16.800  0.00  0.00    -0.297 OA
BRANCH  15  16
ATOM     16  C   UNL     1      33.384 -23.262 -17.060  0.00  0.00    +0.151 C 
ATOM     17  C   UNL     1      33.451 -22.601 -18.420  0.00  0.00    +0.035 C 
ENDBRANCH  15  16
ENDBRANCH  11  15
ENDBRANCH   1  11
TORSDOF 10
ENDMDL
MODEL 2
REMARK VINA RESULT:      -5.5      0.200      5.443
REMARK  Name = 19395
REMARK  10 active torsions:
REMARK  status: ('A' for Active; 'I' for Inactive)
REMARK    1  A    between atoms: O_1  and  P_3
REMARK    2  A    between atoms: O_1  and  P_11
REMARK    3  A    between atoms: P_3  and  O_4
REMARK    4  A    between atoms: P_3  and  O_7
REMARK    5  A    between atoms: O_4  and  C_5
REMARK    6  A    between atoms: O_7  and  C_8
REMARK    7  A    between atoms: P_11  and  O_12
REMARK    8  A    between atoms: P_11  and  O_15
REMARK    9  A    between atoms: O_12  and  C_13
REMARK   10  A    between atoms: O_15  and  C_16
REMARK                            x       y       z     vdW  Elec       q    Type
REMARK                         _______ _______ _______ _____ _____    ______ ____
ROOT
ATOM      1  O   UNL     1      36.621 -24.528 -15.542  0.00  0.00    -0.236 OA
ENDROOT
BRANCH   1   3
ATOM      2  S   UNL     1      34.214 -23.841 -13.874  0.00  0.00    +0.023 S 
ATOM      3  P   UNL     1      35.310 -23.579 -15.459  0.00  0.00    +0.316 P 
BRANCH   3   4
ATOM      4  O   UNL     1      35.934 -22.097 -15.696  0.00  0.00    -0.297 OA
BRANCH   4   5
ATOM      5  C   UNL     1      37.132 -21.948 -16.439  0.00  0.00    +0.151 C 
ATOM      6  C   UNL     1      36.792 -21.448 -17.827  0.00  0.00    +0.035 C 
ENDBRANCH   4   5
ENDBRANCH   3   4
BRANCH   3   7
ATOM      7  O   UNL     1      34.598 -23.879 -16.888  0.00  0.00    -0.297 OA
BRANCH   7   8
ATOM      8  C   UNL     1      33.330 -23.316 -17.177  0.00  0.00    +0.151 C 
ATOM      9  C   UNL     1      33.412 -22.561 -18.486  0.00  0.00    +0.035 C 
ENDBRANCH   7   8
ENDBRANCH   3   7
ENDBRANCH   1   3
BRANCH   1  11
ATOM     10  S   UNL     1      37.039 -26.674 -13.474  0.00  0.00    +0.023 S 
ATOM     11  P   UNL     1      37.667 -25.112 -14.448  0.00  0.00    +0.316 P 
BRANCH  11  12
ATOM     12  O   UNL     1      39.029 -25.274 -15.318  0.00  0.00    -0.297 OA
BRANCH  12  13
ATOM     13  C   UNL     1      40.289 -25.117 -14.688  0.00  0.00    +0.151 C 
ATOM     14  C   UNL     1      40.797 -26.476 -14.255  0.00  0.00    +0.035 C 
ENDBRANCH  12  13
ENDBRANCH  11  12
BRANCH  11  15
ATOM     15  O   UNL     1      37.985 -23.787 -13.562  0.00  0.00    -0.297 OA
BRANCH  15  16
ATOM     16  C   UNL     1      38.086 -23.891 -12.152  0.00  0.00    +0.151 C 
ATOM     17  C   UNL     1      37.006 -23.042 -11.517  0.00  0.00    +0.035 C 
ENDBRANCH  15  16
ENDBRANCH  11  15
ENDBRANCH   1  11
TORSDOF 10
ENDMDL
MODEL 3
REMARK VINA RESULT:      -5.2      1.801      5.467
REMARK  Name = 19395
REMARK  10 active torsions:
REMARK  status: ('A' for Active; 'I' for Inactive)
REMARK    1  A    between atoms: O_1  and  P_3
REMARK    2  A    between atoms: O_1  and  P_11
REMARK    3  A    between atoms: P_3  and  O_4
REMARK    4  A    between atoms: P_3  and  O_7
REMARK    5  A    between atoms: O_4  and  C_5
REMARK    6  A    between atoms: O_7  and  C_8
REMARK    7  A    between atoms: P_11  and  O_12
REMARK    8  A    between atoms: P_11  and  O_15
REMARK    9  A    between atoms: O_12  and  C_13
REMARK   10  A    between atoms: O_15  and  C_16
REMARK                            x       y       z     vdW  Elec       q    Type
REMARK                         _______ _______ _______ _____ _____    ______ ____
ROOT
ATOM      1  O   UNL     1      36.188 -24.481 -15.560  0.00  0.00    -0.236 OA
ENDROOT
BRANCH   1   3
ATOM      2  S   UNL     1      36.819 -21.734 -16.609  0.00  0.00    +0.023 S 
ATOM      3  P   UNL     1      35.533 -23.104 -16.109  0.00  0.00    +0.316 P 
BRANCH   3   4
ATOM      4  O   UNL     1      34.523 -23.634 -17.266  0.00  0.00    -0.297 OA
BRANCH   4   5
ATOM      5  C   UNL     1      33.682 -22.714 -17.942  0.00  0.00    +0.151 C 
ATOM      6  C   UNL     1      34.247 -22.453 -19.323  0.00  0.00    +0.035 C 
ENDBRANCH   4   5
ENDBRANCH   3   4
BRANCH   3   7
ATOM      7  O   UNL     1      34.506 -22.729 -14.908  0.00  0.00    -0.297 OA
BRANCH   7   8
ATOM      8  C   UNL     1      33.560 -23.686 -14.463  0.00  0.00    +0.151 C 
ATOM      9  C   UNL     1      32.173 -23.087 -14.551  0.00  0.00    +0.035 C 
ENDBRANCH   7   8
ENDBRANCH   3   7
ENDBRANCH   1   3
BRANCH   1  11
ATOM     10  S   UNL     1      37.182 -26.682 -13.765  0.00  0.00    +0.023 S 
ATOM     11  P   UNL     1      37.251 -24.841 -14.389  0.00  0.00    +0.316 P 
BRANCH  11  12
ATOM     12  O   UNL     1      38.655 -24.319 -15.017  0.00  0.00    -0.297 OA
BRANCH  12  13
ATOM     13  C   UNL     1      39.687 -25.248 -15.304  0.00  0.00    +0.151 C 
ATOM     14  C   UNL     1      40.530 -25.447 -14.062  0.00  0.00    +0.035 C 
ENDBRANCH  12  13
ENDBRANCH  11  12
BRANCH  11  15
ATOM     15  O   UNL     1      36.924 -23.692 -13.287  0.00  0.00    -0.297 OA
BRANCH  15  16
ATOM     16  C   UNL     1      37.102 -23.967 -11.909  0.00  0.00    +0.151 C 
ATOM     17  C   UNL     1      35.747 -24.181 -11.269  0.00  0.00    +0.035 C 
ENDBRANCH  15  16
ENDBRANCH  11  15
ENDBRANCH   1  11
TORSDOF 10
ENDMDL
MODEL 4
REMARK VINA RESULT:      -5.2      1.805      2.355
REMARK  Name = 19395
REMARK  10 active torsions:
REMARK  status: ('A' for Active; 'I' for Inactive)
REMARK    1  A    between atoms: O_1  and  P_3
REMARK    2  A    between atoms: O_1  and  P_11
REMARK    3  A    between atoms: P_3  and  O_4
REMARK    4  A    between atoms: P_3  and  O_7
REMARK    5  A    between atoms: O_4  and  C_5
REMARK    6  A    between atoms: O_7  and  C_8
REMARK    7  A    between atoms: P_11  and  O_12
REMARK    8  A    between atoms: P_11  and  O_15
REMARK    9  A    between atoms: O_12  and  C_13
REMARK   10  A    between atoms: O_15  and  C_16
REMARK                            x       y       z     vdW  Elec       q    Type
REMARK                         _______ _______ _______ _____ _____    ______ ____
ROOT
ATOM      1  O   UNL     1      36.181 -24.464 -15.548  0.00  0.00    -0.236 OA
ENDROOT
BRANCH   1   3
ATOM      2  S   UNL     1      37.171 -26.631 -13.711  0.00  0.00    +0.023 S 
ATOM      3  P   UNL     1      37.248 -24.806 -14.376  0.00  0.00    +0.316 P 
BRANCH   3   4
ATOM      4  O   UNL     1      38.653 -24.310 -15.027  0.00  0.00    -0.297 OA
BRANCH   4   5
ATOM      5  C   UNL     1      39.669 -25.255 -15.312  0.00  0.00    +0.151 C 
ATOM      6  C   UNL     1      40.538 -25.431 -14.084  0.00  0.00    +0.035 C 
ENDBRANCH   4   5
ENDBRANCH   3   4
BRANCH   3   7
ATOM      7  O   UNL     1      36.940 -23.630 -13.299  0.00  0.00    -0.297 OA
BRANCH   7   8
ATOM      8  C   UNL     1      37.065 -23.892 -11.912  0.00  0.00    +0.151 C 
ATOM      9  C   UNL     1      35.688 -24.127 -11.328  0.00  0.00    +0.035 C 
ENDBRANCH   7   8
ENDBRANCH   3   7
ENDBRANCH   1   3
BRANCH   1  11
ATOM     10  S   UNL     1      36.800 -21.723 -16.623  0.00  0.00    +0.023 S 
ATOM     11  P   UNL     1      35.520 -23.096 -16.113  0.00  0.00    +0.316 P 
BRANCH  11  12
ATOM     12  O   UNL     1      34.514 -23.643 -17.265  0.00  0.00    -0.297 OA
BRANCH  12  13
ATOM     13  C   UNL     1      33.655 -22.737 -17.938  0.00  0.00    +0.151 C 
ATOM     14  C   UNL     1      34.203 -22.476 -19.325  0.00  0.00    +0.035 C 
ENDBRANCH  12  13
ENDBRANCH  11  12
BRANCH  11  15
ATOM     15  O   UNL     1      34.489 -22.714 -14.916  0.00  0.00    -0.297 OA
BRANCH  15  16
ATOM     16  C   UNL     1      33.557 -23.677 -14.455  0.00  0.00    +0.151 C 
ATOM     17  C   UNL     1      32.164 -23.088 -14.527  0.00  0.00    +0.035 C 
ENDBRANCH  15  16
ENDBRANCH  11  15
ENDBRANCH   1  11
TORSDOF 10
ENDMDL
MODEL 5
REMARK VINA RESULT:      -4.9     12.375     14.455
REMARK  Name = 19395
REMARK  10 active torsions:
REMARK  status: ('A' for Active; 'I' for Inactive)
REMARK    1  A    between atoms: O_1  and  P_3
REMARK    2  A    between atoms: O_1  and  P_11
REMARK    3  A    between atoms: P_3  and  O_4
REMARK    4  A    between atoms: P_3  and  O_7
REMARK    5  A    between atoms: O_4  and  C_5
REMARK    6  A    between atoms: O_7  and  C_8
REMARK    7  A    between atoms: P_11  and  O_12
REMARK    8  A    between atoms: P_11  and  O_15
REMARK    9  A    between atoms: O_12  and  C_13
REMARK   10  A    between atoms: O_15  and  C_16
REMARK                            x       y       z     vdW  Elec       q    Type
REMARK                         _______ _______ _______ _____ _____    ______ ____
ROOT
ATOM      1  O   UNL     1      34.239 -12.996 -23.506  0.00  0.00    -0.236 OA
ENDROOT
BRANCH   1   3
ATOM      2  S   UNL     1      33.445 -15.310 -25.255  0.00  0.00    +0.023 S 
ATOM      3  P   UNL     1      33.824 -14.563 -23.501  0.00  0.00    +0.316 P 
BRANCH   3   4
ATOM      4  O   UNL     1      35.028 -15.242 -22.646  0.00  0.00    -0.297 OA
BRANCH   4   5
ATOM      5  C   UNL     1      35.265 -16.635 -22.749  0.00  0.00    +0.151 C 
ATOM      6  C   UNL     1      35.153 -17.257 -21.372  0.00  0.00    +0.035 C 
ENDBRANCH   4   5
ENDBRANCH   3   4
BRANCH   3   7
ATOM      7  O   UNL     1      32.602 -14.573 -22.431  0.00  0.00    -0.297 OA
BRANCH   7   8
ATOM      8  C   UNL     1      32.814 -14.100 -21.112  0.00  0.00    +0.151 C 
ATOM      9  C   UNL     1      32.471 -15.200 -20.131  0.00  0.00    +0.035 C 
ENDBRANCH   7   8
ENDBRANCH   3   7
ENDBRANCH   1   3
BRANCH   1  11
ATOM     10  S   UNL     1      33.776 -11.846 -26.247  0.00  0.00    +0.023 S 
ATOM     11  P   UNL     1      33.716 -11.688 -24.310  0.00  0.00    +0.316 P 
BRANCH  11  12
ATOM     12  O   UNL     1      32.267 -11.415 -23.629  0.00  0.00    -0.297 OA
BRANCH  12  13
ATOM     13  C   UNL     1      32.184 -10.663 -22.430  0.00  0.00    +0.151 C 
ATOM     14  C   UNL     1      30.941 -11.080 -21.671  0.00  0.00    +0.035 C 
ENDBRANCH  12  13
ENDBRANCH  11  12
BRANCH  11  15
ATOM     15  O   UNL     1      34.627 -10.515 -23.651  0.00  0.00    -0.297 OA
BRANCH  15  16
ATOM     16  C   UNL     1      35.015  -9.401 -24.436  0.00  0.00    +0.151 C 
ATOM     17  C   UNL     1      34.736  -8.130 -23.662  0.00  0.00    +0.035 C 
ENDBRANCH  15  16
ENDBRANCH  11  15
ENDBRANCH   1  11
TORSDOF 10
ENDMDL
MODEL 6
REMARK VINA RESULT:      -4.9     12.404     15.034
REMARK  Name = 19395
REMARK  10 active torsions:
REMARK  status: ('A' for Active; 'I' for Inactive)
REMARK    1  A    between atoms: O_1  and  P_3
REMARK    2  A    between atoms: O_1  and  P_11
REMARK    3  A    between atoms: P_3  and  O_4
REMARK    4  A    between atoms: P_3  and  O_7
REMARK    5  A    between atoms: O_4  and  C_5
REMARK    6  A    between atoms: O_7  and  C_8
REMARK    7  A    between atoms: P_11  and  O_12
REMARK    8  A    between atoms: P_11  and  O_15
REMARK    9  A    between atoms: O_12  and  C_13
REMARK   10  A    between atoms: O_15  and  C_16
REMARK                            x       y       z     vdW  Elec       q    Type
REMARK                         _______ _______ _______ _____ _____    ______ ____
ROOT
ATOM      1  O   UNL     1      34.191 -12.970 -23.485  0.00  0.00    -0.236 OA
ENDROOT
BRANCH   1   3
ATOM      2  S   UNL     1      33.791 -11.852 -26.249  0.00  0.00    +0.023 S 
ATOM      3  P   UNL     1      33.711 -11.663 -24.315  0.00  0.00    +0.316 P 
BRANCH   3   4
ATOM      4  O   UNL     1      32.258 -11.344 -23.658  0.00  0.00    -0.297 OA
BRANCH   4   5
ATOM      5  C   UNL     1      32.180 -10.637 -22.433  0.00  0.00    +0.151 C 
ATOM      6  C   UNL     1      30.917 -11.048 -21.706  0.00  0.00    +0.035 C 
ENDBRANCH   4   5
ENDBRANCH   3   4
BRANCH   3   7
ATOM      7  O   UNL     1      34.640 -10.502 -23.663  0.00  0.00    -0.297 OA
BRANCH   7   8
ATOM      8  C   UNL     1      35.038  -9.391 -24.448  0.00  0.00    +0.151 C 
ATOM      9  C   UNL     1      34.724  -8.116 -23.696  0.00  0.00    +0.035 C 
ENDBRANCH   7   8
ENDBRANCH   3   7
ENDBRANCH   1   3
BRANCH   1  11
ATOM     10  S   UNL     1      33.413 -15.237 -25.305  0.00  0.00    +0.023 S 
ATOM     11  P   UNL     1      33.804 -14.544 -23.530  0.00  0.00    +0.316 P 
BRANCH  11  12
ATOM     12  O   UNL     1      35.031 -15.229 -22.716  0.00  0.00    -0.297 OA
BRANCH  12  13
ATOM     13  C   UNL     1      35.237 -16.629 -22.801  0.00  0.00    +0.151 C 
ATOM     14  C   UNL     1      35.144 -17.227 -21.413  0.00  0.00    +0.035 C 
ENDBRANCH  12  13
ENDBRANCH  11  12
BRANCH  11  15
ATOM     15  O   UNL     1      32.596 -14.614 -22.445  0.00  0.00    -0.297 OA
BRANCH  15  16
ATOM     16  C   UNL     1      32.789 -14.091 -21.142  0.00  0.00    +0.151 C 
ATOM     17  C   UNL     1      32.480 -15.170 -20.127  0.00  0.00    +0.035 C 
ENDBRANCH  15  16
ENDBRANCH  11  15
ENDBRANCH   1  11
TORSDOF 10
ENDMDL
MODEL 7
REMARK VINA RESULT:      -4.8      8.492     10.449
REMARK  Name = 19395
REMARK  10 active torsions:
REMARK  status: ('A' for Active; 'I' for Inactive)
REMARK    1  A    between atoms: O_1  and  P_3
REMARK    2  A    between atoms: O_1  and  P_11
REMARK    3  A    between atoms: P_3  and  O_4
REMARK    4  A    between atoms: P_3  and  O_7
REMARK    5  A    between atoms: O_4  and  C_5
REMARK    6  A    between atoms: O_7  and  C_8
REMARK    7  A    between atoms: P_11  and  O_12
REMARK    8  A    between atoms: P_11  and  O_15
REMARK    9  A    between atoms: O_12  and  C_13
REMARK   10  A    between atoms: O_15  and  C_16
REMARK                            x       y       z     vdW  Elec       q    Type
REMARK                         _______ _______ _______ _____ _____    ______ ____
ROOT
ATOM      1  O   UNL     1      33.624 -17.256 -21.798  0.00  0.00    -0.236 OA
ENDROOT
BRANCH   1   3
ATOM      2  S   UNL     1      35.416 -18.660 -23.765  0.00  0.00    +0.023 S 
ATOM      3  P   UNL     1      34.549 -18.568 -22.027  0.00  0.00    +0.316 P 
BRANCH   3   4
ATOM      4  O   UNL     1      35.509 -18.553 -20.716  0.00  0.00    -0.297 OA
BRANCH   4   5
ATOM      5  C   UNL     1      36.750 -19.237 -20.744  0.00  0.00    +0.151 C 
ATOM      6  C   UNL     1      36.597 -20.568 -20.038  0.00  0.00    +0.035 C 
ENDBRANCH   4   5
ENDBRANCH   3   4
BRANCH   3   7
ATOM      7  O   UNL     1      33.510 -19.766 -21.673  0.00  0.00    -0.297 OA
BRANCH   7   8
ATOM      8  C   UNL     1      32.791 -19.738 -20.452  0.00  0.00    +0.151 C 
ATOM      9  C   UNL     1      33.081 -21.007 -19.679  0.00  0.00    +0.035 C 
ENDBRANCH   7   8
ENDBRANCH   3   7
ENDBRANCH   1   3
BRANCH   1  11
ATOM     10  S   UNL     1      34.933 -14.964 -20.355  0.00  0.00    +0.023 S 
ATOM     11  P   UNL     1      33.896 -15.658 -21.845  0.00  0.00    +0.316 P 
BRANCH  11  12
ATOM     12  O   UNL     1      34.502 -15.450 -23.337  0.00  0.00    -0.297 OA
BRANCH  12  13
ATOM     13  C   UNL     1      33.667 -14.967 -24.376  0.00  0.00    +0.151 C 
ATOM     14  C   UNL     1      33.771 -15.897 -25.567  0.00  0.00    +0.035 C 
ENDBRANCH  12  13
ENDBRANCH  11  12
BRANCH  11  15
ATOM     15  O   UNL     1      32.386 -15.077 -22.009  0.00  0.00    -0.297 OA
BRANCH  15  16
ATOM     16  C   UNL     1      31.993 -13.926 -21.281  0.00  0.00    +0.151 C 
ATOM     17  C   UNL     1      32.134 -12.709 -22.170  0.00  0.00    +0.035 C 
ENDBRANCH  15  16
ENDBRANCH  11  15
ENDBRANCH   1  11
TORSDOF 10
ENDMDL
MODEL 8
REMARK VINA RESULT:      -4.8     11.120     13.300
REMARK  Name = 19395
REMARK  10 active torsions:
REMARK  status: ('A' for Active; 'I' for Inactive)
REMARK    1  A    between atoms: O_1  and  P_3
REMARK    2  A    between atoms: O_1  and  P_11
REMARK    3  A    between atoms: P_3  and  O_4
REMARK    4  A    between atoms: P_3  and  O_7
REMARK    5  A    between atoms: O_4  and  C_5
REMARK    6  A    between atoms: O_7  and  C_8
REMARK    7  A    between atoms: P_11  and  O_12
REMARK    8  A    between atoms: P_11  and  O_15
REMARK    9  A    between atoms: O_12  and  C_13
REMARK   10  A    between atoms: O_15  and  C_16
REMARK                            x       y       z     vdW  Elec       q    Type
REMARK                         _______ _______ _______ _____ _____    ______ ____
ROOT
ATOM      1  O   UNL     1      34.225 -14.372 -23.134  0.00  0.00    -0.236 OA
ENDROOT
BRANCH   1   3
ATOM      2  S   UNL     1      32.531 -15.733 -21.054  0.00  0.00    +0.023 S 
ATOM      3  P   UNL     1      33.880 -15.802 -22.452  0.00  0.00    +0.316 P 
BRANCH   3   4
ATOM      4  O   UNL     1      33.567 -16.739 -23.743  0.00  0.00    -0.297 OA
BRANCH   4   5
ATOM      5  C   UNL     1      34.626 -17.140 -24.595  0.00  0.00    +0.151 C 
ATOM      6  C   UNL     1      34.486 -18.618 -24.893  0.00  0.00    +0.035 C 
ENDBRANCH   4   5
ENDBRANCH   3   4
BRANCH   3   7
ATOM      7  O   UNL     1      35.355 -16.317 -22.009  0.00  0.00    -0.297 OA
BRANCH   7   8
ATOM      8  C   UNL     1      35.483 -17.343 -21.039  0.00  0.00    +0.151 C 
ATOM      9  C   UNL     1      36.265 -18.493 -21.638  0.00  0.00    +0.035 C 
ENDBRANCH   7   8
ENDBRANCH   3   7
ENDBRANCH   1   3
BRANCH   1  11
ATOM     10  S   UNL     1      33.044 -13.926 -25.865  0.00  0.00    +0.023 S 
ATOM     11  P   UNL     1      33.391 -13.324 -24.049  0.00  0.00    +0.316 P 
BRANCH  11  12
ATOM     12  O   UNL     1      32.105 -12.990 -23.115  0.00  0.00    -0.297 OA
BRANCH  12  13
ATOM     13  C   UNL     1      32.052 -11.765 -22.403  0.00  0.00    +0.151 C 
ATOM     14  C   UNL     1      31.634 -12.043 -20.974  0.00  0.00    +0.035 C 
ENDBRANCH  12  13
ENDBRANCH  11  12
BRANCH  11  15
ATOM     15  O   UNL     1      34.284 -11.974 -23.893  0.00  0.00    -0.297 OA
BRANCH  15  16
ATOM     16  C   UNL     1      34.422 -11.091 -24.993  0.00  0.00    +0.151 C 
ATOM     17  C   UNL     1      34.924  -9.754 -24.491  0.00  0.00    +0.035 C 
ENDBRANCH  15  16
ENDBRANCH  11  15
ENDBRANCH   1  11
TORSDOF 10
ENDMDL
MODEL 9
REMARK VINA RESULT:      -4.8      8.778     10.651
REMARK  Name = 19395
REMARK  10 active torsions:
REMARK  status: ('A' for Active; 'I' for Inactive)
REMARK    1  A    between atoms: O_1  and  P_3
REMARK    2  A    between atoms: O_1  and  P_11
REMARK    3  A    between atoms: P_3  and  O_4
REMARK    4  A    between atoms: P_3  and  O_7
REMARK    5  A    between atoms: O_4  and  C_5
REMARK    6  A    between atoms: O_7  and  C_8
REMARK    7  A    between atoms: P_11  and  O_12
REMARK    8  A    between atoms: P_11  and  O_15
REMARK    9  A    between atoms: O_12  and  C_13
REMARK   10  A    between atoms: O_15  and  C_16
REMARK                            x       y       z     vdW  Elec       q    Type
REMARK                         _______ _______ _______ _____ _____    ______ ____
ROOT
ATOM      1  O   UNL     1      34.903 -16.521 -21.873  0.00  0.00    -0.236 OA
ENDROOT
BRANCH   1   3
ATOM      2  S   UNL     1      35.299 -19.011 -23.514  0.00  0.00    +0.023 S 
ATOM      3  P   UNL     1      35.005 -18.138 -21.802  0.00  0.00    +0.316 P 
BRANCH   3   4
ATOM      4  O   UNL     1      36.125 -18.368 -20.647  0.00  0.00    -0.297 OA
BRANCH   4   5
ATOM      5  C   UNL     1      37.054 -19.432 -20.769  0.00  0.00    +0.151 C 
ATOM      6  C   UNL     1      36.566 -20.609 -19.951  0.00  0.00    +0.035 C 
ENDBRANCH   4   5
ENDBRANCH   3   4
BRANCH   3   7
ATOM      7  O   UNL     1      33.631 -18.518 -21.022  0.00  0.00    -0.297 OA
BRANCH   7   8
ATOM      8  C   UNL     1      33.034 -19.787 -21.223  0.00  0.00    +0.151 C 
ATOM      9  C   UNL     1      33.002 -20.531 -19.905  0.00  0.00    +0.035 C 
ENDBRANCH   7   8
ENDBRANCH   3   7
ENDBRANCH   1   3
BRANCH   1  11
ATOM     10  S   UNL     1      32.332 -15.303 -20.895  0.00  0.00    +0.023 S 
ATOM     11  P   UNL     1      33.720 -15.477 -22.245  0.00  0.00    +0.316 P 
BRANCH  11  12
ATOM     12  O   UNL     1      34.549 -14.137 -22.640  0.00  0.00    -0.297 OA
BRANCH  12  13
ATOM     13  C   UNL     1      33.879 -12.889 -22.706  0.00  0.00    +0.151 C 
ATOM     14  C   UNL     1      33.894 -12.394 -24.137  0.00  0.00    +0.035 C 
ENDBRANCH  12  13
ENDBRANCH  11  12
BRANCH  11  15
ATOM     15  O   UNL     1      33.248 -16.025 -23.701  0.00  0.00    -0.297 OA
BRANCH  15  16
ATOM     16  C   UNL     1      34.098 -15.864 -24.823  0.00  0.00    +0.151 C 
ATOM     17  C   UNL     1      33.267 -15.435 -26.014  0.00  0.00    +0.035 C 
ENDBRANCH  15  16
ENDBRANCH  11  15
ENDBRANCH   1  11
TORSDOF 10
ENDMDL
