MODEL 1
REMARK VINA RESULT:      -7.4      0.000      0.000
REMARK  Name = 21640
REMARK  1 active torsions:
REMARK  status: ('A' for Active; 'I' for Inactive)
REMARK    1  A    between atoms: N_1  and  C_9
REMARK                            x       y       z     vdW  Elec       q    Type
REMARK                         _______ _______ _______ _____ _____    ______ ____
ROOT
ATOM      1  N   UNL     1      34.780 -18.609 -22.106  0.00  0.00    -0.180 N 
ATOM      2  N   UNL     1      34.812 -18.865 -23.427  0.00  0.00    -0.038 NA
ATOM      3  N   UNL     1      35.201 -16.700 -23.063  0.00  0.00    -0.092 NA
ATOM      4  N   UNL     1      35.042 -16.763 -20.653  0.00  0.00    -0.326 N 
ATOM      5  N   UNL     1      35.069 -17.697 -24.002  0.00  0.00    -0.021 NA
ATOM      6  C   UNL     1      35.019 -17.283 -21.900  0.00  0.00    +0.237 A 
ATOM      7  H   UNL     1      34.883 -17.344 -19.874  0.00  0.00    +0.145 HD
ATOM      8  H   UNL     1      35.216 -15.803 -20.523  0.00  0.00    +0.145 HD
ENDROOT
BRANCH   1   9
ATOM      9  C   UNL     1      34.535 -19.606 -21.181  0.00  0.00    +0.087 C 
ATOM     10  C   UNL     1      33.226 -19.885 -20.787  0.00  0.00    +0.019 C 
ATOM     11  C   UNL     1      35.595 -20.335 -20.643  0.00  0.00    +0.019 C 
ATOM     12  C   UNL     1      32.979 -20.891 -19.853  0.00  0.00    +0.002 C 
ATOM     13  C   UNL     1      35.348 -21.342 -19.710  0.00  0.00    +0.002 C 
ATOM     14  C   UNL     1      34.040 -21.620 -19.314  0.00  0.00    +0.000 C 
ENDBRANCH   1   9
TORSDOF 1
ENDMDL
MODEL 2
REMARK VINA RESULT:      -7.3      0.643      2.176
REMARK  Name = 21640
REMARK  1 active torsions:
REMARK  status: ('A' for Active; 'I' for Inactive)
REMARK    1  A    between atoms: N_1  and  C_9
REMARK                            x       y       z     vdW  Elec       q    Type
REMARK                         _______ _______ _______ _____ _____    ______ ____
ROOT
ATOM      1  N   UNL     1      34.797 -18.277 -21.781  0.00  0.00    -0.180 N 
ATOM      2  N   UNL     1      34.865 -17.051 -21.230  0.00  0.00    -0.038 NA
ATOM      3  N   UNL     1      35.048 -16.900 -23.447  0.00  0.00    -0.092 NA
ATOM      4  N   UNL     1      34.872 -19.260 -23.929  0.00  0.00    -0.326 N 
ATOM      5  N   UNL     1      35.018 -16.218 -22.252  0.00  0.00    -0.021 NA
ATOM      6  C   UNL     1      34.910 -18.168 -23.135  0.00  0.00    +0.237 A 
ATOM      7  H   UNL     1      34.762 -20.154 -23.532  0.00  0.00    +0.145 HD
ATOM      8  H   UNL     1      34.956 -19.163 -24.905  0.00  0.00    +0.145 HD
ENDROOT
BRANCH   1   9
ATOM      9  C   UNL     1      34.634 -19.410 -21.007  0.00  0.00    +0.087 C 
ATOM     10  C   UNL     1      35.752 -20.116 -20.561  0.00  0.00    +0.019 C 
ATOM     11  C   UNL     1      33.354 -19.848 -20.670  0.00  0.00    +0.019 C 
ATOM     12  C   UNL     1      35.590 -21.260 -19.779  0.00  0.00    +0.002 C 
ATOM     13  C   UNL     1      33.191 -20.992 -19.888  0.00  0.00    +0.002 C 
ATOM     14  C   UNL     1      34.309 -21.698 -19.443  0.00  0.00    +0.000 C 
ENDBRANCH   1   9
TORSDOF 1
ENDMDL
MODEL 3
REMARK VINA RESULT:      -7.2      0.641      1.671
REMARK  Name = 21640
REMARK  1 active torsions:
REMARK  status: ('A' for Active; 'I' for Inactive)
REMARK    1  A    between atoms: N_1  and  C_9
REMARK                            x       y       z     vdW  Elec       q    Type
REMARK                         _______ _______ _______ _____ _____    ______ ____
ROOT
ATOM      1  N   UNL     1      34.786 -18.274 -21.776  0.00  0.00    -0.180 N 
ATOM      2  N   UNL     1      34.850 -17.048 -21.224  0.00  0.00    -0.038 NA
ATOM      3  N   UNL     1      35.037 -16.894 -23.440  0.00  0.00    -0.092 NA
ATOM      4  N   UNL     1      34.868 -19.255 -23.925  0.00  0.00    -0.326 N 
ATOM      5  N   UNL     1      35.002 -16.214 -22.244  0.00  0.00    -0.021 NA
ATOM      6  C   UNL     1      34.901 -18.163 -23.130  0.00  0.00    +0.237 A 
ATOM      7  H   UNL     1      34.760 -20.149 -23.529  0.00  0.00    +0.145 HD
ATOM      8  H   UNL     1      34.954 -19.156 -24.901  0.00  0.00    +0.145 HD
ENDROOT
BRANCH   1   9
ATOM      9  C   UNL     1      34.626 -19.408 -21.003  0.00  0.00    +0.087 C 
ATOM     10  C   UNL     1      33.345 -19.843 -20.661  0.00  0.00    +0.019 C 
ATOM     11  C   UNL     1      35.742 -20.120 -20.567  0.00  0.00    +0.019 C 
ATOM     12  C   UNL     1      33.181 -20.988 -19.882  0.00  0.00    +0.002 C 
ATOM     13  C   UNL     1      35.579 -21.266 -19.788  0.00  0.00    +0.002 C 
ATOM     14  C   UNL     1      34.299 -21.700 -19.445  0.00  0.00    +0.000 C 
ENDBRANCH   1   9
TORSDOF 1
ENDMDL
MODEL 4
REMARK VINA RESULT:      -7.2      2.476      4.411
REMARK  Name = 21640
REMARK  1 active torsions:
REMARK  status: ('A' for Active; 'I' for Inactive)
REMARK    1  A    between atoms: N_1  and  C_9
REMARK                            x       y       z     vdW  Elec       q    Type
REMARK                         _______ _______ _______ _____ _____    ______ ____
ROOT
ATOM      1  N   UNL     1      34.048 -20.097 -20.748  0.00  0.00    -0.180 N 
ATOM      2  N   UNL     1      32.777 -20.530 -20.666  0.00  0.00    -0.038 NA
ATOM      3  N   UNL     1      34.074 -21.721 -19.299  0.00  0.00    -0.092 NA
ATOM      4  N   UNL     1      36.154 -20.600 -19.801  0.00  0.00    -0.326 N 
ATOM      5  N   UNL     1      32.801 -21.518 -19.781  0.00  0.00    -0.021 NA
ATOM      6  C   UNL     1      34.828 -20.834 -19.907  0.00  0.00    +0.237 A 
ATOM      7  H   UNL     1      36.573 -19.887 -20.335  0.00  0.00    +0.145 HD
ATOM      8  H   UNL     1      36.703 -21.142 -19.189  0.00  0.00    +0.145 HD
ENDROOT
BRANCH   1   9
ATOM      9  C   UNL     1      34.406 -19.057 -21.585  0.00  0.00    +0.087 C 
ATOM     10  C   UNL     1      34.390 -17.745 -21.112  0.00  0.00    +0.019 C 
ATOM     11  C   UNL     1      34.786 -19.319 -22.901  0.00  0.00    +0.019 C 
ATOM     12  C   UNL     1      34.752 -16.695 -21.956  0.00  0.00    +0.002 C 
ATOM     13  C   UNL     1      35.149 -18.269 -23.745  0.00  0.00    +0.002 C 
ATOM     14  C   UNL     1      35.132 -16.957 -23.273  0.00  0.00    +0.000 C 
ENDBRANCH   1   9
TORSDOF 1
ENDMDL
MODEL 5
REMARK VINA RESULT:      -7.1      1.070      1.923
REMARK  Name = 21640
REMARK  1 active torsions:
REMARK  status: ('A' for Active; 'I' for Inactive)
REMARK    1  A    between atoms: N_1  and  C_9
REMARK                            x       y       z     vdW  Elec       q    Type
REMARK                         _______ _______ _______ _____ _____    ______ ____
ROOT
ATOM      1  N   UNL     1      34.907 -17.323 -22.214  0.00  0.00    -0.180 N 
ATOM      2  N   UNL     1      35.008 -17.330 -23.556  0.00  0.00    -0.038 NA
ATOM      3  N   UNL     1      34.860 -15.232 -22.815  0.00  0.00    -0.092 NA
ATOM      4  N   UNL     1      34.706 -15.750 -20.461  0.00  0.00    -0.326 N 
ATOM      5  N   UNL     1      34.979 -16.053 -23.914  0.00  0.00    -0.021 NA
ATOM      6  C   UNL     1      34.818 -16.035 -21.777  0.00  0.00    +0.237 A 
ATOM      7  H   UNL     1      34.688 -16.479 -19.799  0.00  0.00    +0.145 HD
ATOM      8  H   UNL     1      34.642 -14.814 -20.163  0.00  0.00    +0.145 HD
ENDROOT
BRANCH   1   9
ATOM      9  C   UNL     1      34.905 -18.495 -21.482  0.00  0.00    +0.087 C 
ATOM     10  C   UNL     1      36.111 -19.052 -21.055  0.00  0.00    +0.019 C 
ATOM     11  C   UNL     1      33.699 -19.121 -21.169  0.00  0.00    +0.019 C 
ATOM     12  C   UNL     1      36.110 -20.235 -20.316  0.00  0.00    +0.002 C 
ATOM     13  C   UNL     1      33.698 -20.303 -20.429  0.00  0.00    +0.002 C 
ATOM     14  C   UNL     1      34.903 -20.861 -20.003  0.00  0.00    +0.000 C 
ENDBRANCH   1   9
TORSDOF 1
ENDMDL
MODEL 6
REMARK VINA RESULT:      -7.1      2.351      4.473
REMARK  Name = 21640
REMARK  1 active torsions:
REMARK  status: ('A' for Active; 'I' for Inactive)
REMARK    1  A    between atoms: N_1  and  C_9
REMARK                            x       y       z     vdW  Elec       q    Type
REMARK                         _______ _______ _______ _____ _____    ______ ____
ROOT
ATOM      1  N   UNL     1      34.965 -19.742 -20.711  0.00  0.00    -0.180 N 
ATOM      2  N   UNL     1      36.102 -20.118 -20.098  0.00  0.00    -0.038 NA
ATOM      3  N   UNL     1      34.403 -21.371 -19.381  0.00  0.00    -0.092 NA
ATOM      4  N   UNL     1      32.678 -20.342 -20.724  0.00  0.00    -0.326 N 
ATOM      5  N   UNL     1      35.751 -21.111 -19.290  0.00  0.00    -0.021 NA
ATOM      6  C   UNL     1      33.936 -20.517 -20.263  0.00  0.00    +0.237 A 
ATOM      7  H   UNL     1      32.492 -19.646 -21.395  0.00  0.00    +0.145 HD
ATOM      8  H   UNL     1      31.947 -20.911 -20.389  0.00  0.00    +0.145 HD
ENDROOT
BRANCH   1   9
ATOM      9  C   UNL     1      34.946 -18.718 -21.639  0.00  0.00    +0.087 C 
ATOM     10  C   UNL     1      34.848 -17.393 -21.212  0.00  0.00    +0.019 C 
ATOM     11  C   UNL     1      35.027 -19.007 -23.000  0.00  0.00    +0.019 C 
ATOM     12  C   UNL     1      34.829 -16.359 -22.147  0.00  0.00    +0.002 C 
ATOM     13  C   UNL     1      35.010 -17.973 -23.936  0.00  0.00    +0.002 C 
ATOM     14  C   UNL     1      34.910 -16.649 -23.510  0.00  0.00    +0.000 C 
ENDBRANCH   1   9
TORSDOF 1
ENDMDL
MODEL 7
REMARK VINA RESULT:      -7.1     10.044     11.341
REMARK  Name = 21640
REMARK  1 active torsions:
REMARK  status: ('A' for Active; 'I' for Inactive)
REMARK    1  A    between atoms: N_1  and  C_9
REMARK                            x       y       z     vdW  Elec       q    Type
REMARK                         _______ _______ _______ _____ _____    ______ ____
ROOT
ATOM      1  N   UNL     1      36.195 -24.735 -11.652  0.00  0.00    -0.180 N 
ATOM      2  N   UNL     1      35.280 -25.203 -10.784  0.00  0.00    -0.038 NA
ATOM      3  N   UNL     1      36.375 -23.484  -9.880  0.00  0.00    -0.092 NA
ATOM      4  N   UNL     1      37.831 -23.033 -11.753  0.00  0.00    -0.326 N 
ATOM      5  N   UNL     1      35.395 -24.435  -9.707  0.00  0.00    -0.021 NA
ATOM      6  C   UNL     1      36.855 -23.685 -11.086  0.00  0.00    +0.237 A 
ATOM      7  H   UNL     1      38.077 -23.313 -12.664  0.00  0.00    +0.145 HD
ATOM      8  H   UNL     1      38.298 -22.277 -11.329  0.00  0.00    +0.145 HD
ENDROOT
BRANCH   1   9
ATOM      9  C   UNL     1      36.362 -25.300 -12.902  0.00  0.00    +0.087 C 
ATOM     10  C   UNL     1      35.603 -24.843 -13.980  0.00  0.00    +0.019 C 
ATOM     11  C   UNL     1      37.290 -26.324 -13.087  0.00  0.00    +0.019 C 
ATOM     12  C   UNL     1      35.772 -25.412 -15.243  0.00  0.00    +0.002 C 
ATOM     13  C   UNL     1      37.459 -26.893 -14.350  0.00  0.00    +0.002 C 
ATOM     14  C   UNL     1      36.700 -26.437 -15.427  0.00  0.00    +0.000 C 
ENDBRANCH   1   9
TORSDOF 1
ENDMDL
MODEL 8
REMARK VINA RESULT:      -6.7      4.190      5.538
REMARK  Name = 21640
REMARK  1 active torsions:
REMARK  status: ('A' for Active; 'I' for Inactive)
REMARK    1  A    between atoms: N_1  and  C_9
REMARK                            x       y       z     vdW  Elec       q    Type
REMARK                         _______ _______ _______ _____ _____    ______ ____
ROOT
ATOM      1  N   UNL     1      34.693 -22.124 -18.326  0.00  0.00    -0.180 N 
ATOM      2  N   UNL     1      35.910 -22.287 -17.776  0.00  0.00    -0.038 NA
ATOM      3  N   UNL     1      34.420 -23.560 -16.713  0.00  0.00    -0.092 NA
ATOM      4  N   UNL     1      32.491 -22.930 -18.024  0.00  0.00    -0.326 N 
ATOM      5  N   UNL     1      35.735 -23.164 -16.794  0.00  0.00    -0.021 NA
ATOM      6  C   UNL     1      33.794 -22.909 -17.666  0.00  0.00    +0.237 A 
ATOM      7  H   UNL     1      32.177 -22.373 -18.772  0.00  0.00    +0.145 HD
ATOM      8  H   UNL     1      31.856 -23.502 -17.536  0.00  0.00    +0.145 HD
ENDROOT
BRANCH   1   9
ATOM      9  C   UNL     1      34.489 -21.271 -19.393  0.00  0.00    +0.087 C 
ATOM     10  C   UNL     1      33.194 -20.884 -19.739  0.00  0.00    +0.019 C 
ATOM     11  C   UNL     1      35.577 -20.796 -20.125  0.00  0.00    +0.019 C 
ATOM     12  C   UNL     1      32.987 -20.023 -20.816  0.00  0.00    +0.002 C 
ATOM     13  C   UNL     1      35.370 -19.934 -21.202  0.00  0.00    +0.002 C 
ATOM     14  C   UNL     1      34.076 -19.548 -21.548  0.00  0.00    +0.000 C 
ENDBRANCH   1   9
TORSDOF 1
ENDMDL
MODEL 9
REMARK VINA RESULT:      -6.7      9.546     10.825
REMARK  Name = 21640
REMARK  1 active torsions:
REMARK  status: ('A' for Active; 'I' for Inactive)
REMARK    1  A    between atoms: N_1  and  C_9
REMARK                            x       y       z     vdW  Elec       q    Type
REMARK                         _______ _______ _______ _____ _____    ______ ____
ROOT
ATOM      1  N   UNL     1      39.105 -25.283 -13.973  0.00  0.00    -0.180 N 
ATOM      2  N   UNL     1      39.902 -26.291 -13.576  0.00  0.00    -0.038 NA
ATOM      3  N   UNL     1      40.526 -25.579 -15.595  0.00  0.00    -0.092 NA
ATOM      4  N   UNL     1      38.857 -23.849 -15.836  0.00  0.00    -0.326 N 
ATOM      5  N   UNL     1      40.765 -26.465 -14.569  0.00  0.00    -0.021 NA
ATOM      6  C   UNL     1      39.498 -24.858 -15.207  0.00  0.00    +0.237 A 
ATOM      7  H   UNL     1      38.092 -23.406 -15.403  0.00  0.00    +0.145 HD
ATOM      8  H   UNL     1      39.155 -23.556 -16.727  0.00  0.00    +0.145 HD
ENDROOT
BRANCH   1   9
ATOM      9  C   UNL     1      38.073 -24.819 -13.179  0.00  0.00    +0.087 C 
ATOM     10  C   UNL     1      38.318 -23.832 -12.224  0.00  0.00    +0.019 C 
ATOM     11  C   UNL     1      36.787 -25.337 -13.332  0.00  0.00    +0.019 C 
ATOM     12  C   UNL     1      37.277 -23.364 -11.421  0.00  0.00    +0.002 C 
ATOM     13  C   UNL     1      35.746 -24.868 -12.531  0.00  0.00    +0.002 C 
ATOM     14  C   UNL     1      35.991 -23.882 -11.575  0.00  0.00    +0.000 C 
ENDBRANCH   1   9
TORSDOF 1
ENDMDL
