MODEL 1
REMARK VINA RESULT:      -8.9      0.000      0.000
REMARK  Name = 100154
REMARK  9 active torsions:
REMARK  status: ('A' for Active; 'I' for Inactive)
REMARK    1  A    between atoms: C_1  and  C_2
REMARK    2  A    between atoms: C_1  and  O_14
REMARK    3  A    between atoms: C_1  and  C_16
REMARK    4  A    between atoms: C_5  and  O_8
REMARK    5  A    between atoms: C_6  and  O_10
REMARK    6  A    between atoms: C_7  and  O_12
REMARK    7  A    between atoms: C_16  and  C_17
REMARK    8  A    between atoms: C_20  and  O_25
REMARK    9  A    between atoms: C_22  and  O_23
REMARK                            x       y       z     vdW  Elec       q    Type
REMARK                         _______ _______ _______ _____ _____    ______ ____
ROOT
ATOM      1  C   UNL     1      33.900 -22.720 -18.581  0.00  0.00    +0.137 C 
ENDROOT
BRANCH   1   2
ATOM      2  C   UNL     1      33.368 -23.041 -17.204  0.00  0.00    +0.011 C 
ATOM      3  C   UNL     1      34.234 -23.533 -16.241  0.00  0.00    +0.038 C 
ATOM      4  C   UNL     1      32.026 -22.838 -16.932  0.00  0.00    +0.038 C 
ATOM      5  C   UNL     1      31.534 -23.135 -15.661  0.00  0.00    +0.175 C 
ATOM      6  C   UNL     1      33.743 -23.830 -14.970  0.00  0.00    +0.175 C 
ATOM      7  C   UNL     1      32.394 -23.631 -14.680  0.00  0.00    +0.206 C 
BRANCH   5   8
ATOM      8  O   UNL     1      30.215 -22.935 -15.390  0.00  0.00    -0.468 OA
ATOM      9  C   UNL     1      29.336 -22.802 -16.507  0.00  0.00    +0.253 C 
ENDBRANCH   5   8
BRANCH   6  10
ATOM     10  O   UNL     1      34.592 -24.310 -14.020  0.00  0.00    -0.468 OA
ATOM     11  C   UNL     1      35.866 -24.775 -14.465  0.00  0.00    +0.253 C 
ENDBRANCH   6  10
BRANCH   7  12
ATOM     12  O   UNL     1      31.914 -23.918 -13.436  0.00  0.00    -0.465 OA
ATOM     13  C   UNL     1      31.161 -25.120 -13.296  0.00  0.00    +0.253 C 
ENDBRANCH   7  12
ENDBRANCH   1   2
BRANCH   1  14
ATOM     14  O   UNL     1      33.968 -23.933 -19.332  0.00  0.00    -0.380 OA
ATOM     15  H   UNL     1      34.535 -24.569 -18.869  0.00  0.00    +0.211 HD
ENDBRANCH   1  14
BRANCH   1  16
ATOM     16  C   UNL     1      33.034 -21.692 -19.342  0.00  0.00    +0.060 C 
BRANCH  16  17
ATOM     17  C   UNL     1      33.820 -20.660 -20.077  0.00  0.00    -0.016 C 
ATOM     18  C   UNL     1      35.213 -20.670 -20.016  0.00  0.00    +0.036 C 
ATOM     19  C   UNL     1      33.162 -19.683 -20.824  0.00  0.00    -0.001 C 
ATOM     20  C   UNL     1      35.949 -19.704 -20.702  0.00  0.00    +0.167 C 
ATOM     21  C   UNL     1      33.897 -18.717 -21.511  0.00  0.00    +0.040 C 
ATOM     22  C   UNL     1      35.291 -18.728 -21.450  0.00  0.00    +0.172 C 
BRANCH  22  23
ATOM     23  O   UNL     1      35.998 -17.779 -22.125  0.00  0.00    -0.468 OA
ATOM     24  C   UNL     1      35.248 -16.795 -22.835  0.00  0.00    +0.253 C 
ENDBRANCH  22  23
BRANCH  20  25
ATOM     25  O   UNL     1      37.310 -19.725 -20.637  0.00  0.00    -0.503 OA
ATOM     26  H   UNL     1      37.805 -18.987 -20.935  0.00  0.00    +0.292 HD
ENDBRANCH  20  25
ENDBRANCH  16  17
ENDBRANCH   1  16
TORSDOF 9
ENDMDL
MODEL 2
REMARK VINA RESULT:      -8.9      0.149      2.654
REMARK  Name = 100154
REMARK  9 active torsions:
REMARK  status: ('A' for Active; 'I' for Inactive)
REMARK    1  A    between atoms: C_1  and  C_2
REMARK    2  A    between atoms: C_1  and  O_14
REMARK    3  A    between atoms: C_1  and  C_16
REMARK    4  A    between atoms: C_5  and  O_8
REMARK    5  A    between atoms: C_6  and  O_10
REMARK    6  A    between atoms: C_7  and  O_12
REMARK    7  A    between atoms: C_16  and  C_17
REMARK    8  A    between atoms: C_20  and  O_25
REMARK    9  A    between atoms: C_22  and  O_23
REMARK                            x       y       z     vdW  Elec       q    Type
REMARK                         _______ _______ _______ _____ _____    ______ ____
ROOT
ATOM      1  C   UNL     1      33.914 -22.691 -18.688  0.00  0.00    +0.137 C 
ENDROOT
BRANCH   1   2
ATOM      2  C   UNL     1      33.415 -23.014 -17.299  0.00  0.00    +0.011 C 
ATOM      3  C   UNL     1      32.076 -22.821 -16.998  0.00  0.00    +0.038 C 
ATOM      4  C   UNL     1      34.305 -23.495 -16.354  0.00  0.00    +0.038 C 
ATOM      5  C   UNL     1      33.845 -23.792 -15.071  0.00  0.00    +0.175 C 
ATOM      6  C   UNL     1      31.616 -23.118 -15.717  0.00  0.00    +0.175 C 
ATOM      7  C   UNL     1      32.499 -23.604 -14.753  0.00  0.00    +0.206 C 
BRANCH   5   8
ATOM      8  O   UNL     1      34.718 -24.268 -14.141  0.00  0.00    -0.468 OA
ATOM      9  C   UNL     1      35.826 -25.029 -14.620  0.00  0.00    +0.253 C 
ENDBRANCH   5   8
BRANCH   6  10
ATOM     10  O   UNL     1      30.300 -22.933 -15.418  0.00  0.00    -0.468 OA
ATOM     11  C   UNL     1      29.359 -23.170 -16.464  0.00  0.00    +0.253 C 
ENDBRANCH   6  10
BRANCH   7  12
ATOM     12  O   UNL     1      32.049 -23.898 -13.500  0.00  0.00    -0.465 OA
ATOM     13  C   UNL     1      31.358 -25.133 -13.334  0.00  0.00    +0.253 C 
ENDBRANCH   7  12
ENDBRANCH   1   2
BRANCH   1  14
ATOM     14  O   UNL     1      33.938 -23.899 -19.450  0.00  0.00    -0.380 OA
ATOM     15  H   UNL     1      33.438 -23.774 -20.272  0.00  0.00    +0.211 HD
ENDBRANCH   1  14
BRANCH   1  16
ATOM     16  C   UNL     1      33.046 -21.641 -19.417  0.00  0.00    +0.060 C 
BRANCH  16  17
ATOM     17  C   UNL     1      33.832 -20.607 -20.151  0.00  0.00    -0.016 C 
ATOM     18  C   UNL     1      35.224 -20.603 -20.073  0.00  0.00    +0.036 C 
ATOM     19  C   UNL     1      33.173 -19.643 -20.914  0.00  0.00    -0.001 C 
ATOM     20  C   UNL     1      35.959 -19.636 -20.758  0.00  0.00    +0.167 C 
ATOM     21  C   UNL     1      33.907 -18.675 -21.600  0.00  0.00    +0.040 C 
ATOM     22  C   UNL     1      35.301 -18.672 -21.522  0.00  0.00    +0.172 C 
BRANCH  22  23
ATOM     23  O   UNL     1      36.006 -17.722 -22.196  0.00  0.00    -0.468 OA
ATOM     24  C   UNL     1      35.255 -16.720 -22.879  0.00  0.00    +0.253 C 
ENDBRANCH  22  23
BRANCH  20  25
ATOM     25  O   UNL     1      37.319 -19.643 -20.676  0.00  0.00    -0.503 OA
ATOM     26  H   UNL     1      37.793 -18.835 -20.684  0.00  0.00    +0.292 HD
ENDBRANCH  20  25
ENDBRANCH  16  17
ENDBRANCH   1  16
TORSDOF 9
ENDMDL
MODEL 3
REMARK VINA RESULT:      -8.8      2.451      3.765
REMARK  Name = 100154
REMARK  9 active torsions:
REMARK  status: ('A' for Active; 'I' for Inactive)
REMARK    1  A    between atoms: C_1  and  C_2
REMARK    2  A    between atoms: C_1  and  O_14
REMARK    3  A    between atoms: C_1  and  C_16
REMARK    4  A    between atoms: C_5  and  O_8
REMARK    5  A    between atoms: C_6  and  O_10
REMARK    6  A    between atoms: C_7  and  O_12
REMARK    7  A    between atoms: C_16  and  C_17
REMARK    8  A    between atoms: C_20  and  O_25
REMARK    9  A    between atoms: C_22  and  O_23
REMARK                            x       y       z     vdW  Elec       q    Type
REMARK                         _______ _______ _______ _____ _____    ______ ____
ROOT
ATOM      1  C   UNL     1      36.510 -21.389 -17.226  0.00  0.00    +0.137 C 
ENDROOT
BRANCH   1   2
ATOM      2  C   UNL     1      36.573 -22.556 -16.268  0.00  0.00    +0.011 C 
ATOM      3  C   UNL     1      37.801 -22.959 -15.771  0.00  0.00    +0.038 C 
ATOM      4  C   UNL     1      35.401 -23.199 -15.906  0.00  0.00    +0.038 C 
ATOM      5  C   UNL     1      35.459 -24.277 -15.023  0.00  0.00    +0.175 C 
ATOM      6  C   UNL     1      37.860 -24.036 -14.887  0.00  0.00    +0.175 C 
ATOM      7  C   UNL     1      36.689 -24.695 -14.513  0.00  0.00    +0.206 C 
BRANCH   5   8
ATOM      8  O   UNL     1      34.308 -24.910 -14.664  0.00  0.00    -0.468 OA
ATOM      9  C   UNL     1      33.384 -24.173 -13.864  0.00  0.00    +0.253 C 
ENDBRANCH   5   8
BRANCH   6  10
ATOM     10  O   UNL     1      39.065 -24.433 -14.395  0.00  0.00    -0.468 OA
ATOM     11  C   UNL     1      39.835 -25.323 -15.203  0.00  0.00    +0.253 C 
ENDBRANCH   6  10
BRANCH   7  12
ATOM     12  O   UNL     1      36.745 -25.746 -13.646  0.00  0.00    -0.465 OA
ATOM     13  C   UNL     1      36.730 -25.439 -12.255  0.00  0.00    +0.253 C 
ENDBRANCH   7  12
ENDBRANCH   1   2
BRANCH   1  14
ATOM     14  O   UNL     1      37.582 -20.496 -16.919  0.00  0.00    -0.380 OA
ATOM     15  H   UNL     1      38.341 -20.693 -17.492  0.00  0.00    +0.211 HD
ENDBRANCH   1  14
BRANCH   1  16
ATOM     16  C   UNL     1      36.604 -21.815 -18.708  0.00  0.00    +0.060 C 
BRANCH  16  17
ATOM     17  C   UNL     1      35.996 -20.840 -19.660  0.00  0.00    -0.016 C 
ATOM     18  C   UNL     1      34.624 -20.872 -19.910  0.00  0.00    +0.036 C 
ATOM     19  C   UNL     1      36.800 -19.898 -20.301  0.00  0.00    -0.001 C 
ATOM     20  C   UNL     1      34.056 -19.962 -20.801  0.00  0.00    +0.167 C 
ATOM     21  C   UNL     1      36.232 -18.987 -21.191  0.00  0.00    +0.040 C 
ATOM     22  C   UNL     1      34.859 -19.019 -21.441  0.00  0.00    +0.172 C 
BRANCH  22  23
ATOM     23  O   UNL     1      34.317 -18.124 -22.313  0.00  0.00    -0.468 OA
ATOM     24  C   UNL     1      35.098 -16.973 -22.630  0.00  0.00    +0.253 C 
ENDBRANCH  22  23
BRANCH  20  25
ATOM     25  O   UNL     1      32.715 -20.001 -21.035  0.00  0.00    -0.503 OA
ATOM     26  H   UNL     1      32.336 -19.441 -21.684  0.00  0.00    +0.292 HD
ENDBRANCH  20  25
ENDBRANCH  16  17
ENDBRANCH   1  16
TORSDOF 9
ENDMDL
MODEL 4
REMARK VINA RESULT:      -8.8      2.462      4.509
REMARK  Name = 100154
REMARK  9 active torsions:
REMARK  status: ('A' for Active; 'I' for Inactive)
REMARK    1  A    between atoms: C_1  and  C_2
REMARK    2  A    between atoms: C_1  and  O_14
REMARK    3  A    between atoms: C_1  and  C_16
REMARK    4  A    between atoms: C_5  and  O_8
REMARK    5  A    between atoms: C_6  and  O_10
REMARK    6  A    between atoms: C_7  and  O_12
REMARK    7  A    between atoms: C_16  and  C_17
REMARK    8  A    between atoms: C_20  and  O_25
REMARK    9  A    between atoms: C_22  and  O_23
REMARK                            x       y       z     vdW  Elec       q    Type
REMARK                         _______ _______ _______ _____ _____    ______ ____
ROOT
ATOM      1  C   UNL     1      36.509 -21.388 -17.236  0.00  0.00    +0.137 C 
ENDROOT
BRANCH   1   2
ATOM      2  C   UNL     1      36.585 -22.558 -16.282  0.00  0.00    +0.011 C 
ATOM      3  C   UNL     1      35.418 -23.204 -15.909  0.00  0.00    +0.038 C 
ATOM      4  C   UNL     1      37.819 -22.960 -15.800  0.00  0.00    +0.038 C 
ATOM      5  C   UNL     1      37.889 -24.039 -14.919  0.00  0.00    +0.175 C 
ATOM      6  C   UNL     1      35.488 -24.283 -15.028  0.00  0.00    +0.175 C 
ATOM      7  C   UNL     1      36.723 -24.701 -14.534  0.00  0.00    +0.206 C 
BRANCH   5   8
ATOM      8  O   UNL     1      39.102 -24.438 -14.445  0.00  0.00    -0.468 OA
ATOM      9  C   UNL     1      39.822 -25.391 -15.226  0.00  0.00    +0.253 C 
ENDBRANCH   5   8
BRANCH   6  10
ATOM     10  O   UNL     1      34.343 -24.922 -14.662  0.00  0.00    -0.468 OA
ATOM     11  C   UNL     1      33.412 -24.183 -13.872  0.00  0.00    +0.253 C 
ENDBRANCH   6  10
BRANCH   7  12
ATOM     12  O   UNL     1      36.792 -25.758 -13.675  0.00  0.00    -0.465 OA
ATOM     13  C   UNL     1      36.796 -25.459 -12.281  0.00  0.00    +0.253 C 
ENDBRANCH   7  12
ENDBRANCH   1   2
BRANCH   1  14
ATOM     14  O   UNL     1      37.574 -20.486 -16.928  0.00  0.00    -0.380 OA
ATOM     15  H   UNL     1      37.206 -19.630 -16.660  0.00  0.00    +0.211 HD
ENDBRANCH   1  14
BRANCH   1  16
ATOM     16  C   UNL     1      36.604 -21.807 -18.719  0.00  0.00    +0.060 C 
BRANCH  16  17
ATOM     17  C   UNL     1      35.993 -20.831 -19.667  0.00  0.00    -0.016 C 
ATOM     18  C   UNL     1      34.622 -20.869 -19.921  0.00  0.00    +0.036 C 
ATOM     19  C   UNL     1      36.793 -19.880 -20.301  0.00  0.00    -0.001 C 
ATOM     20  C   UNL     1      34.051 -19.957 -20.808  0.00  0.00    +0.167 C 
ATOM     21  C   UNL     1      36.222 -18.967 -21.187  0.00  0.00    +0.040 C 
ATOM     22  C   UNL     1      34.850 -19.006 -21.440  0.00  0.00    +0.172 C 
BRANCH  22  23
ATOM     23  O   UNL     1      34.304 -18.109 -22.308  0.00  0.00    -0.468 OA
ATOM     24  C   UNL     1      35.134 -17.027 -22.730  0.00  0.00    +0.253 C 
ENDBRANCH  22  23
BRANCH  20  25
ATOM     25  O   UNL     1      32.710 -20.003 -21.046  0.00  0.00    -0.503 OA
ATOM     26  H   UNL     1      32.388 -20.388 -21.838  0.00  0.00    +0.292 HD
ENDBRANCH  20  25
ENDBRANCH  16  17
ENDBRANCH   1  16
TORSDOF 9
ENDMDL
MODEL 5
REMARK VINA RESULT:      -8.8      3.241      9.749
REMARK  Name = 100154
REMARK  9 active torsions:
REMARK  status: ('A' for Active; 'I' for Inactive)
REMARK    1  A    between atoms: C_1  and  C_2
REMARK    2  A    between atoms: C_1  and  O_14
REMARK    3  A    between atoms: C_1  and  C_16
REMARK    4  A    between atoms: C_5  and  O_8
REMARK    5  A    between atoms: C_6  and  O_10
REMARK    6  A    between atoms: C_7  and  O_12
REMARK    7  A    between atoms: C_16  and  C_17
REMARK    8  A    between atoms: C_20  and  O_25
REMARK    9  A    between atoms: C_22  and  O_23
REMARK                            x       y       z     vdW  Elec       q    Type
REMARK                         _______ _______ _______ _____ _____    ______ ____
ROOT
ATOM      1  C   UNL     1      35.306 -17.710 -21.875  0.00  0.00    +0.137 C 
ENDROOT
BRANCH   1   2
ATOM      2  C   UNL     1      34.682 -16.557 -22.627  0.00  0.00    +0.011 C 
ATOM      3  C   UNL     1      34.194 -15.472 -21.919  0.00  0.00    +0.038 C 
ATOM      4  C   UNL     1      34.610 -16.611 -24.009  0.00  0.00    +0.038 C 
ATOM      5  C   UNL     1      34.033 -15.547 -24.703  0.00  0.00    +0.175 C 
ATOM      6  C   UNL     1      33.618 -14.408 -22.613  0.00  0.00    +0.175 C 
ATOM      7  C   UNL     1      33.537 -14.445 -24.005  0.00  0.00    +0.206 C 
BRANCH   5   8
ATOM      8  O   UNL     1      33.962 -15.595 -26.062  0.00  0.00    -0.468 OA
ATOM      9  C   UNL     1      32.666 -15.745 -26.639  0.00  0.00    +0.253 C 
ENDBRANCH   5   8
BRANCH   6  10
ATOM     10  O   UNL     1      33.140 -13.338 -21.920  0.00  0.00    -0.468 OA
ATOM     11  C   UNL     1      32.438 -13.611 -20.708  0.00  0.00    +0.253 C 
ENDBRANCH   6  10
BRANCH   7  12
ATOM     12  O   UNL     1      32.976 -13.405 -24.684  0.00  0.00    -0.465 OA
ATOM     13  C   UNL     1      33.822 -12.298 -24.984  0.00  0.00    +0.253 C 
ENDBRANCH   7  12
ENDBRANCH   1   2
BRANCH   1  14
ATOM     14  O   UNL     1      35.295 -17.398 -20.481  0.00  0.00    -0.380 OA
ATOM     15  H   UNL     1      36.202 -17.414 -20.139  0.00  0.00    +0.211 HD
ENDBRANCH   1  14
BRANCH   1  16
ATOM     16  C   UNL     1      34.576 -19.052 -22.106  0.00  0.00    +0.060 C 
BRANCH  16  17
ATOM     17  C   UNL     1      34.734 -20.029 -20.991  0.00  0.00    -0.016 C 
ATOM     18  C   UNL     1      33.607 -20.588 -20.388  0.00  0.00    +0.036 C 
ATOM     19  C   UNL     1      36.009 -20.383 -20.548  0.00  0.00    -0.001 C 
ATOM     20  C   UNL     1      33.755 -21.501 -19.344  0.00  0.00    +0.167 C 
ATOM     21  C   UNL     1      36.157 -21.296 -19.505  0.00  0.00    +0.040 C 
ATOM     22  C   UNL     1      35.030 -21.855 -18.902  0.00  0.00    +0.172 C 
BRANCH  22  23
ATOM     23  O   UNL     1      35.187 -22.746 -17.884  0.00  0.00    -0.468 OA
ATOM     24  C   UNL     1      36.048 -22.360 -16.814  0.00  0.00    +0.253 C 
ENDBRANCH  22  23
BRANCH  20  25
ATOM     25  O   UNL     1      32.647 -22.042 -18.764  0.00  0.00    -0.503 OA
ATOM     26  H   UNL     1      32.558 -22.973 -18.701  0.00  0.00    +0.292 HD
ENDBRANCH  20  25
ENDBRANCH  16  17
ENDBRANCH   1  16
TORSDOF 9
ENDMDL
MODEL 6
REMARK VINA RESULT:      -8.7      3.011      9.363
REMARK  Name = 100154
REMARK  9 active torsions:
REMARK  status: ('A' for Active; 'I' for Inactive)
REMARK    1  A    between atoms: C_1  and  C_2
REMARK    2  A    between atoms: C_1  and  O_14
REMARK    3  A    between atoms: C_1  and  C_16
REMARK    4  A    between atoms: C_5  and  O_8
REMARK    5  A    between atoms: C_6  and  O_10
REMARK    6  A    between atoms: C_7  and  O_12
REMARK    7  A    between atoms: C_16  and  C_17
REMARK    8  A    between atoms: C_20  and  O_25
REMARK    9  A    between atoms: C_22  and  O_23
REMARK                            x       y       z     vdW  Elec       q    Type
REMARK                         _______ _______ _______ _____ _____    ______ ____
ROOT
ATOM      1  C   UNL     1      34.773 -18.963 -22.576  0.00  0.00    +0.137 C 
ENDROOT
BRANCH   1   2
ATOM      2  C   UNL     1      34.540 -17.488 -22.815  0.00  0.00    +0.011 C 
ATOM      3  C   UNL     1      34.461 -17.017 -24.115  0.00  0.00    +0.038 C 
ATOM      4  C   UNL     1      34.410 -16.639 -21.729  0.00  0.00    +0.038 C 
ATOM      5  C   UNL     1      34.196 -15.278 -21.949  0.00  0.00    +0.175 C 
ATOM      6  C   UNL     1      34.247 -15.657 -24.335  0.00  0.00    +0.175 C 
ATOM      7  C   UNL     1      34.114 -14.787 -23.253  0.00  0.00    +0.206 C 
BRANCH   5   8
ATOM      8  O   UNL     1      34.067 -14.440 -20.884  0.00  0.00    -0.468 OA
ATOM      9  C   UNL     1      32.828 -14.478 -20.176  0.00  0.00    +0.253 C 
ENDBRANCH   5   8
BRANCH   6  10
ATOM     10  O   UNL     1      34.166 -15.191 -25.612  0.00  0.00    -0.468 OA
ATOM     11  C   UNL     1      32.924 -15.373 -26.291  0.00  0.00    +0.253 C 
ENDBRANCH   6  10
BRANCH   7  12
ATOM     12  O   UNL     1      33.902 -13.458 -23.468  0.00  0.00    -0.465 OA
ATOM     13  C   UNL     1      32.550 -13.007 -23.443  0.00  0.00    +0.253 C 
ENDBRANCH   7  12
ENDBRANCH   1   2
BRANCH   1  14
ATOM     14  O   UNL     1      35.059 -19.582 -23.831  0.00  0.00    -0.380 OA
ATOM     15  H   UNL     1      34.784 -18.995 -24.552  0.00  0.00    +0.211 HD
ENDBRANCH   1  14
BRANCH   1  16
ATOM     16  C   UNL     1      35.928 -19.242 -21.590  0.00  0.00    +0.060 C 
BRANCH  16  17
ATOM     17  C   UNL     1      35.594 -20.238 -20.530  0.00  0.00    -0.016 C 
ATOM     18  C   UNL     1      34.269 -20.622 -20.326  0.00  0.00    +0.036 C 
ATOM     19  C   UNL     1      36.608 -20.783 -19.742  0.00  0.00    -0.001 C 
ATOM     20  C   UNL     1      33.957 -21.552 -19.334  0.00  0.00    +0.167 C 
ATOM     21  C   UNL     1      36.296 -21.714 -18.750  0.00  0.00    +0.040 C 
ATOM     22  C   UNL     1      34.971 -22.098 -18.547  0.00  0.00    +0.172 C 
BRANCH  22  23
ATOM     23  O   UNL     1      34.679 -23.007 -17.576  0.00  0.00    -0.468 OA
ATOM     24  C   UNL     1      35.342 -22.851 -16.322  0.00  0.00    +0.253 C 
ENDBRANCH  22  23
BRANCH  20  25
ATOM     25  O   UNL     1      32.659 -21.921 -19.146  0.00  0.00    -0.503 OA
ATOM     26  H   UNL     1      32.001 -21.268 -19.009  0.00  0.00    +0.292 HD
ENDBRANCH  20  25
ENDBRANCH  16  17
ENDBRANCH   1  16
TORSDOF 9
ENDMDL
MODEL 7
REMARK VINA RESULT:      -8.5      5.804     11.633
REMARK  Name = 100154
REMARK  9 active torsions:
REMARK  status: ('A' for Active; 'I' for Inactive)
REMARK    1  A    between atoms: C_1  and  C_2
REMARK    2  A    between atoms: C_1  and  O_14
REMARK    3  A    between atoms: C_1  and  C_16
REMARK    4  A    between atoms: C_5  and  O_8
REMARK    5  A    between atoms: C_6  and  O_10
REMARK    6  A    between atoms: C_7  and  O_12
REMARK    7  A    between atoms: C_16  and  C_17
REMARK    8  A    between atoms: C_20  and  O_25
REMARK    9  A    between atoms: C_22  and  O_23
REMARK                            x       y       z     vdW  Elec       q    Type
REMARK                         _______ _______ _______ _____ _____    ______ ____
ROOT
ATOM      1  C   UNL     1      32.949 -13.905 -23.393  0.00  0.00    +0.137 C 
ENDROOT
BRANCH   1   2
ATOM      2  C   UNL     1      32.620 -12.502 -22.937  0.00  0.00    +0.011 C 
ATOM      3  C   UNL     1      33.120 -11.424 -23.649  0.00  0.00    +0.038 C 
ATOM      4  C   UNL     1      31.826 -12.323 -21.817  0.00  0.00    +0.038 C 
ATOM      5  C   UNL     1      31.523 -11.028 -21.395  0.00  0.00    +0.175 C 
ATOM      6  C   UNL     1      32.816 -10.129 -23.228  0.00  0.00    +0.175 C 
ATOM      7  C   UNL     1      32.018  -9.931 -22.102  0.00  0.00    +0.206 C 
BRANCH   5   8
ATOM      8  O   UNL     1      30.741 -10.849 -20.295  0.00  0.00    -0.468 OA
ATOM      9  C   UNL     1      31.381 -10.940 -19.023  0.00  0.00    +0.253 C 
ENDBRANCH   5   8
BRANCH   6  10
ATOM     10  O   UNL     1      33.303  -9.067 -23.927  0.00  0.00    -0.468 OA
ATOM     11  C   UNL     1      34.722  -8.943 -24.013  0.00  0.00    +0.253 C 
ENDBRANCH   6  10
BRANCH   7  12
ATOM     12  O   UNL     1      31.719  -8.666 -21.691  0.00  0.00    -0.465 OA
ATOM     13  C   UNL     1      32.664  -8.021 -20.841  0.00  0.00    +0.253 C 
ENDBRANCH   7  12
ENDBRANCH   1   2
BRANCH   1  14
ATOM     14  O   UNL     1      32.680 -13.998 -24.793  0.00  0.00    -0.380 OA
ATOM     15  H   UNL     1      33.028 -14.837 -25.134  0.00  0.00    +0.211 HD
ENDBRANCH   1  14
BRANCH   1  16
ATOM     16  C   UNL     1      34.418 -14.301 -23.124  0.00  0.00    +0.060 C 
BRANCH  16  17
ATOM     17  C   UNL     1      34.600 -15.732 -22.744  0.00  0.00    -0.016 C 
ATOM     18  C   UNL     1      34.641 -16.716 -23.731  0.00  0.00    +0.036 C 
ATOM     19  C   UNL     1      34.728 -16.086 -21.401  0.00  0.00    -0.001 C 
ATOM     20  C   UNL     1      34.811 -18.054 -23.375  0.00  0.00    +0.167 C 
ATOM     21  C   UNL     1      34.898 -17.423 -21.045  0.00  0.00    +0.040 C 
ATOM     22  C   UNL     1      34.940 -18.408 -22.032  0.00  0.00    +0.172 C 
BRANCH  22  23
ATOM     23  O   UNL     1      35.106 -19.711 -21.672  0.00  0.00    -0.468 OA
ATOM     24  C   UNL     1      34.317 -20.188 -20.583  0.00  0.00    +0.253 C 
ENDBRANCH  22  23
BRANCH  20  25
ATOM     25  O   UNL     1      34.851 -19.007 -24.348  0.00  0.00    -0.503 OA
ATOM     26  H   UNL     1      34.135 -19.604 -24.450  0.00  0.00    +0.292 HD
ENDBRANCH  20  25
ENDBRANCH  16  17
ENDBRANCH   1  16
TORSDOF 9
ENDMDL
MODEL 8
REMARK VINA RESULT:      -8.5      5.832     11.696
REMARK  Name = 100154
REMARK  9 active torsions:
REMARK  status: ('A' for Active; 'I' for Inactive)
REMARK    1  A    between atoms: C_1  and  C_2
REMARK    2  A    between atoms: C_1  and  O_14
REMARK    3  A    between atoms: C_1  and  C_16
REMARK    4  A    between atoms: C_5  and  O_8
REMARK    5  A    between atoms: C_6  and  O_10
REMARK    6  A    between atoms: C_7  and  O_12
REMARK    7  A    between atoms: C_16  and  C_17
REMARK    8  A    between atoms: C_20  and  O_25
REMARK    9  A    between atoms: C_22  and  O_23
REMARK                            x       y       z     vdW  Elec       q    Type
REMARK                         _______ _______ _______ _____ _____    ______ ____
ROOT
ATOM      1  C   UNL     1      32.956 -13.858 -23.384  0.00  0.00    +0.137 C 
ENDROOT
BRANCH   1   2
ATOM      2  C   UNL     1      32.620 -12.459 -22.921  0.00  0.00    +0.011 C 
ATOM      3  C   UNL     1      31.836 -12.289 -21.792  0.00  0.00    +0.038 C 
ATOM      4  C   UNL     1      33.102 -11.376 -23.637  0.00  0.00    +0.038 C 
ATOM      5  C   UNL     1      32.791 -10.084 -23.210  0.00  0.00    +0.175 C 
ATOM      6  C   UNL     1      31.526 -10.998 -21.365  0.00  0.00    +0.175 C 
ATOM      7  C   UNL     1      32.003  -9.896 -22.074  0.00  0.00    +0.206 C 
BRANCH   5   8
ATOM      8  O   UNL     1      33.265  -9.017 -23.910  0.00  0.00    -0.468 OA
ATOM      9  C   UNL     1      34.678  -8.819 -23.913  0.00  0.00    +0.253 C 
ENDBRANCH   5   8
BRANCH   6  10
ATOM     10  O   UNL     1      30.758 -10.827 -20.254  0.00  0.00    -0.468 OA
ATOM     11  C   UNL     1      31.413 -10.940 -18.991  0.00  0.00    +0.253 C 
ENDBRANCH   6  10
BRANCH   7  12
ATOM     12  O   UNL     1      31.702  -8.633 -21.656  0.00  0.00    -0.465 OA
ATOM     13  C   UNL     1      32.639  -7.999 -20.789  0.00  0.00    +0.253 C 
ENDBRANCH   7  12
ENDBRANCH   1   2
BRANCH   1  14
ATOM     14  O   UNL     1      32.685 -13.947 -24.784  0.00  0.00    -0.380 OA
ATOM     15  H   UNL     1      32.589 -13.054 -25.152  0.00  0.00    +0.211 HD
ENDBRANCH   1  14
BRANCH   1  16
ATOM     16  C   UNL     1      34.426 -14.248 -23.119  0.00  0.00    +0.060 C 
BRANCH  16  17
ATOM     17  C   UNL     1      34.616 -15.678 -22.736  0.00  0.00    -0.016 C 
ATOM     18  C   UNL     1      34.676 -16.662 -23.721  0.00  0.00    +0.036 C 
ATOM     19  C   UNL     1      34.731 -16.029 -21.391  0.00  0.00    -0.001 C 
ATOM     20  C   UNL     1      34.852 -17.999 -23.363  0.00  0.00    +0.167 C 
ATOM     21  C   UNL     1      34.907 -17.365 -21.031  0.00  0.00    +0.040 C 
ATOM     22  C   UNL     1      34.968 -18.350 -22.018  0.00  0.00    +0.172 C 
BRANCH  22  23
ATOM     23  O   UNL     1      35.141 -19.651 -21.655  0.00  0.00    -0.468 OA
ATOM     24  C   UNL     1      34.319 -20.143 -20.597  0.00  0.00    +0.253 C 
ENDBRANCH  22  23
BRANCH  20  25
ATOM     25  O   UNL     1      34.912 -18.951 -24.334  0.00  0.00    -0.503 OA
ATOM     26  H   UNL     1      34.888 -18.702 -25.238  0.00  0.00    +0.292 HD
ENDBRANCH  20  25
ENDBRANCH  16  17
ENDBRANCH   1  16
TORSDOF 9
ENDMDL
MODEL 9
REMARK VINA RESULT:      -8.5      6.840     13.223
REMARK  Name = 100154
REMARK  9 active torsions:
REMARK  status: ('A' for Active; 'I' for Inactive)
REMARK    1  A    between atoms: C_1  and  C_2
REMARK    2  A    between atoms: C_1  and  O_14
REMARK    3  A    between atoms: C_1  and  C_16
REMARK    4  A    between atoms: C_5  and  O_8
REMARK    5  A    between atoms: C_6  and  O_10
REMARK    6  A    between atoms: C_7  and  O_12
REMARK    7  A    between atoms: C_16  and  C_17
REMARK    8  A    between atoms: C_20  and  O_25
REMARK    9  A    between atoms: C_22  and  O_23
REMARK                            x       y       z     vdW  Elec       q    Type
REMARK                         _______ _______ _______ _____ _____    ______ ____
ROOT
ATOM      1  C   UNL     1      31.936 -11.853 -22.203  0.00  0.00    +0.137 C 
ENDROOT
BRANCH   1   2
ATOM      2  C   UNL     1      32.668 -10.602 -22.629  0.00  0.00    +0.011 C 
ATOM      3  C   UNL     1      33.674 -10.695 -23.577  0.00  0.00    +0.038 C 
ATOM      4  C   UNL     1      32.319  -9.388 -22.062  0.00  0.00    +0.038 C 
ATOM      5  C   UNL     1      32.996  -8.232 -22.455  0.00  0.00    +0.175 C 
ATOM      6  C   UNL     1      34.349  -9.541 -23.970  0.00  0.00    +0.175 C 
ATOM      7  C   UNL     1      34.011  -8.309 -23.409  0.00  0.00    +0.206 C 
BRANCH   5   8
ATOM      8  O   UNL     1      32.654  -7.036 -21.901  0.00  0.00    -0.468 OA
ATOM      9  C   UNL     1      32.352  -7.030 -20.506  0.00  0.00    +0.253 C 
ENDBRANCH   5   8
BRANCH   6  10
ATOM     10  O   UNL     1      35.336  -9.628 -24.904  0.00  0.00    -0.468 OA
ATOM     11  C   UNL     1      35.201 -10.643 -25.898  0.00  0.00    +0.253 C 
ENDBRANCH   6  10
BRANCH   7  12
ATOM     12  O   UNL     1      34.670  -7.179 -23.795  0.00  0.00    -0.465 OA
ATOM     13  C   UNL     1      34.158  -6.488 -24.931  0.00  0.00    +0.253 C 
ENDBRANCH   7  12
ENDBRANCH   1   2
BRANCH   1  14
ATOM     14  O   UNL     1      30.537 -11.565 -22.161  0.00  0.00    -0.380 OA
ATOM     15  H   UNL     1      30.074 -12.111 -22.816  0.00  0.00    +0.211 HD
ENDBRANCH   1  14
BRANCH   1  16
ATOM     16  C   UNL     1      32.185 -13.053 -23.144  0.00  0.00    +0.060 C 
BRANCH  16  17
ATOM     17  C   UNL     1      32.993 -14.147 -22.532  0.00  0.00    -0.016 C 
ATOM     18  C   UNL     1      34.023 -14.743 -23.258  0.00  0.00    +0.036 C 
ATOM     19  C   UNL     1      32.715 -14.576 -21.234  0.00  0.00    -0.001 C 
ATOM     20  C   UNL     1      34.778 -15.768 -22.686  0.00  0.00    +0.167 C 
ATOM     21  C   UNL     1      33.470 -15.600 -20.661  0.00  0.00    +0.040 C 
ATOM     22  C   UNL     1      34.502 -16.196 -21.388  0.00  0.00    +0.172 C 
BRANCH  22  23
ATOM     23  O   UNL     1      35.231 -17.195 -20.818  0.00  0.00    -0.468 OA
ATOM     24  C   UNL     1      34.813 -18.534 -21.082  0.00  0.00    +0.253 C 
ENDBRANCH  22  23
BRANCH  20  25
ATOM     25  O   UNL     1      35.784 -16.341 -23.404  0.00  0.00    -0.503 OA
ATOM     26  H   UNL     1      35.630 -17.140 -23.870  0.00  0.00    +0.292 HD
ENDBRANCH  20  25
ENDBRANCH  16  17
ENDBRANCH   1  16
TORSDOF 9
ENDMDL
