MODEL 1
REMARK VINA RESULT:      -6.4      0.000      0.000
REMARK  Name = 23167
REMARK  10 active torsions:
REMARK  status: ('A' for Active; 'I' for Inactive)
REMARK    1  A    between atoms: C_1  and  O_2
REMARK    2  A    between atoms: C_1  and  C_9
REMARK    3  A    between atoms: O_2  and  C_4
REMARK    4  A    between atoms: C_4  and  C_5
REMARK    5  A    between atoms: C_5  and  C_8
REMARK    6  A    between atoms: C_9  and  C_10
REMARK    7  A    between atoms: C_10  and  C_11
REMARK    8  A    between atoms: C_11  and  C_12
REMARK    9  A    between atoms: C_12  and  C_13
REMARK   10  A    between atoms: C_13  and  C_14
REMARK                            x       y       z     vdW  Elec       q    Type
REMARK                         _______ _______ _______ _____ _____    ______ ____
ROOT
ATOM      1  C   UNL     1      35.306 -18.728 -23.258  0.00  0.00    +0.209 C 
ENDROOT
BRANCH   1   2
ATOM      2  O   UNL     1      34.425 -19.191 -22.245  0.00  0.00    -0.445 OA
BRANCH   2   4
ATOM      3  O   UNL     1      36.037 -18.973 -20.615  0.00  0.00    -0.244 OA
ATOM      4  C   UNL     1      34.992 -19.455 -21.030  0.00  0.00    +0.351 C 
BRANCH   4   5
ATOM      5  C   UNL     1      34.150 -20.425 -20.276  0.00  0.00    +0.144 C 
ATOM      6  C   UNL     1      32.820 -20.265 -20.324  0.00  0.00    +0.018 C 
BRANCH   5   8
ATOM      7  N   UNL     1      35.176 -22.361 -18.905  0.00  0.00    -0.191 NA
ATOM      8  C   UNL     1      34.716 -21.492 -19.522  0.00  0.00    +0.107 C 
ENDBRANCH   5   8
ENDBRANCH   4   5
ENDBRANCH   2   4
ENDBRANCH   1   2
BRANCH   1   9
ATOM      9  C   UNL     1      34.573 -18.739 -24.592  0.00  0.00    +0.047 C 
BRANCH   9  10
ATOM     10  C   UNL     1      34.523 -17.347 -25.221  0.00  0.00    +0.004 C 
BRANCH  10  11
ATOM     11  C   UNL     1      34.757 -16.257 -24.173  0.00  0.00    +0.000 C 
BRANCH  11  12
ATOM     12  C   UNL     1      33.612 -15.245 -24.081  0.00  0.00    +0.000 C 
BRANCH  12  13
ATOM     13  C   UNL     1      33.224 -14.895 -22.643  0.00  0.00    +0.000 C 
BRANCH  13  14
ATOM     14  C   UNL     1      34.463 -14.707 -21.765  0.00  0.00    +0.000 C 
ATOM     15  C   UNL     1      34.520 -15.742 -20.653  0.00  0.00    +0.000 C 
ENDBRANCH  13  14
ENDBRANCH  12  13
ENDBRANCH  11  12
ENDBRANCH  10  11
ENDBRANCH   9  10
ENDBRANCH   1   9
TORSDOF 10
ENDMDL
MODEL 2
REMARK VINA RESULT:      -6.4      2.969      5.880
REMARK  Name = 23167
REMARK  10 active torsions:
REMARK  status: ('A' for Active; 'I' for Inactive)
REMARK    1  A    between atoms: C_1  and  O_2
REMARK    2  A    between atoms: C_1  and  C_9
REMARK    3  A    between atoms: O_2  and  C_4
REMARK    4  A    between atoms: C_4  and  C_5
REMARK    5  A    between atoms: C_5  and  C_8
REMARK    6  A    between atoms: C_9  and  C_10
REMARK    7  A    between atoms: C_10  and  C_11
REMARK    8  A    between atoms: C_11  and  C_12
REMARK    9  A    between atoms: C_12  and  C_13
REMARK   10  A    between atoms: C_13  and  C_14
REMARK                            x       y       z     vdW  Elec       q    Type
REMARK                         _______ _______ _______ _____ _____    ______ ____
ROOT
ATOM      1  C   UNL     1      34.668 -15.569 -21.522  0.00  0.00    +0.209 C 
ENDROOT
BRANCH   1   2
ATOM      2  O   UNL     1      34.980 -15.487 -22.905  0.00  0.00    -0.445 OA
BRANCH   2   4
ATOM      3  O   UNL     1      33.972 -13.460 -23.325  0.00  0.00    -0.244 OA
ATOM      4  C   UNL     1      34.229 -14.613 -23.640  0.00  0.00    +0.351 C 
BRANCH   4   5
ATOM      5  C   UNL     1      33.762 -15.271 -24.892  0.00  0.00    +0.144 C 
ATOM      6  C   UNL     1      32.923 -14.586 -25.681  0.00  0.00    +0.018 C 
BRANCH   5   8
ATOM      7  N   UNL     1      34.518 -17.653 -25.555  0.00  0.00    -0.191 NA
ATOM      8  C   UNL     1      34.178 -16.583 -25.258  0.00  0.00    +0.107 C 
ENDBRANCH   5   8
ENDBRANCH   4   5
ENDBRANCH   2   4
ENDBRANCH   1   2
BRANCH   1   9
ATOM      9  C   UNL     1      34.965 -16.980 -21.033  0.00  0.00    +0.047 C 
BRANCH   9  10
ATOM     10  C   UNL     1      35.616 -17.830 -22.123  0.00  0.00    +0.004 C 
BRANCH  10  11
ATOM     11  C   UNL     1      34.952 -19.205 -22.225  0.00  0.00    +0.000 C 
BRANCH  11  12
ATOM     12  C   UNL     1      33.797 -19.397 -21.238  0.00  0.00    +0.000 C 
BRANCH  12  13
ATOM     13  C   UNL     1      34.055 -20.497 -20.206  0.00  0.00    +0.000 C 
BRANCH  13  14
ATOM     14  C   UNL     1      35.550 -20.799 -20.083  0.00  0.00    +0.000 C 
ATOM     15  C   UNL     1      35.831 -21.764 -18.942  0.00  0.00    +0.000 C 
ENDBRANCH  13  14
ENDBRANCH  12  13
ENDBRANCH  11  12
ENDBRANCH  10  11
ENDBRANCH   9  10
ENDBRANCH   1   9
TORSDOF 10
ENDMDL
MODEL 3
REMARK VINA RESULT:      -6.4      2.516      5.185
REMARK  Name = 23167
REMARK  10 active torsions:
REMARK  status: ('A' for Active; 'I' for Inactive)
REMARK    1  A    between atoms: C_1  and  O_2
REMARK    2  A    between atoms: C_1  and  C_9
REMARK    3  A    between atoms: O_2  and  C_4
REMARK    4  A    between atoms: C_4  and  C_5
REMARK    5  A    between atoms: C_5  and  C_8
REMARK    6  A    between atoms: C_9  and  C_10
REMARK    7  A    between atoms: C_10  and  C_11
REMARK    8  A    between atoms: C_11  and  C_12
REMARK    9  A    between atoms: C_12  and  C_13
REMARK   10  A    between atoms: C_13  and  C_14
REMARK                            x       y       z     vdW  Elec       q    Type
REMARK                         _______ _______ _______ _____ _____    ______ ____
ROOT
ATOM      1  C   UNL     1      34.636 -16.339 -24.840  0.00  0.00    +0.209 C 
ENDROOT
BRANCH   1   2
ATOM      2  O   UNL     1      34.703 -15.699 -23.575  0.00  0.00    -0.445 OA
BRANCH   2   4
ATOM      3  O   UNL     1      33.008 -14.230 -24.095  0.00  0.00    -0.244 OA
ATOM      4  C   UNL     1      33.677 -14.846 -23.278  0.00  0.00    +0.351 C 
BRANCH   4   5
ATOM      5  C   UNL     1      33.487 -14.772 -21.802  0.00  0.00    +0.144 C 
ATOM      6  C   UNL     1      32.482 -14.014 -21.340  0.00  0.00    +0.018 C 
BRANCH   5   8
ATOM      7  N   UNL     1      35.021 -16.043 -20.156  0.00  0.00    -0.191 NA
ATOM      8  C   UNL     1      34.331 -15.472 -20.894  0.00  0.00    +0.107 C 
ENDBRANCH   5   8
ENDBRANCH   4   5
ENDBRANCH   2   4
ENDBRANCH   1   2
BRANCH   1   9
ATOM      9  C   UNL     1      34.740 -17.844 -24.637  0.00  0.00    +0.047 C 
BRANCH   9  10
ATOM     10  C   UNL     1      35.316 -18.190 -23.265  0.00  0.00    +0.004 C 
BRANCH  10  11
ATOM     11  C   UNL     1      34.647 -19.436 -22.681  0.00  0.00    +0.000 C 
BRANCH  11  12
ATOM     12  C   UNL     1      34.379 -19.334 -21.176  0.00  0.00    +0.000 C 
BRANCH  12  13
ATOM     13  C   UNL     1      33.105 -20.058 -20.735  0.00  0.00    +0.000 C 
BRANCH  13  14
ATOM     14  C   UNL     1      33.418 -21.159 -19.719  0.00  0.00    +0.000 C 
ATOM     15  C   UNL     1      34.917 -21.342 -19.542  0.00  0.00    +0.000 C 
ENDBRANCH  13  14
ENDBRANCH  12  13
ENDBRANCH  11  12
ENDBRANCH  10  11
ENDBRANCH   9  10
ENDBRANCH   1   9
TORSDOF 10
ENDMDL
MODEL 4
REMARK VINA RESULT:      -6.4      5.608      8.202
REMARK  Name = 23167
REMARK  10 active torsions:
REMARK  status: ('A' for Active; 'I' for Inactive)
REMARK    1  A    between atoms: C_1  and  O_2
REMARK    2  A    between atoms: C_1  and  C_9
REMARK    3  A    between atoms: O_2  and  C_4
REMARK    4  A    between atoms: C_4  and  C_5
REMARK    5  A    between atoms: C_5  and  C_8
REMARK    6  A    between atoms: C_9  and  C_10
REMARK    7  A    between atoms: C_10  and  C_11
REMARK    8  A    between atoms: C_11  and  C_12
REMARK    9  A    between atoms: C_12  and  C_13
REMARK   10  A    between atoms: C_13  and  C_14
REMARK                            x       y       z     vdW  Elec       q    Type
REMARK                         _______ _______ _______ _____ _____    ______ ____
ROOT
ATOM      1  C   UNL     1      36.389 -23.096 -15.970  0.00  0.00    +0.209 C 
ENDROOT
BRANCH   1   2
ATOM      2  O   UNL     1      37.013 -23.627 -14.810  0.00  0.00    -0.445 OA
BRANCH   2   4
ATOM      3  O   UNL     1      36.714 -25.820 -15.446  0.00  0.00    -0.244 OA
ATOM      4  C   UNL     1      37.345 -24.952 -14.860  0.00  0.00    +0.351 C 
BRANCH   4   5
ATOM      5  C   UNL     1      38.598 -25.191 -14.091  0.00  0.00    +0.144 C 
ATOM      6  C   UNL     1      38.568 -24.979 -12.768  0.00  0.00    +0.018 C 
BRANCH   5   8
ATOM      7  N   UNL     1      40.776 -25.992 -15.229  0.00  0.00    -0.191 NA
ATOM      8  C   UNL     1      39.799 -25.631 -14.718  0.00  0.00    +0.107 C 
ENDBRANCH   5   8
ENDBRANCH   4   5
ENDBRANCH   2   4
ENDBRANCH   1   2
BRANCH   1   9
ATOM      9  C   UNL     1      37.227 -21.938 -16.494  0.00  0.00    +0.047 C 
BRANCH   9  10
ATOM     10  C   UNL     1      36.815 -21.538 -17.910  0.00  0.00    +0.004 C 
BRANCH  10  11
ATOM     11  C   UNL     1      35.453 -22.130 -18.279  0.00  0.00    +0.000 C 
BRANCH  11  12
ATOM     12  C   UNL     1      34.863 -21.545 -19.566  0.00  0.00    +0.000 C 
BRANCH  12  13
ATOM     13  C   UNL     1      33.359 -21.277 -19.478  0.00  0.00    +0.000 C 
BRANCH  13  14
ATOM     14  C   UNL     1      32.930 -20.201 -20.479  0.00  0.00    +0.000 C 
ATOM     15  C   UNL     1      34.121 -19.396 -20.975  0.00  0.00    +0.000 C 
ENDBRANCH  13  14
ENDBRANCH  12  13
ENDBRANCH  11  12
ENDBRANCH  10  11
ENDBRANCH   9  10
ENDBRANCH   1   9
TORSDOF 10
ENDMDL
MODEL 5
REMARK VINA RESULT:      -6.3      3.278      6.564
REMARK  Name = 23167
REMARK  10 active torsions:
REMARK  status: ('A' for Active; 'I' for Inactive)
REMARK    1  A    between atoms: C_1  and  O_2
REMARK    2  A    between atoms: C_1  and  C_9
REMARK    3  A    between atoms: O_2  and  C_4
REMARK    4  A    between atoms: C_4  and  C_5
REMARK    5  A    between atoms: C_5  and  C_8
REMARK    6  A    between atoms: C_9  and  C_10
REMARK    7  A    between atoms: C_10  and  C_11
REMARK    8  A    between atoms: C_11  and  C_12
REMARK    9  A    between atoms: C_12  and  C_13
REMARK   10  A    between atoms: C_13  and  C_14
REMARK                            x       y       z     vdW  Elec       q    Type
REMARK                         _______ _______ _______ _____ _____    ______ ____
ROOT
ATOM      1  C   UNL     1      34.565 -17.515 -21.419  0.00  0.00    +0.209 C 
ENDROOT
BRANCH   1   2
ATOM      2  O   UNL     1      35.373 -17.287 -22.564  0.00  0.00    -0.445 OA
BRANCH   2   4
ATOM      3  O   UNL     1      35.012 -15.089 -23.150  0.00  0.00    -0.244 OA
ATOM      4  C   UNL     1      34.962 -16.286 -23.399  0.00  0.00    +0.351 C 
BRANCH   4   5
ATOM      5  C   UNL     1      34.439 -16.863 -24.668  0.00  0.00    +0.144 C 
ATOM      6  C   UNL     1      34.559 -18.186 -24.847  0.00  0.00    +0.018 C 
BRANCH   5   8
ATOM      7  N   UNL     1      33.334 -15.399 -26.490  0.00  0.00    -0.191 NA
ATOM      8  C   UNL     1      33.830 -16.058 -25.673  0.00  0.00    +0.107 C 
ENDBRANCH   5   8
ENDBRANCH   4   5
ENDBRANCH   2   4
ENDBRANCH   1   2
BRANCH   1   9
ATOM      9  C   UNL     1      34.449 -19.015 -21.189  0.00  0.00    +0.047 C 
BRANCH   9  10
ATOM     10  C   UNL     1      33.005 -19.433 -20.908  0.00  0.00    +0.004 C 
BRANCH  10  11
ATOM     11  C   UNL     1      32.951 -20.641 -19.972  0.00  0.00    +0.000 C 
BRANCH  11  12
ATOM     12  C   UNL     1      34.328 -21.232 -19.659  0.00  0.00    +0.000 C 
BRANCH  12  13
ATOM     13  C   UNL     1      34.271 -22.677 -19.156  0.00  0.00    +0.000 C 
BRANCH  13  14
ATOM     14  C   UNL     1      33.259 -22.825 -18.017  0.00  0.00    +0.000 C 
ATOM     15  C   UNL     1      33.934 -23.267 -16.728  0.00  0.00    +0.000 C 
ENDBRANCH  13  14
ENDBRANCH  12  13
ENDBRANCH  11  12
ENDBRANCH  10  11
ENDBRANCH   9  10
ENDBRANCH   1   9
TORSDOF 10
ENDMDL
MODEL 6
REMARK VINA RESULT:      -6.3      3.576      6.256
REMARK  Name = 23167
REMARK  10 active torsions:
REMARK  status: ('A' for Active; 'I' for Inactive)
REMARK    1  A    between atoms: C_1  and  O_2
REMARK    2  A    between atoms: C_1  and  C_9
REMARK    3  A    between atoms: O_2  and  C_4
REMARK    4  A    between atoms: C_4  and  C_5
REMARK    5  A    between atoms: C_5  and  C_8
REMARK    6  A    between atoms: C_9  and  C_10
REMARK    7  A    between atoms: C_10  and  C_11
REMARK    8  A    between atoms: C_11  and  C_12
REMARK    9  A    between atoms: C_12  and  C_13
REMARK   10  A    between atoms: C_13  and  C_14
REMARK                            x       y       z     vdW  Elec       q    Type
REMARK                         _______ _______ _______ _____ _____    ______ ____
ROOT
ATOM      1  C   UNL     1      34.562 -18.060 -25.080  0.00  0.00    +0.209 C 
ENDROOT
BRANCH   1   2
ATOM      2  O   UNL     1      34.840 -16.722 -24.692  0.00  0.00    -0.445 OA
BRANCH   2   4
ATOM      3  O   UNL     1      33.528 -15.733 -26.305  0.00  0.00    -0.244 OA
ATOM      4  C   UNL     1      33.988 -15.768 -25.172  0.00  0.00    +0.351 C 
BRANCH   4   5
ATOM      5  C   UNL     1      33.698 -14.764 -24.111  0.00  0.00    +0.144 C 
ATOM      6  C   UNL     1      33.453 -15.217 -22.874  0.00  0.00    +0.018 C 
BRANCH   5   8
ATOM      7  N   UNL     1      33.659 -12.225 -24.597  0.00  0.00    -0.191 NA
ATOM      8  C   UNL     1      33.675 -13.365 -24.378  0.00  0.00    +0.107 C 
ENDBRANCH   5   8
ENDBRANCH   4   5
ENDBRANCH   2   4
ENDBRANCH   1   2
BRANCH   1   9
ATOM      9  C   UNL     1      34.751 -18.972 -23.876  0.00  0.00    +0.047 C 
BRANCH   9  10
ATOM     10  C   UNL     1      35.710 -18.365 -22.853  0.00  0.00    +0.004 C 
BRANCH  10  11
ATOM     11  C   UNL     1      35.073 -18.305 -21.463  0.00  0.00    +0.000 C 
BRANCH  11  12
ATOM     12  C   UNL     1      34.513 -19.651 -20.992  0.00  0.00    +0.000 C 
BRANCH  12  13
ATOM     13  C   UNL     1      35.568 -20.557 -20.352  0.00  0.00    +0.000 C 
BRANCH  13  14
ATOM     14  C   UNL     1      34.915 -21.655 -19.509  0.00  0.00    +0.000 C 
ATOM     15  C   UNL     1      33.405 -21.484 -19.446  0.00  0.00    +0.000 C 
ENDBRANCH  13  14
ENDBRANCH  12  13
ENDBRANCH  11  12
ENDBRANCH  10  11
ENDBRANCH   9  10
ENDBRANCH   1   9
TORSDOF 10
ENDMDL
MODEL 7
REMARK VINA RESULT:      -6.3      1.311      2.343
REMARK  Name = 23167
REMARK  10 active torsions:
REMARK  status: ('A' for Active; 'I' for Inactive)
REMARK    1  A    between atoms: C_1  and  O_2
REMARK    2  A    between atoms: C_1  and  C_9
REMARK    3  A    between atoms: O_2  and  C_4
REMARK    4  A    between atoms: C_4  and  C_5
REMARK    5  A    between atoms: C_5  and  C_8
REMARK    6  A    between atoms: C_9  and  C_10
REMARK    7  A    between atoms: C_10  and  C_11
REMARK    8  A    between atoms: C_11  and  C_12
REMARK    9  A    between atoms: C_12  and  C_13
REMARK   10  A    between atoms: C_13  and  C_14
REMARK                            x       y       z     vdW  Elec       q    Type
REMARK                         _______ _______ _______ _____ _____    ______ ____
ROOT
ATOM      1  C   UNL     1      35.580 -17.903 -22.517  0.00  0.00    +0.209 C 
ENDROOT
BRANCH   1   2
ATOM      2  O   UNL     1      34.862 -19.037 -22.055  0.00  0.00    -0.445 OA
BRANCH   2   4
ATOM      3  O   UNL     1      36.419 -19.433 -20.405  0.00  0.00    -0.244 OA
ATOM      4  C   UNL     1      35.310 -19.601 -20.893  0.00  0.00    +0.351 C 
BRANCH   4   5
ATOM      5  C   UNL     1      34.247 -20.459 -20.300  0.00  0.00    +0.144 C 
ATOM      6  C   UNL     1      32.971 -20.101 -20.503  0.00  0.00    +0.018 C 
BRANCH   5   8
ATOM      7  N   UNL     1      34.797 -22.574 -18.920  0.00  0.00    -0.191 NA
ATOM      8  C   UNL     1      34.551 -21.624 -19.539  0.00  0.00    +0.107 C 
ENDBRANCH   5   8
ENDBRANCH   4   5
ENDBRANCH   2   4
ENDBRANCH   1   2
BRANCH   1   9
ATOM      9  C   UNL     1      34.716 -16.664 -22.331  0.00  0.00    +0.047 C 
BRANCH   9  10
ATOM     10  C   UNL     1      34.689 -16.207 -20.873  0.00  0.00    +0.004 C 
BRANCH  10  11
ATOM     11  C   UNL     1      33.966 -14.867 -20.725  0.00  0.00    +0.000 C 
BRANCH  11  12
ATOM     12  C   UNL     1      32.640 -14.803 -21.490  0.00  0.00    +0.000 C 
BRANCH  12  13
ATOM     13  C   UNL     1      32.402 -13.460 -22.184  0.00  0.00    +0.000 C 
BRANCH  13  14
ATOM     14  C   UNL     1      33.424 -13.225 -23.298  0.00  0.00    +0.000 C 
ATOM     15  C   UNL     1      33.144 -14.108 -24.505  0.00  0.00    +0.000 C 
ENDBRANCH  13  14
ENDBRANCH  12  13
ENDBRANCH  11  12
ENDBRANCH  10  11
ENDBRANCH   9  10
ENDBRANCH   1   9
TORSDOF 10
ENDMDL
MODEL 8
REMARK VINA RESULT:      -6.3      3.690      5.162
REMARK  Name = 23167
REMARK  10 active torsions:
REMARK  status: ('A' for Active; 'I' for Inactive)
REMARK    1  A    between atoms: C_1  and  O_2
REMARK    2  A    between atoms: C_1  and  C_9
REMARK    3  A    between atoms: O_2  and  C_4
REMARK    4  A    between atoms: C_4  and  C_5
REMARK    5  A    between atoms: C_5  and  C_8
REMARK    6  A    between atoms: C_9  and  C_10
REMARK    7  A    between atoms: C_10  and  C_11
REMARK    8  A    between atoms: C_11  and  C_12
REMARK    9  A    between atoms: C_12  and  C_13
REMARK   10  A    between atoms: C_13  and  C_14
REMARK                            x       y       z     vdW  Elec       q    Type
REMARK                         _______ _______ _______ _____ _____    ______ ____
ROOT
ATOM      1  C   UNL     1      33.757 -22.643 -19.320  0.00  0.00    +0.209 C 
ENDROOT
BRANCH   1   2
ATOM      2  O   UNL     1      32.774 -22.594 -18.297  0.00  0.00    -0.445 OA
BRANCH   2   4
ATOM      3  O   UNL     1      34.160 -23.767 -16.882  0.00  0.00    -0.244 OA
ATOM      4  C   UNL     1      33.096 -23.215 -17.123  0.00  0.00    +0.351 C 
BRANCH   4   5
ATOM      5  C   UNL     1      31.956 -23.125 -16.170  0.00  0.00    +0.144 C 
ATOM      6  C   UNL     1      32.209 -23.344 -14.872  0.00  0.00    +0.018 C 
BRANCH   5   8
ATOM      7  N   UNL     1      29.555 -22.569 -16.951  0.00  0.00    -0.191 NA
ATOM      8  C   UNL     1      30.633 -22.818 -16.599  0.00  0.00    +0.107 C 
ENDBRANCH   5   8
ENDBRANCH   4   5
ENDBRANCH   2   4
ENDBRANCH   1   2
BRANCH   1   9
ATOM      9  C   UNL     1      34.145 -21.221 -19.700  0.00  0.00    +0.047 C 
BRANCH   9  10
ATOM     10  C   UNL     1      32.971 -20.462 -20.318  0.00  0.00    +0.004 C 
BRANCH  10  11
ATOM     11  C   UNL     1      33.441 -19.178 -21.004  0.00  0.00    +0.000 C 
BRANCH  11  12
ATOM     12  C   UNL     1      34.865 -19.270 -21.559  0.00  0.00    +0.000 C 
BRANCH  12  13
ATOM     13  C   UNL     1      35.475 -17.908 -21.899  0.00  0.00    +0.000 C 
BRANCH  13  14
ATOM     14  C   UNL     1      34.946 -16.817 -20.966  0.00  0.00    +0.000 C 
ATOM     15  C   UNL     1      34.545 -15.570 -21.739  0.00  0.00    +0.000 C 
ENDBRANCH  13  14
ENDBRANCH  12  13
ENDBRANCH  11  12
ENDBRANCH  10  11
ENDBRANCH   9  10
ENDBRANCH   1   9
TORSDOF 10
ENDMDL
MODEL 9
REMARK VINA RESULT:      -6.3      3.386      6.205
REMARK  Name = 23167
REMARK  10 active torsions:
REMARK  status: ('A' for Active; 'I' for Inactive)
REMARK    1  A    between atoms: C_1  and  O_2
REMARK    2  A    between atoms: C_1  and  C_9
REMARK    3  A    between atoms: O_2  and  C_4
REMARK    4  A    between atoms: C_4  and  C_5
REMARK    5  A    between atoms: C_5  and  C_8
REMARK    6  A    between atoms: C_9  and  C_10
REMARK    7  A    between atoms: C_10  and  C_11
REMARK    8  A    between atoms: C_11  and  C_12
REMARK    9  A    between atoms: C_12  and  C_13
REMARK   10  A    between atoms: C_13  and  C_14
REMARK                            x       y       z     vdW  Elec       q    Type
REMARK                         _______ _______ _______ _____ _____    ______ ____
ROOT
ATOM      1  C   UNL     1      35.044 -16.401 -22.414  0.00  0.00    +0.209 C 
ENDROOT
BRANCH   1   2
ATOM      2  O   UNL     1      34.891 -15.079 -22.909  0.00  0.00    -0.445 OA
BRANCH   2   4
ATOM      3  O   UNL     1      32.680 -14.784 -22.336  0.00  0.00    -0.244 OA
ATOM      4  C   UNL     1      33.607 -14.664 -23.125  0.00  0.00    +0.351 C 
BRANCH   4   5
ATOM      5  C   UNL     1      33.494 -14.038 -24.472  0.00  0.00    +0.144 C 
ATOM      6  C   UNL     1      33.584 -12.703 -24.549  0.00  0.00    +0.018 C 
BRANCH   5   8
ATOM      7  N   UNL     1      33.133 -15.441 -26.613  0.00  0.00    -0.191 NA
ATOM      8  C   UNL     1      33.296 -14.811 -25.652  0.00  0.00    +0.107 C 
ENDBRANCH   5   8
ENDBRANCH   4   5
ENDBRANCH   2   4
ENDBRANCH   1   2
BRANCH   1   9
ATOM      9  C   UNL     1      34.894 -17.381 -23.569  0.00  0.00    +0.047 C 
BRANCH   9  10
ATOM     10  C   UNL     1      35.247 -18.808 -23.149  0.00  0.00    +0.004 C 
BRANCH  10  11
ATOM     11  C   UNL     1      35.844 -18.839 -21.741  0.00  0.00    +0.000 C 
BRANCH  11  12
ATOM     12  C   UNL     1      35.112 -19.791 -20.791  0.00  0.00    +0.000 C 
BRANCH  12  13
ATOM     13  C   UNL     1      33.588 -19.685 -20.878  0.00  0.00    +0.000 C 
BRANCH  13  14
ATOM     14  C   UNL     1      32.910 -20.664 -19.917  0.00  0.00    +0.000 C 
ATOM     15  C   UNL     1      33.885 -21.717 -19.415  0.00  0.00    +0.000 C 
ENDBRANCH  13  14
ENDBRANCH  12  13
ENDBRANCH  11  12
ENDBRANCH  10  11
ENDBRANCH   9  10
ENDBRANCH   1   9
TORSDOF 10
ENDMDL
