MODEL 1
REMARK VINA RESULT:     -10.4      0.000      0.000
REMARK  Name = 5289514
REMARK  3 active torsions:
REMARK  status: ('A' for Active; 'I' for Inactive)
REMARK    1  A    between atoms: C_4  and  C_22
REMARK    2  A    between atoms: C_7  and  C_12
REMARK    3  A    between atoms: C_13  and  C_16
REMARK                            x       y       z     vdW  Elec       q    Type
REMARK                         _______ _______ _______ _____ _____    ______ ____
ROOT
ATOM      1  N   UNL     1      34.548 -15.882 -22.320  0.00  0.00    -0.276 N 
ATOM      2  N   UNL     1      35.288 -16.904 -20.523  0.00  0.00    -0.133 NA
ATOM      3  N   UNL     1      34.632 -15.758 -20.121  0.00  0.00    -0.129 NA
ATOM      4  C   UNL     1      35.229 -16.963 -21.834  0.00  0.00    +0.147 A 
ATOM      5  C   UNL     1      34.191 -15.150 -21.202  0.00  0.00    +0.170 A 
ATOM      6  C   UNL     1      34.238 -15.517 -23.624  0.00  0.00    +0.081 C 
ATOM      7  C   UNL     1      33.541 -14.381 -23.851  0.00  0.00    +0.028 C 
ATOM      8  C   UNL     1      33.462 -13.951 -21.417  0.00  0.00    +0.039 C 
ATOM      9  C   UNL     1      33.152 -13.583 -22.676  0.00  0.00    +0.003 C 
ENDROOT
BRANCH   7  12
ATOM     10  O   UNL     1      32.751 -14.901 -26.122  0.00  0.00    -0.323 OA
ATOM     11  N   UNL     1      32.962 -12.896 -27.146  0.00  0.00    -0.241 NA
ATOM     12  C   UNL     1      33.240 -14.012 -25.207  0.00  0.00    +0.180 C 
ATOM     13  C   UNL     1      33.365 -12.795 -25.840  0.00  0.00    +0.088 C 
ATOM     14  C   UNL     1      32.612 -14.158 -27.254  0.00  0.00    +0.272 C 
BRANCH  13  16
ATOM     15  F   UNL     1      35.222  -8.078 -23.545  0.00  0.00    -0.204 F 
ATOM     16  C   UNL     1      33.843 -11.583 -25.250  0.00  0.00    +0.016 C 
ATOM     17  C   UNL     1      35.014 -10.986 -25.721  0.00  0.00    +0.004 C 
ATOM     18  C   UNL     1      33.139 -10.989 -24.199  0.00  0.00    +0.004 C 
ATOM     19  C   UNL     1      35.480  -9.804 -25.147  0.00  0.00    +0.030 C 
ATOM     20  C   UNL     1      33.605  -9.806 -23.623  0.00  0.00    +0.030 C 
ATOM     21  C   UNL     1      34.775  -9.214 -24.097  0.00  0.00    +0.140 C 
ENDBRANCH  13  16
ENDBRANCH   7  12
BRANCH   4  22
ATOM     22  C   UNL     1      35.801 -18.019 -22.693  0.00  0.00    +0.059 C 
ATOM     23  C   UNL     1      34.755 -19.067 -23.139  0.00  0.00    +0.008 C 
ATOM     24  C   UNL     1      37.002 -18.744 -22.042  0.00  0.00    +0.008 C 
ENDBRANCH   4  22
TORSDOF 3
ENDMDL
MODEL 2
REMARK VINA RESULT:      -9.9      3.084      6.434
REMARK  Name = 5289514
REMARK  3 active torsions:
REMARK  status: ('A' for Active; 'I' for Inactive)
REMARK    1  A    between atoms: C_4  and  C_22
REMARK    2  A    between atoms: C_7  and  C_12
REMARK    3  A    between atoms: C_13  and  C_16
REMARK                            x       y       z     vdW  Elec       q    Type
REMARK                         _______ _______ _______ _____ _____    ______ ____
ROOT
ATOM      1  N   UNL     1      33.736  -9.732 -23.873  0.00  0.00    -0.276 N 
ATOM      2  N   UNL     1      34.022  -7.893 -22.709  0.00  0.00    -0.133 NA
ATOM      3  N   UNL     1      35.083  -8.013 -23.582  0.00  0.00    -0.129 NA
ATOM      4  C   UNL     1      33.228  -8.924 -22.895  0.00  0.00    +0.147 A 
ATOM      5  C   UNL     1      34.907  -9.118 -24.277  0.00  0.00    +0.170 A 
ATOM      6  C   UNL     1      33.255 -10.922 -24.406  0.00  0.00    +0.081 C 
ATOM      7  C   UNL     1      33.949 -11.545 -25.384  0.00  0.00    +0.028 C 
ATOM      8  C   UNL     1      35.655  -9.756 -25.301  0.00  0.00    +0.039 C 
ATOM      9  C   UNL     1      35.202 -10.910 -25.828  0.00  0.00    +0.003 C 
ENDROOT
BRANCH   7  12
ATOM     10  O   UNL     1      33.135 -12.946 -27.234  0.00  0.00    -0.323 OA
ATOM     11  N   UNL     1      32.700 -14.894 -26.171  0.00  0.00    -0.241 NA
ATOM     12  C   UNL     1      33.444 -12.781 -25.914  0.00  0.00    +0.180 C 
ATOM     13  C   UNL     1      33.175 -13.971 -25.275  0.00  0.00    +0.088 C 
ATOM     14  C   UNL     1      32.699 -14.233 -27.307  0.00  0.00    +0.272 C 
BRANCH  13  16
ATOM     15  F   UNL     1      33.872 -15.019 -19.854  0.00  0.00    -0.204 F 
ATOM     16  C   UNL     1      33.354 -14.240 -23.882  0.00  0.00    +0.016 C 
ATOM     17  C   UNL     1      32.400 -13.814 -22.956  0.00  0.00    +0.004 C 
ATOM     18  C   UNL     1      34.486 -14.932 -23.440  0.00  0.00    +0.004 C 
ATOM     19  C   UNL     1      32.574 -14.076 -21.597  0.00  0.00    +0.030 C 
ATOM     20  C   UNL     1      34.660 -15.194 -22.081  0.00  0.00    +0.030 C 
ATOM     21  C   UNL     1      33.705 -14.766 -21.160  0.00  0.00    +0.140 C 
ENDBRANCH  13  16
ENDBRANCH   7  12
BRANCH   4  22
ATOM     22  C   UNL     1      31.971  -9.205 -22.176  0.00  0.00    +0.059 C 
ATOM     23  C   UNL     1      30.729  -8.597 -22.869  0.00  0.00    +0.008 C 
ATOM     24  C   UNL     1      32.003  -8.749 -20.699  0.00  0.00    +0.008 C 
ENDBRANCH   4  22
TORSDOF 3
ENDMDL
MODEL 3
REMARK VINA RESULT:      -9.8      2.219      3.291
REMARK  Name = 5289514
REMARK  3 active torsions:
REMARK  status: ('A' for Active; 'I' for Inactive)
REMARK    1  A    between atoms: C_4  and  C_22
REMARK    2  A    between atoms: C_7  and  C_12
REMARK    3  A    between atoms: C_13  and  C_16
REMARK                            x       y       z     vdW  Elec       q    Type
REMARK                         _______ _______ _______ _____ _____    ______ ____
ROOT
ATOM      1  N   UNL     1      34.214 -16.557 -23.675  0.00  0.00    -0.276 N 
ATOM      2  N   UNL     1      35.109 -18.486 -24.222  0.00  0.00    -0.133 NA
ATOM      3  N   UNL     1      34.678 -17.873 -25.381  0.00  0.00    -0.129 NA
ATOM      4  C   UNL     1      34.825 -17.689 -23.216  0.00  0.00    +0.147 A 
ATOM      5  C   UNL     1      34.142 -16.717 -25.047  0.00  0.00    +0.170 A 
ATOM      6  C   UNL     1      33.737 -15.444 -22.994  0.00  0.00    +0.081 C 
ATOM      7  C   UNL     1      33.163 -14.433 -23.684  0.00  0.00    +0.028 C 
ATOM      8  C   UNL     1      33.540 -15.670 -25.792  0.00  0.00    +0.039 C 
ATOM      9  C   UNL     1      33.073 -14.584 -25.147  0.00  0.00    +0.003 C 
ENDROOT
BRANCH   7  12
ATOM     10  O   UNL     1      31.815 -13.412 -21.899  0.00  0.00    -0.323 OA
ATOM     11  N   UNL     1      32.213 -11.211 -22.231  0.00  0.00    -0.241 NA
ATOM     12  C   UNL     1      32.664 -13.296 -22.962  0.00  0.00    +0.180 C 
ATOM     13  C   UNL     1      32.900 -11.953 -23.157  0.00  0.00    +0.088 C 
ATOM     14  C   UNL     1      31.593 -12.125 -21.518  0.00  0.00    +0.272 C 
BRANCH  13  16
ATOM     15  F   UNL     1      36.150  -9.730 -27.090  0.00  0.00    -0.204 F 
ATOM     16  C   UNL     1      33.735 -11.381 -24.168  0.00  0.00    +0.016 C 
ATOM     17  C   UNL     1      34.464 -10.219 -23.903  0.00  0.00    +0.004 C 
ATOM     18  C   UNL     1      33.826 -11.983 -25.426  0.00  0.00    +0.004 C 
ATOM     19  C   UNL     1      35.279  -9.662 -24.888  0.00  0.00    +0.030 C 
ATOM     20  C   UNL     1      34.641 -11.425 -26.412  0.00  0.00    +0.030 C 
ATOM     21  C   UNL     1      35.367 -10.265 -26.143  0.00  0.00    +0.140 C 
ENDBRANCH  13  16
ENDBRANCH   7  12
BRANCH   4  22
ATOM     22  C   UNL     1      35.106 -17.943 -21.789  0.00  0.00    +0.059 C 
ATOM     23  C   UNL     1      36.477 -18.619 -21.554  0.00  0.00    +0.008 C 
ATOM     24  C   UNL     1      34.003 -18.774 -21.094  0.00  0.00    +0.008 C 
ENDBRANCH   4  22
TORSDOF 3
ENDMDL
MODEL 4
REMARK VINA RESULT:      -9.6     12.639     15.407
REMARK  Name = 5289514
REMARK  3 active torsions:
REMARK  status: ('A' for Active; 'I' for Inactive)
REMARK    1  A    between atoms: C_4  and  C_22
REMARK    2  A    between atoms: C_7  and  C_12
REMARK    3  A    between atoms: C_13  and  C_16
REMARK                            x       y       z     vdW  Elec       q    Type
REMARK                         _______ _______ _______ _____ _____    ______ ____
ROOT
ATOM      1  N   UNL     1      33.090 -23.476 -15.505  0.00  0.00    -0.276 N 
ATOM      2  N   UNL     1      31.842 -23.131 -17.277  0.00  0.00    -0.133 NA
ATOM      3  N   UNL     1      33.158 -22.926 -17.637  0.00  0.00    -0.129 NA
ATOM      4  C   UNL     1      31.819 -23.457 -16.005  0.00  0.00    +0.147 A 
ATOM      5  C   UNL     1      33.902 -23.134 -16.571  0.00  0.00    +0.170 A 
ATOM      6  C   UNL     1      33.559 -23.761 -14.228  0.00  0.00    +0.081 C 
ATOM      7  C   UNL     1      34.886 -23.713 -13.977  0.00  0.00    +0.028 C 
ATOM      8  C   UNL     1      35.299 -23.074 -16.330  0.00  0.00    +0.039 C 
ATOM      9  C   UNL     1      35.769 -23.347 -15.097  0.00  0.00    +0.003 C 
ENDROOT
BRANCH   7  12
ATOM     10  O   UNL     1      34.626 -23.692 -11.531  0.00  0.00    -0.323 OA
ATOM     11  N   UNL     1      36.557 -24.658 -10.861  0.00  0.00    -0.241 NA
ATOM     12  C   UNL     1      35.351 -23.997 -12.648  0.00  0.00    +0.180 C 
ATOM     13  C   UNL     1      36.525 -24.584 -12.229  0.00  0.00    +0.088 C 
ATOM     14  C   UNL     1      35.413 -24.118 -10.506  0.00  0.00    +0.272 C 
BRANCH  13  16
ATOM     15  F   UNL     1      40.622 -26.432 -15.511  0.00  0.00    -0.204 F 
ATOM     16  C   UNL     1      37.578 -25.059 -13.073  0.00  0.00    +0.016 C 
ATOM     17  C   UNL     1      38.854 -24.496 -12.989  0.00  0.00    +0.004 C 
ATOM     18  C   UNL     1      37.336 -26.089 -13.986  0.00  0.00    +0.004 C 
ATOM     19  C   UNL     1      39.881 -24.958 -13.811  0.00  0.00    +0.030 C 
ATOM     20  C   UNL     1      38.364 -26.552 -14.809  0.00  0.00    +0.030 C 
ATOM     21  C   UNL     1      39.635 -25.987 -14.721  0.00  0.00    +0.140 C 
ENDBRANCH  13  16
ENDBRANCH   7  12
BRANCH   4  22
ATOM     22  C   UNL     1      30.621 -23.764 -15.198  0.00  0.00    +0.059 C 
ATOM     23  C   UNL     1      30.156 -25.232 -15.341  0.00  0.00    +0.008 C 
ATOM     24  C   UNL     1      29.432 -22.822 -15.497  0.00  0.00    +0.008 C 
ENDBRANCH   4  22
TORSDOF 3
ENDMDL
MODEL 5
REMARK VINA RESULT:      -9.4     11.298     14.268
REMARK  Name = 5289514
REMARK  3 active torsions:
REMARK  status: ('A' for Active; 'I' for Inactive)
REMARK    1  A    between atoms: C_4  and  C_22
REMARK    2  A    between atoms: C_7  and  C_12
REMARK    3  A    between atoms: C_13  and  C_16
REMARK                            x       y       z     vdW  Elec       q    Type
REMARK                         _______ _______ _______ _____ _____    ______ ____
ROOT
ATOM      1  N   UNL     1      36.017 -25.059 -13.665  0.00  0.00    -0.276 N 
ATOM      2  N   UNL     1      37.085 -26.032 -12.012  0.00  0.00    -0.133 NA
ATOM      3  N   UNL     1      36.079 -25.258 -11.471  0.00  0.00    -0.129 NA
ATOM      4  C   UNL     1      37.035 -25.902 -13.319  0.00  0.00    +0.147 A 
ATOM      5  C   UNL     1      35.442 -24.677 -12.466  0.00  0.00    +0.170 A 
ATOM      6  C   UNL     1      35.584 -24.623 -14.911  0.00  0.00    +0.081 C 
ATOM      7  C   UNL     1      34.535 -23.775 -14.995  0.00  0.00    +0.028 C 
ATOM      8  C   UNL     1      34.341 -23.784 -12.530  0.00  0.00    +0.039 C 
ATOM      9  C   UNL     1      33.909 -23.353 -13.731  0.00  0.00    +0.003 C 
ENDROOT
BRANCH   7  12
ATOM     10  O   UNL     1      34.977 -22.829 -17.222  0.00  0.00    -0.323 OA
ATOM     11  N   UNL     1      32.900 -22.778 -18.115  0.00  0.00    -0.241 NA
ATOM     12  C   UNL     1      34.109 -23.325 -16.292  0.00  0.00    +0.180 C 
ATOM     13  C   UNL     1      32.848 -23.289 -16.844  0.00  0.00    +0.088 C 
ATOM     14  C   UNL     1      34.179 -22.525 -18.282  0.00  0.00    +0.272 C 
BRANCH  13  16
ATOM     15  F   UNL     1      28.140 -24.951 -14.385  0.00  0.00    -0.204 F 
ATOM     16  C   UNL     1      31.638 -23.716 -16.212  0.00  0.00    +0.016 C 
ATOM     17  C   UNL     1      30.482 -22.938 -16.308  0.00  0.00    +0.004 C 
ATOM     18  C   UNL     1      31.605 -24.916 -15.494  0.00  0.00    +0.004 C 
ATOM     19  C   UNL     1      29.302 -23.354 -15.692  0.00  0.00    +0.030 C 
ATOM     20  C   UNL     1      30.425 -25.332 -14.878  0.00  0.00    +0.030 C 
ATOM     21  C   UNL     1      29.274 -24.551 -14.977  0.00  0.00    +0.140 C 
ENDBRANCH  13  16
ENDBRANCH   7  12
BRANCH   4  22
ATOM     22  C   UNL     1      37.926 -26.550 -14.301  0.00  0.00    +0.059 C 
ATOM     23  C   UNL     1      39.052 -25.616 -14.804  0.00  0.00    +0.008 C 
ATOM     24  C   UNL     1      37.167 -27.131 -15.517  0.00  0.00    +0.008 C 
ENDBRANCH   4  22
TORSDOF 3
ENDMDL
MODEL 6
REMARK VINA RESULT:      -9.4      3.351      6.516
REMARK  Name = 5289514
REMARK  3 active torsions:
REMARK  status: ('A' for Active; 'I' for Inactive)
REMARK    1  A    between atoms: C_4  and  C_22
REMARK    2  A    between atoms: C_7  and  C_12
REMARK    3  A    between atoms: C_13  and  C_16
REMARK                            x       y       z     vdW  Elec       q    Type
REMARK                         _______ _______ _______ _____ _____    ______ ____
ROOT
ATOM      1  N   UNL     1      32.260 -11.461 -22.222  0.00  0.00    -0.276 N 
ATOM      2  N   UNL     1      31.753  -9.911 -20.752  0.00  0.00    -0.133 NA
ATOM      3  N   UNL     1      31.619 -11.140 -20.138  0.00  0.00    -0.129 NA
ATOM      4  C   UNL     1      32.135 -10.120 -21.992  0.00  0.00    +0.147 A 
ATOM      5  C   UNL     1      31.923 -12.065 -21.024  0.00  0.00    +0.170 A 
ATOM      6  C   UNL     1      32.632 -12.154 -23.368  0.00  0.00    +0.081 C 
ATOM      7  C   UNL     1      32.682 -13.504 -23.345  0.00  0.00    +0.028 C 
ATOM      8  C   UNL     1      31.965 -13.483 -20.978  0.00  0.00    +0.039 C 
ATOM      9  C   UNL     1      32.324 -14.169 -22.080  0.00  0.00    +0.003 C 
ENDROOT
BRANCH   7  12
ATOM     10  O   UNL     1      32.720 -13.762 -25.791  0.00  0.00    -0.323 OA
ATOM     11  N   UNL     1      33.892 -15.682 -26.026  0.00  0.00    -0.241 NA
ATOM     12  C   UNL     1      33.056 -14.204 -24.543  0.00  0.00    +0.180 C 
ATOM     13  C   UNL     1      33.768 -15.373 -24.696  0.00  0.00    +0.088 C 
ATOM     14  C   UNL     1      33.256 -14.698 -26.621  0.00  0.00    +0.272 C 
BRANCH  13  16
ATOM     15  F   UNL     1      35.889 -18.486 -20.599  0.00  0.00    -0.204 F 
ATOM     16  C   UNL     1      34.314 -16.173 -23.643  0.00  0.00    +0.016 C 
ATOM     17  C   UNL     1      34.587 -15.603 -22.398  0.00  0.00    +0.004 C 
ATOM     18  C   UNL     1      34.575 -17.530 -23.855  0.00  0.00    +0.004 C 
ATOM     19  C   UNL     1      35.118 -16.383 -21.371  0.00  0.00    +0.030 C 
ATOM     20  C   UNL     1      35.107 -18.310 -22.828  0.00  0.00    +0.030 C 
ATOM     21  C   UNL     1      35.379 -17.736 -21.586  0.00  0.00    +0.140 C 
ENDBRANCH  13  16
ENDBRANCH   7  12
BRANCH   4  22
ATOM     22  C   UNL     1      32.399  -9.089 -23.015  0.00  0.00    +0.059 C 
ATOM     23  C   UNL     1      33.436  -8.036 -22.558  0.00  0.00    +0.008 C 
ATOM     24  C   UNL     1      31.118  -8.367 -23.492  0.00  0.00    +0.008 C 
ENDBRANCH   4  22
TORSDOF 3
ENDMDL
MODEL 7
REMARK VINA RESULT:      -9.2      3.566      6.880
REMARK  Name = 5289514
REMARK  3 active torsions:
REMARK  status: ('A' for Active; 'I' for Inactive)
REMARK    1  A    between atoms: C_4  and  C_22
REMARK    2  A    between atoms: C_7  and  C_12
REMARK    3  A    between atoms: C_13  and  C_16
REMARK                            x       y       z     vdW  Elec       q    Type
REMARK                         _______ _______ _______ _____ _____    ______ ____
ROOT
ATOM      1  N   UNL     1      32.601 -13.257 -21.880  0.00  0.00    -0.276 N 
ATOM      2  N   UNL     1      31.804 -11.679 -20.578  0.00  0.00    -0.133 NA
ATOM      3  N   UNL     1      32.048 -12.790 -19.798  0.00  0.00    -0.129 NA
ATOM      4  C   UNL     1      32.138 -11.973 -21.815  0.00  0.00    +0.147 A 
ATOM      5  C   UNL     1      32.526 -13.733 -20.583  0.00  0.00    +0.170 A 
ATOM      6  C   UNL     1      33.063 -14.001 -22.958  0.00  0.00    +0.081 C 
ATOM      7  C   UNL     1      33.476 -15.274 -22.764  0.00  0.00    +0.028 C 
ATOM      8  C   UNL     1      32.951 -15.068 -20.357  0.00  0.00    +0.039 C 
ATOM      9  C   UNL     1      33.402 -15.803 -21.392  0.00  0.00    +0.003 C 
ENDROOT
BRANCH   7  12
ATOM     10  O   UNL     1      33.833 -15.581 -25.178  0.00  0.00    -0.323 OA
ATOM     11  N   UNL     1      34.812 -17.618 -25.237  0.00  0.00    -0.241 NA
ATOM     12  C   UNL     1      33.938 -16.032 -23.893  0.00  0.00    +0.180 C 
ATOM     13  C   UNL     1      34.534 -17.273 -23.939  0.00  0.00    +0.088 C 
ATOM     14  C   UNL     1      34.376 -16.584 -25.920  0.00  0.00    +0.272 C 
BRANCH  13  16
ATOM     15  F   UNL     1      35.705 -20.517 -19.571  0.00  0.00    -0.204 F 
ATOM     16  C   UNL     1      34.835 -18.107 -22.816  0.00  0.00    +0.016 C 
ATOM     17  C   UNL     1      33.875 -18.994 -22.323  0.00  0.00    +0.004 C 
ATOM     18  C   UNL     1      36.092 -18.038 -22.208  0.00  0.00    +0.004 C 
ATOM     19  C   UNL     1      34.169 -19.806 -21.228  0.00  0.00    +0.030 C 
ATOM     20  C   UNL     1      36.385 -18.852 -21.112  0.00  0.00    +0.030 C 
ATOM     21  C   UNL     1      35.423 -19.735 -20.623  0.00  0.00    +0.140 C 
ENDBRANCH  13  16
ENDBRANCH   7  12
BRANCH   4  22
ATOM     22  C   UNL     1      32.042 -11.081 -22.987  0.00  0.00    +0.059 C 
ATOM     23  C   UNL     1      33.403 -10.849 -23.683  0.00  0.00    +0.008 C 
ATOM     24  C   UNL     1      31.400  -9.714 -22.656  0.00  0.00    +0.008 C 
ENDBRANCH   4  22
TORSDOF 3
ENDMDL
MODEL 8
REMARK VINA RESULT:      -9.1      9.358     13.843
REMARK  Name = 5289514
REMARK  3 active torsions:
REMARK  status: ('A' for Active; 'I' for Inactive)
REMARK    1  A    between atoms: C_4  and  C_22
REMARK    2  A    between atoms: C_7  and  C_12
REMARK    3  A    between atoms: C_13  and  C_16
REMARK                            x       y       z     vdW  Elec       q    Type
REMARK                         _______ _______ _______ _____ _____    ______ ____
ROOT
ATOM      1  N   UNL     1      35.277 -21.904 -18.258  0.00  0.00    -0.276 N 
ATOM      2  N   UNL     1      35.806 -20.970 -20.173  0.00  0.00    -0.133 NA
ATOM      3  N   UNL     1      36.958 -21.081 -19.421  0.00  0.00    -0.129 NA
ATOM      4  C   UNL     1      34.815 -21.465 -19.465  0.00  0.00    +0.147 A 
ATOM      5  C   UNL     1      36.635 -21.642 -18.274  0.00  0.00    +0.170 A 
ATOM      6  C   UNL     1      34.610 -22.494 -17.190  0.00  0.00    +0.081 C 
ATOM      7  C   UNL     1      35.301 -22.848 -16.084  0.00  0.00    +0.028 C 
ATOM      8  C   UNL     1      37.381 -22.002 -17.122  0.00  0.00    +0.039 C 
ATOM      9  C   UNL     1      36.749 -22.575 -16.079  0.00  0.00    +0.003 C 
ENDROOT
BRANCH   7  12
ATOM     10  O   UNL     1      33.262 -23.231 -14.763  0.00  0.00    -0.323 OA
ATOM     11  N   UNL     1      34.023 -24.613 -13.143  0.00  0.00    -0.241 NA
ATOM     12  C   UNL     1      34.593 -23.444 -14.985  0.00  0.00    +0.180 C 
ATOM     13  C   UNL     1      35.047 -24.286 -13.994  0.00  0.00    +0.088 C 
ATOM     14  C   UNL     1      32.998 -23.962 -13.646  0.00  0.00    +0.272 C 
BRANCH  13  16
ATOM     15  F   UNL     1      40.255 -26.160 -13.415  0.00  0.00    -0.204 F 
ATOM     16  C   UNL     1      36.386 -24.768 -13.845  0.00  0.00    +0.016 C 
ATOM     17  C   UNL     1      36.847 -25.819 -14.642  0.00  0.00    +0.004 C 
ATOM     18  C   UNL     1      37.239 -24.190 -12.901  0.00  0.00    +0.004 C 
ATOM     19  C   UNL     1      38.152 -26.288 -14.497  0.00  0.00    +0.030 C 
ATOM     20  C   UNL     1      38.545 -24.660 -12.756  0.00  0.00    +0.030 C 
ATOM     21  C   UNL     1      39.001 -25.709 -13.554  0.00  0.00    +0.140 C 
ENDBRANCH  13  16
ENDBRANCH   7  12
BRANCH   4  22
ATOM     22  C   UNL     1      33.399 -21.549 -19.876  0.00  0.00    +0.059 C 
ATOM     23  C   UNL     1      32.916 -20.295 -20.642  0.00  0.00    +0.008 C 
ATOM     24  C   UNL     1      32.441 -21.823 -18.693  0.00  0.00    +0.008 C 
ENDBRANCH   4  22
TORSDOF 3
ENDMDL
MODEL 9
REMARK VINA RESULT:      -9.0     10.585     13.736
REMARK  Name = 5289514
REMARK  3 active torsions:
REMARK  status: ('A' for Active; 'I' for Inactive)
REMARK    1  A    between atoms: C_4  and  C_22
REMARK    2  A    between atoms: C_7  and  C_12
REMARK    3  A    between atoms: C_13  and  C_16
REMARK                            x       y       z     vdW  Elec       q    Type
REMARK                         _______ _______ _______ _____ _____    ______ ____
ROOT
ATOM      1  N   UNL     1      36.825 -25.166 -13.440  0.00  0.00    -0.276 N 
ATOM      2  N   UNL     1      38.703 -25.781 -12.484  0.00  0.00    -0.133 NA
ATOM      3  N   UNL     1      38.563 -26.503 -13.652  0.00  0.00    -0.129 NA
ATOM      4  C   UNL     1      37.660 -24.990 -12.373  0.00  0.00    +0.147 A 
ATOM      5  C   UNL     1      37.435 -26.130 -14.220  0.00  0.00    +0.170 A 
ATOM      6  C   UNL     1      35.615 -24.559 -13.754  0.00  0.00    +0.081 C 
ATOM      7  C   UNL     1      34.967 -24.909 -14.888  0.00  0.00    +0.028 C 
ATOM      8  C   UNL     1      36.771 -26.515 -15.414  0.00  0.00    +0.039 C 
ATOM      9  C   UNL     1      35.597 -25.937 -15.733  0.00  0.00    +0.003 C 
ENDROOT
BRANCH   7  12
ATOM     10  O   UNL     1      32.569 -24.538 -14.485  0.00  0.00    -0.323 OA
ATOM     11  N   UNL     1      32.066 -23.033 -16.095  0.00  0.00    -0.241 NA
ATOM     12  C   UNL     1      33.710 -24.281 -15.190  0.00  0.00    +0.180 C 
ATOM     13  C   UNL     1      33.394 -23.364 -16.168  0.00  0.00    +0.088 C 
ATOM     14  C   UNL     1      31.633 -23.755 -15.087  0.00  0.00    +0.272 C 
BRANCH  13  16
ATOM     15  F   UNL     1      36.900 -21.230 -19.926  0.00  0.00    -0.204 F 
ATOM     16  C   UNL     1      34.295 -22.816 -17.134  0.00  0.00    +0.016 C 
ATOM     17  C   UNL     1      33.887 -22.646 -18.459  0.00  0.00    +0.004 C 
ATOM     18  C   UNL     1      35.589 -22.446 -16.756  0.00  0.00    +0.004 C 
ATOM     19  C   UNL     1      34.765 -22.112 -19.401  0.00  0.00    +0.030 C 
ATOM     20  C   UNL     1      36.468 -21.911 -17.699  0.00  0.00    +0.030 C 
ATOM     21  C   UNL     1      36.056 -21.744 -19.021  0.00  0.00    +0.140 C 
ENDBRANCH  13  16
ENDBRANCH   7  12
BRANCH   4  22
ATOM     22  C   UNL     1      37.391 -24.040 -11.275  0.00  0.00    +0.059 C 
ATOM     23  C   UNL     1      35.986 -24.217 -10.654  0.00  0.00    +0.008 C 
ATOM     24  C   UNL     1      37.580 -22.563 -11.693  0.00  0.00    +0.008 C 
ENDBRANCH   4  22
TORSDOF 3
ENDMDL
