MODEL 1
REMARK VINA RESULT:      -8.3      0.000      0.000
REMARK  Name = 15459
REMARK  3 active torsions:
REMARK  status: ('A' for Active; 'I' for Inactive)
REMARK    1  A    between atoms: O_1  and  C_2
REMARK    2  A    between atoms: O_1  and  C_10
REMARK    3  A    between atoms: C_10  and  C_14
REMARK                            x       y       z     vdW  Elec       q    Type
REMARK                         _______ _______ _______ _____ _____    ______ ____
ROOT
ATOM      1  O   UNL     1      37.453 -22.809 -15.024  0.00  0.00    -0.472 OA
ENDROOT
BRANCH   1   2
ATOM      2  C   UNL     1      36.568 -22.635 -16.058  0.00  0.00    +0.138 C 
ATOM      3  C   UNL     1      35.264 -23.098 -15.930  0.00  0.00    +0.033 C 
ATOM      4  C   UNL     1      36.987 -21.998 -17.220  0.00  0.00    +0.033 C 
ATOM      5  C   UNL     1      34.365 -22.921 -16.981  0.00  0.00    -0.019 C 
ATOM      6  C   UNL     1      36.087 -21.821 -18.271  0.00  0.00    -0.019 C 
ATOM      7  C   UNL     1      34.776 -22.283 -18.151  0.00  0.00    -0.008 C 
ATOM      8  C   UNL     1      32.962 -23.414 -16.854  0.00  0.00    +0.031 C 
ATOM      9  C   UNL     1      36.526 -21.140 -19.522  0.00  0.00    +0.031 C 
ENDBRANCH   1   2
BRANCH   1  10
ATOM     10  C   UNL     1      37.018 -23.601 -13.932  0.00  0.00    +0.250 C 
BRANCH  10  14
ATOM     11  O   UNL     1      37.910 -25.487 -15.137  0.00  0.00    -0.433 OA
ATOM     12  O   UNL     1      36.781 -27.252 -16.066  0.00  0.00    -0.226 OA
ATOM     13  N   UNL     1      36.696 -26.798 -13.785  0.00  0.00    -0.267 N 
ATOM     14  C   UNL     1      37.896 -24.842 -13.847  0.00  0.00    +0.233 C 
ATOM     15  C   UNL     1      37.351 -25.892 -12.901  0.00  0.00    +0.140 C 
ATOM     16  C   UNL     1      37.088 -26.585 -15.088  0.00  0.00    +0.402 C 
ATOM     17  H   UNL     1      36.050 -27.485 -13.502  0.00  0.00    +0.153 HD
ENDBRANCH  10  14
ENDBRANCH   1  10
TORSDOF 3
ENDMDL
MODEL 2
REMARK VINA RESULT:      -8.3      0.171      2.147
REMARK  Name = 15459
REMARK  3 active torsions:
REMARK  status: ('A' for Active; 'I' for Inactive)
REMARK    1  A    between atoms: O_1  and  C_2
REMARK    2  A    between atoms: O_1  and  C_10
REMARK    3  A    between atoms: C_10  and  C_14
REMARK                            x       y       z     vdW  Elec       q    Type
REMARK                         _______ _______ _______ _____ _____    ______ ____
ROOT
ATOM      1  O   UNL     1      37.585 -22.801 -15.272  0.00  0.00    -0.472 OA
ENDROOT
BRANCH   1   2
ATOM      2  C   UNL     1      36.651 -22.609 -16.260  0.00  0.00    +0.138 C 
ATOM      3  C   UNL     1      37.016 -21.956 -17.431  0.00  0.00    +0.033 C 
ATOM      4  C   UNL     1      35.353 -23.070 -16.076  0.00  0.00    +0.033 C 
ATOM      5  C   UNL     1      36.067 -21.761 -18.434  0.00  0.00    -0.019 C 
ATOM      6  C   UNL     1      34.405 -22.874 -17.080  0.00  0.00    -0.019 C 
ATOM      7  C   UNL     1      34.762 -22.219 -18.259  0.00  0.00    -0.008 C 
ATOM      8  C   UNL     1      36.448 -21.061 -19.695  0.00  0.00    +0.031 C 
ATOM      9  C   UNL     1      33.009 -23.364 -16.892  0.00  0.00    +0.031 C 
ENDBRANCH   1   2
BRANCH   1  10
ATOM     10  C   UNL     1      37.154 -23.479 -14.104  0.00  0.00    +0.250 C 
BRANCH  10  14
ATOM     11  O   UNL     1      37.970 -25.465 -15.196  0.00  0.00    -0.433 OA
ATOM     12  O   UNL     1      36.771 -27.230 -16.034  0.00  0.00    -0.226 OA
ATOM     13  N   UNL     1      36.694 -26.645 -13.782  0.00  0.00    -0.267 N 
ATOM     14  C   UNL     1      37.977 -24.749 -13.944  0.00  0.00    +0.233 C 
ATOM     15  C   UNL     1      37.383 -25.720 -12.945  0.00  0.00    +0.140 C 
ATOM     16  C   UNL     1      37.101 -26.522 -15.092  0.00  0.00    +0.402 C 
ATOM     17  H   UNL     1      36.018 -27.287 -13.467  0.00  0.00    +0.153 HD
ENDBRANCH  10  14
ENDBRANCH   1  10
TORSDOF 3
ENDMDL
MODEL 3
REMARK VINA RESULT:      -8.2      1.767      3.242
REMARK  Name = 15459
REMARK  3 active torsions:
REMARK  status: ('A' for Active; 'I' for Inactive)
REMARK    1  A    between atoms: O_1  and  C_2
REMARK    2  A    between atoms: O_1  and  C_10
REMARK    3  A    between atoms: C_10  and  C_14
REMARK                            x       y       z     vdW  Elec       q    Type
REMARK                         _______ _______ _______ _____ _____    ______ ____
ROOT
ATOM      1  O   UNL     1      35.092 -24.374 -13.843  0.00  0.00    -0.472 OA
ENDROOT
BRANCH   1   2
ATOM      2  C   UNL     1      34.074 -23.971 -14.671  0.00  0.00    +0.138 C 
ATOM      3  C   UNL     1      34.347 -23.674 -16.001  0.00  0.00    +0.033 C 
ATOM      4  C   UNL     1      32.782 -23.866 -14.169  0.00  0.00    +0.033 C 
ATOM      5  C   UNL     1      33.313 -23.264 -16.841  0.00  0.00    -0.019 C 
ATOM      6  C   UNL     1      31.748 -23.456 -15.010  0.00  0.00    -0.019 C 
ATOM      7  C   UNL     1      32.014 -23.155 -16.347  0.00  0.00    -0.008 C 
ATOM      8  C   UNL     1      33.596 -22.943 -18.270  0.00  0.00    +0.031 C 
ATOM      9  C   UNL     1      30.359 -23.339 -14.481  0.00  0.00    +0.031 C 
ENDBRANCH   1   2
BRANCH   1  10
ATOM     10  C   UNL     1      36.343 -23.726 -14.000  0.00  0.00    +0.250 C 
BRANCH  10  14
ATOM     11  O   UNL     1      37.470 -25.385 -15.335  0.00  0.00    -0.433 OA
ATOM     12  O   UNL     1      36.617 -27.312 -16.239  0.00  0.00    -0.226 OA
ATOM     13  N   UNL     1      36.633 -26.929 -13.943  0.00  0.00    -0.267 N 
ATOM     14  C   UNL     1      37.439 -24.781 -14.026  0.00  0.00    +0.233 C 
ATOM     15  C   UNL     1      37.177 -25.934 -13.079  0.00  0.00    +0.140 C 
ATOM     16  C   UNL     1      36.872 -26.619 -15.263  0.00  0.00    +0.402 C 
ATOM     17  H   UNL     1      36.150 -27.731 -13.637  0.00  0.00    +0.153 HD
ENDBRANCH  10  14
ENDBRANCH   1  10
TORSDOF 3
ENDMDL
MODEL 4
REMARK VINA RESULT:      -8.2      1.764      2.520
REMARK  Name = 15459
REMARK  3 active torsions:
REMARK  status: ('A' for Active; 'I' for Inactive)
REMARK    1  A    between atoms: O_1  and  C_2
REMARK    2  A    between atoms: O_1  and  C_10
REMARK    3  A    between atoms: C_10  and  C_14
REMARK                            x       y       z     vdW  Elec       q    Type
REMARK                         _______ _______ _______ _____ _____    ______ ____
ROOT
ATOM      1  O   UNL     1      35.100 -24.365 -13.838  0.00  0.00    -0.472 OA
ENDROOT
BRANCH   1   2
ATOM      2  C   UNL     1      34.081 -23.965 -14.667  0.00  0.00    +0.138 C 
ATOM      3  C   UNL     1      32.790 -23.858 -14.165  0.00  0.00    +0.033 C 
ATOM      4  C   UNL     1      34.355 -23.672 -15.997  0.00  0.00    +0.033 C 
ATOM      5  C   UNL     1      31.756 -23.453 -15.007  0.00  0.00    -0.019 C 
ATOM      6  C   UNL     1      33.320 -23.265 -16.839  0.00  0.00    -0.019 C 
ATOM      7  C   UNL     1      32.020 -23.156 -16.344  0.00  0.00    -0.008 C 
ATOM      8  C   UNL     1      30.366 -23.335 -14.478  0.00  0.00    +0.031 C 
ATOM      9  C   UNL     1      33.602 -22.949 -18.269  0.00  0.00    +0.031 C 
ENDBRANCH   1   2
BRANCH   1  10
ATOM     10  C   UNL     1      36.352 -23.722 -14.003  0.00  0.00    +0.250 C 
BRANCH  10  14
ATOM     11  O   UNL     1      37.481 -25.386 -15.330  0.00  0.00    -0.433 OA
ATOM     12  O   UNL     1      36.627 -27.312 -16.235  0.00  0.00    -0.226 OA
ATOM     13  N   UNL     1      36.633 -26.925 -13.940  0.00  0.00    -0.267 N 
ATOM     14  C   UNL     1      37.446 -24.780 -14.022  0.00  0.00    +0.233 C 
ATOM     15  C   UNL     1      37.176 -25.931 -13.075  0.00  0.00    +0.140 C 
ATOM     16  C   UNL     1      36.879 -26.618 -15.260  0.00  0.00    +0.402 C 
ATOM     17  H   UNL     1      36.147 -27.725 -13.635  0.00  0.00    +0.153 HD
ENDBRANCH  10  14
ENDBRANCH   1  10
TORSDOF 3
ENDMDL
MODEL 5
REMARK VINA RESULT:      -8.2      2.377      4.014
REMARK  Name = 15459
REMARK  3 active torsions:
REMARK  status: ('A' for Active; 'I' for Inactive)
REMARK    1  A    between atoms: O_1  and  C_2
REMARK    2  A    between atoms: O_1  and  C_10
REMARK    3  A    between atoms: C_10  and  C_14
REMARK                            x       y       z     vdW  Elec       q    Type
REMARK                         _______ _______ _______ _____ _____    ______ ____
ROOT
ATOM      1  O   UNL     1      34.554 -23.212 -18.236  0.00  0.00    -0.472 OA
ENDROOT
BRANCH   1   2
ATOM      2  C   UNL     1      34.627 -22.094 -19.029  0.00  0.00    +0.138 C 
ATOM      3  C   UNL     1      35.870 -21.567 -19.360  0.00  0.00    +0.033 C 
ATOM      4  C   UNL     1      33.458 -21.503 -19.492  0.00  0.00    +0.033 C 
ATOM      5  C   UNL     1      35.944 -20.432 -20.165  0.00  0.00    -0.019 C 
ATOM      6  C   UNL     1      33.532 -20.367 -20.298  0.00  0.00    -0.019 C 
ATOM      7  C   UNL     1      34.776 -19.832 -20.634  0.00  0.00    -0.008 C 
ATOM      8  C   UNL     1      37.273 -19.859 -20.526  0.00  0.00    +0.031 C 
ATOM      9  C   UNL     1      32.283 -19.725 -20.799  0.00  0.00    +0.031 C 
ENDBRANCH   1   2
BRANCH   1  10
ATOM     10  C   UNL     1      33.712 -23.138 -17.097  0.00  0.00    +0.250 C 
BRANCH  10  14
ATOM     11  O   UNL     1      35.727 -23.920 -16.033  0.00  0.00    -0.433 OA
ATOM     12  O   UNL     1      36.261 -26.051 -15.378  0.00  0.00    -0.226 OA
ATOM     13  N   UNL     1      34.417 -24.922 -14.516  0.00  0.00    -0.267 N 
ATOM     14  C   UNL     1      34.583 -23.062 -15.851  0.00  0.00    +0.233 C 
ATOM     15  C   UNL     1      33.895 -23.600 -14.613  0.00  0.00    +0.140 C 
ATOM     16  C   UNL     1      35.532 -25.071 -15.310  0.00  0.00    +0.402 C 
ATOM     17  H   UNL     1      34.032 -25.635 -13.956  0.00  0.00    +0.153 HD
ENDBRANCH  10  14
ENDBRANCH   1  10
TORSDOF 3
ENDMDL
MODEL 6
REMARK VINA RESULT:      -8.1      2.634      3.459
REMARK  Name = 15459
REMARK  3 active torsions:
REMARK  status: ('A' for Active; 'I' for Inactive)
REMARK    1  A    between atoms: O_1  and  C_2
REMARK    2  A    between atoms: O_1  and  C_10
REMARK    3  A    between atoms: C_10  and  C_14
REMARK                            x       y       z     vdW  Elec       q    Type
REMARK                         _______ _______ _______ _____ _____    ______ ____
ROOT
ATOM      1  O   UNL     1      35.353 -23.597 -14.213  0.00  0.00    -0.472 OA
ENDROOT
BRANCH   1   2
ATOM      2  C   UNL     1      34.299 -23.416 -15.074  0.00  0.00    +0.138 C 
ATOM      3  C   UNL     1      32.999 -23.456 -14.585  0.00  0.00    +0.033 C 
ATOM      4  C   UNL     1      34.546 -23.193 -16.423  0.00  0.00    +0.033 C 
ATOM      5  C   UNL     1      31.929 -23.273 -15.460  0.00  0.00    -0.019 C 
ATOM      6  C   UNL     1      33.475 -23.008 -17.298  0.00  0.00    -0.019 C 
ATOM      7  C   UNL     1      32.166 -23.049 -16.816  0.00  0.00    -0.008 C 
ATOM      8  C   UNL     1      30.529 -23.315 -14.945  0.00  0.00    +0.031 C 
ATOM      9  C   UNL     1      33.729 -22.769 -18.747  0.00  0.00    +0.031 C 
ENDBRANCH   1   2
BRANCH   1  10
ATOM     10  C   UNL     1      35.790 -24.929 -14.005  0.00  0.00    +0.250 C 
BRANCH  10  14
ATOM     11  O   UNL     1      36.249 -25.451 -11.698  0.00  0.00    -0.433 OA
ATOM     12  O   UNL     1      35.346 -24.509  -9.814  0.00  0.00    -0.226 OA
ATOM     13  N   UNL     1      36.546 -23.255 -11.364  0.00  0.00    -0.267 N 
ATOM     14  C   UNL     1      36.842 -24.931 -12.905  0.00  0.00    +0.233 C 
ATOM     15  C   UNL     1      37.314 -23.541 -12.531  0.00  0.00    +0.140 C 
ATOM     16  C   UNL     1      35.981 -24.403 -10.854  0.00  0.00    +0.402 C 
ATOM     17  H   UNL     1      36.435 -22.358 -10.975  0.00  0.00    +0.153 HD
ENDBRANCH  10  14
ENDBRANCH   1  10
TORSDOF 3
ENDMDL
MODEL 7
REMARK VINA RESULT:      -8.1      2.627      4.007
REMARK  Name = 15459
REMARK  3 active torsions:
REMARK  status: ('A' for Active; 'I' for Inactive)
REMARK    1  A    between atoms: O_1  and  C_2
REMARK    2  A    between atoms: O_1  and  C_10
REMARK    3  A    between atoms: C_10  and  C_14
REMARK                            x       y       z     vdW  Elec       q    Type
REMARK                         _______ _______ _______ _____ _____    ______ ____
ROOT
ATOM      1  O   UNL     1      35.441 -23.597 -14.236  0.00  0.00    -0.472 OA
ENDROOT
BRANCH   1   2
ATOM      2  C   UNL     1      34.364 -23.430 -15.071  0.00  0.00    +0.138 C 
ATOM      3  C   UNL     1      34.575 -23.202 -16.426  0.00  0.00    +0.033 C 
ATOM      4  C   UNL     1      33.077 -23.491 -14.552  0.00  0.00    +0.033 C 
ATOM      5  C   UNL     1      33.481 -23.032 -17.273  0.00  0.00    -0.019 C 
ATOM      6  C   UNL     1      31.983 -23.321 -15.400  0.00  0.00    -0.019 C 
ATOM      7  C   UNL     1      32.186 -23.091 -16.761  0.00  0.00    -0.008 C 
ATOM      8  C   UNL     1      33.697 -22.787 -18.729  0.00  0.00    +0.031 C 
ATOM      9  C   UNL     1      30.598 -23.383 -14.852  0.00  0.00    +0.031 C 
ENDBRANCH   1   2
BRANCH   1  10
ATOM     10  C   UNL     1      35.884 -24.926 -14.018  0.00  0.00    +0.250 C 
BRANCH  10  14
ATOM     11  O   UNL     1      36.282 -25.455 -11.701  0.00  0.00    -0.433 OA
ATOM     12  O   UNL     1      35.313 -24.534  -9.839  0.00  0.00    -0.226 OA
ATOM     13  N   UNL     1      36.542 -23.258 -11.348  0.00  0.00    -0.267 N 
ATOM     14  C   UNL     1      36.904 -24.921 -12.888  0.00  0.00    +0.233 C 
ATOM     15  C   UNL     1      37.346 -23.527 -12.493  0.00  0.00    +0.140 C 
ATOM     16  C   UNL     1      35.976 -24.414 -10.860  0.00  0.00    +0.402 C 
ATOM     17  H   UNL     1      36.408 -22.364 -10.957  0.00  0.00    +0.153 HD
ENDBRANCH  10  14
ENDBRANCH   1  10
TORSDOF 3
ENDMDL
MODEL 8
REMARK VINA RESULT:      -8.0      2.439      3.996
REMARK  Name = 15459
REMARK  3 active torsions:
REMARK  status: ('A' for Active; 'I' for Inactive)
REMARK    1  A    between atoms: O_1  and  C_2
REMARK    2  A    between atoms: O_1  and  C_10
REMARK    3  A    between atoms: C_10  and  C_14
REMARK                            x       y       z     vdW  Elec       q    Type
REMARK                         _______ _______ _______ _____ _____    ______ ____
ROOT
ATOM      1  O   UNL     1      35.308 -23.981 -13.898  0.00  0.00    -0.472 OA
ENDROOT
BRANCH   1   2
ATOM      2  C   UNL     1      34.238 -23.720 -14.717  0.00  0.00    +0.138 C 
ATOM      3  C   UNL     1      34.451 -23.486 -16.070  0.00  0.00    +0.033 C 
ATOM      4  C   UNL     1      32.956 -23.694 -14.183  0.00  0.00    +0.033 C 
ATOM      5  C   UNL     1      33.364 -23.220 -16.901  0.00  0.00    -0.019 C 
ATOM      6  C   UNL     1      31.868 -23.428 -15.016  0.00  0.00    -0.019 C 
ATOM      7  C   UNL     1      32.073 -23.191 -16.375  0.00  0.00    -0.008 C 
ATOM      8  C   UNL     1      33.582 -22.966 -18.356  0.00  0.00    +0.031 C 
ATOM      9  C   UNL     1      30.488 -23.397 -14.452  0.00  0.00    +0.031 C 
ENDBRANCH   1   2
BRANCH   1  10
ATOM     10  C   UNL     1      35.030 -24.185 -12.523  0.00  0.00    +0.250 C 
BRANCH  10  14
ATOM     11  O   UNL     1      37.032 -24.178 -11.183  0.00  0.00    -0.433 OA
ATOM     12  O   UNL     1      39.049 -23.187 -11.635  0.00  0.00    -0.226 OA
ATOM     13  N   UNL     1      38.142 -24.823 -13.019  0.00  0.00    -0.267 N 
ATOM     14  C   UNL     1      36.139 -25.036 -11.921  0.00  0.00    +0.233 C 
ATOM     15  C   UNL     1      37.016 -25.694 -12.965  0.00  0.00    +0.140 C 
ATOM     16  C   UNL     1      38.168 -23.982 -11.929  0.00  0.00    +0.402 C 
ATOM     17  H   UNL     1      38.813 -24.821 -13.740  0.00  0.00    +0.153 HD
ENDBRANCH  10  14
ENDBRANCH   1  10
TORSDOF 3
ENDMDL
MODEL 9
REMARK VINA RESULT:      -7.9      5.474      7.781
REMARK  Name = 15459
REMARK  3 active torsions:
REMARK  status: ('A' for Active; 'I' for Inactive)
REMARK    1  A    between atoms: O_1  and  C_2
REMARK    2  A    between atoms: O_1  and  C_10
REMARK    3  A    between atoms: C_10  and  C_14
REMARK                            x       y       z     vdW  Elec       q    Type
REMARK                         _______ _______ _______ _____ _____    ______ ____
ROOT
ATOM      1  O   UNL     1      36.141 -19.270 -21.265  0.00  0.00    -0.472 OA
ENDROOT
BRANCH   1   2
ATOM      2  C   UNL     1      35.567 -18.152 -21.817  0.00  0.00    +0.138 C 
ATOM      3  C   UNL     1      35.150 -17.116 -20.991  0.00  0.00    +0.033 C 
ATOM      4  C   UNL     1      35.412 -18.071 -23.196  0.00  0.00    +0.033 C 
ATOM      5  C   UNL     1      34.566 -15.981 -21.553  0.00  0.00    -0.019 C 
ATOM      6  C   UNL     1      34.828 -16.935 -23.757  0.00  0.00    -0.019 C 
ATOM      7  C   UNL     1      34.405 -15.890 -22.935  0.00  0.00    -0.008 C 
ATOM      8  C   UNL     1      34.114 -14.862 -20.675  0.00  0.00    +0.031 C 
ATOM      9  C   UNL     1      34.656 -16.839 -25.235  0.00  0.00    +0.031 C 
ENDBRANCH   1   2
BRANCH   1  10
ATOM     10  C   UNL     1      35.352 -20.447 -21.229  0.00  0.00    +0.250 C 
BRANCH  10  14
ATOM     11  O   UNL     1      35.012 -21.792 -19.259  0.00  0.00    -0.433 OA
ATOM     12  O   UNL     1      33.981 -23.832 -19.084  0.00  0.00    -0.226 OA
ATOM     13  N   UNL     1      32.858 -21.947 -19.859  0.00  0.00    -0.267 N 
ATOM     14  C   UNL     1      34.667 -20.534 -19.872  0.00  0.00    +0.233 C 
ATOM     15  C   UNL     1      33.156 -20.557 -19.970  0.00  0.00    +0.140 C 
ATOM     16  C   UNL     1      33.943 -22.646 -19.379  0.00  0.00    +0.402 C 
ATOM     17  H   UNL     1      31.993 -22.353 -20.094  0.00  0.00    +0.153 HD
ENDBRANCH  10  14
ENDBRANCH   1  10
TORSDOF 3
ENDMDL
