MODEL 1
REMARK VINA RESULT:      -8.4      0.000      0.000
REMARK  Name = 13738
REMARK  6 active torsions:
REMARK  status: ('A' for Active; 'I' for Inactive)
REMARK    1  A    between atoms: C_4  and  C_12
REMARK    2  A    between atoms: C_5  and  C_6
REMARK    3  A    between atoms: C_12  and  C_13
REMARK    4  A    between atoms: C_13  and  N_14
REMARK    5  A    between atoms: N_14  and  C_16
REMARK    6  A    between atoms: N_14  and  C_18
REMARK                            x       y       z     vdW  Elec       q    Type
REMARK                         _______ _______ _______ _____ _____    ______ ____
ROOT
ATOM      1  O   UNL     1      35.312 -17.279 -22.615  0.00  0.00    -0.316 OA
ATOM      2  N   UNL     1      34.547 -19.357 -22.953  0.00  0.00    -0.313 NA
ATOM      3  N   UNL     1      35.374 -17.924 -21.373  0.00  0.00    -0.007 NA
ATOM      4  C   UNL     1      34.818 -18.205 -23.451  0.00  0.00    +0.292 C 
ATOM      5  C   UNL     1      34.907 -19.145 -21.655  0.00  0.00    +0.127 C 
ENDROOT
BRANCH   5   6
ATOM      6  C   UNL     1      34.787 -20.173 -20.662  0.00  0.00    +0.077 C 
ATOM      7  C   UNL     1      33.525 -20.605 -20.252  0.00  0.00    +0.011 C 
ATOM      8  C   UNL     1      35.932 -20.743 -20.104  0.00  0.00    +0.011 C 
ATOM      9  C   UNL     1      33.409 -21.604 -19.286  0.00  0.00    +0.001 C 
ATOM     10  C   UNL     1      35.816 -21.743 -19.138  0.00  0.00    +0.001 C 
ATOM     11  C   UNL     1      34.554 -22.173 -18.729  0.00  0.00    +0.000 C 
ENDBRANCH   5   6
BRANCH   4  12
ATOM     12  C   UNL     1      34.652 -17.749 -24.880  0.00  0.00    +0.080 C 
BRANCH  12  13
ATOM     13  C   UNL     1      34.825 -16.234 -25.006  0.00  0.00    -0.066 C 
BRANCH  13  14
ATOM     14  N   UNL     1      33.539 -15.547 -24.902  0.00  0.00    +0.387 N 
ATOM     15  H   UNL     1      32.871 -16.177 -24.459  0.00  0.00    -0.080 HD
BRANCH  14  16
ATOM     16  C   UNL     1      33.036 -15.199 -26.231  0.00  0.00    -0.077 C 
ATOM     17  C   UNL     1      33.135 -13.704 -26.480  0.00  0.00    -0.025 C 
ENDBRANCH  14  16
BRANCH  14  18
ATOM     18  C   UNL     1      33.665 -14.349 -24.073  0.00  0.00    -0.077 C 
ATOM     19  C   UNL     1      33.045 -14.561 -22.702  0.00  0.00    -0.025 C 
ENDBRANCH  14  18
ENDBRANCH  13  14
ENDBRANCH  12  13
ENDBRANCH   4  12
TORSDOF 6
ENDMDL
MODEL 2
REMARK VINA RESULT:      -8.2      4.954      9.940
REMARK  Name = 13738
REMARK  6 active torsions:
REMARK  status: ('A' for Active; 'I' for Inactive)
REMARK    1  A    between atoms: C_4  and  C_12
REMARK    2  A    between atoms: C_5  and  C_6
REMARK    3  A    between atoms: C_12  and  C_13
REMARK    4  A    between atoms: C_13  and  N_14
REMARK    5  A    between atoms: N_14  and  C_16
REMARK    6  A    between atoms: N_14  and  C_18
REMARK                            x       y       z     vdW  Elec       q    Type
REMARK                         _______ _______ _______ _____ _____    ______ ____
ROOT
ATOM      1  O   UNL     1      35.594 -23.151 -16.974  0.00  0.00    -0.316 OA
ATOM      2  N   UNL     1      36.580 -21.411 -17.983  0.00  0.00    -0.313 NA
ATOM      3  N   UNL     1      34.717 -22.738 -17.985  0.00  0.00    -0.007 NA
ATOM      4  C   UNL     1      36.635 -22.311 -17.068  0.00  0.00    +0.292 C 
ATOM      5  C   UNL     1      35.368 -21.708 -18.535  0.00  0.00    +0.127 C 
ENDROOT
BRANCH   5   6
ATOM      6  C   UNL     1      34.837 -20.957 -19.635  0.00  0.00    +0.077 C 
ATOM      7  C   UNL     1      33.456 -20.868 -19.819  0.00  0.00    +0.011 C 
ATOM      8  C   UNL     1      35.699 -20.314 -20.523  0.00  0.00    +0.011 C 
ATOM      9  C   UNL     1      32.940 -20.138 -20.888  0.00  0.00    +0.001 C 
ATOM     10  C   UNL     1      35.183 -19.583 -21.594  0.00  0.00    +0.001 C 
ATOM     11  C   UNL     1      33.803 -19.496 -21.776  0.00  0.00    +0.000 C 
ENDBRANCH   5   6
BRANCH   4  12
ATOM     12  C   UNL     1      37.740 -22.550 -16.068  0.00  0.00    +0.080 C 
BRANCH  12  13
ATOM     13  C   UNL     1      37.292 -23.505 -14.960  0.00  0.00    -0.066 C 
BRANCH  13  14
ATOM     14  N   UNL     1      37.793 -24.858 -15.197  0.00  0.00    +0.387 N 
ATOM     15  H   UNL     1      38.123 -24.915 -16.160  0.00  0.00    -0.080 HD
BRANCH  14  16
ATOM     16  C   UNL     1      36.723 -25.839 -15.015  0.00  0.00    -0.077 C 
ATOM     17  C   UNL     1      37.103 -26.878 -13.974  0.00  0.00    -0.025 C 
ENDBRANCH  14  16
BRANCH  14  18
ATOM     18  C   UNL     1      38.913 -25.152 -14.305  0.00  0.00    -0.077 C 
ATOM     19  C   UNL     1      40.216 -25.266 -15.078  0.00  0.00    -0.025 C 
ENDBRANCH  14  18
ENDBRANCH  13  14
ENDBRANCH  12  13
ENDBRANCH   4  12
TORSDOF 6
ENDMDL
MODEL 3
REMARK VINA RESULT:      -8.2      1.490      2.463
REMARK  Name = 13738
REMARK  6 active torsions:
REMARK  status: ('A' for Active; 'I' for Inactive)
REMARK    1  A    between atoms: C_4  and  C_12
REMARK    2  A    between atoms: C_5  and  C_6
REMARK    3  A    between atoms: C_12  and  C_13
REMARK    4  A    between atoms: C_13  and  N_14
REMARK    5  A    between atoms: N_14  and  C_16
REMARK    6  A    between atoms: N_14  and  C_18
REMARK                            x       y       z     vdW  Elec       q    Type
REMARK                         _______ _______ _______ _____ _____    ______ ____
ROOT
ATOM      1  O   UNL     1      34.982 -17.948 -24.170  0.00  0.00    -0.316 OA
ATOM      2  N   UNL     1      34.470 -17.516 -22.032  0.00  0.00    -0.313 NA
ATOM      3  N   UNL     1      34.974 -19.185 -23.513  0.00  0.00    -0.007 NA
ATOM      4  C   UNL     1      34.678 -17.057 -23.214  0.00  0.00    +0.292 C 
ATOM      5  C   UNL     1      34.663 -18.847 -22.257  0.00  0.00    +0.127 C 
ENDROOT
BRANCH   5   6
ATOM      6  C   UNL     1      34.539 -19.815 -21.206  0.00  0.00    +0.077 C 
ATOM      7  C   UNL     1      33.279 -20.145 -20.705  0.00  0.00    +0.011 C 
ATOM      8  C   UNL     1      35.678 -20.427 -20.682  0.00  0.00    +0.011 C 
ATOM      9  C   UNL     1      33.159 -21.085 -19.682  0.00  0.00    +0.001 C 
ATOM     10  C   UNL     1      35.558 -21.368 -19.659  0.00  0.00    +0.001 C 
ATOM     11  C   UNL     1      34.298 -21.696 -19.159  0.00  0.00    +0.000 C 
ENDBRANCH   5   6
BRANCH   4  12
ATOM     12  C   UNL     1      34.623 -15.621 -23.675  0.00  0.00    +0.080 C 
BRANCH  12  13
ATOM     13  C   UNL     1      34.613 -14.654 -22.490  0.00  0.00    -0.066 C 
BRANCH  13  14
ATOM     14  N   UNL     1      33.582 -13.630 -22.655  0.00  0.00    +0.387 N 
ATOM     15  H   UNL     1      33.935 -12.752 -22.276  0.00  0.00    -0.080 HD
BRANCH  14  16
ATOM     16  C   UNL     1      32.372 -13.999 -21.922  0.00  0.00    -0.077 C 
ATOM     17  C   UNL     1      32.714 -14.652 -20.594  0.00  0.00    -0.025 C 
ENDBRANCH  14  16
BRANCH  14  18
ATOM     18  C   UNL     1      33.281 -13.433 -24.073  0.00  0.00    -0.077 C 
ATOM     19  C   UNL     1      33.803 -12.094 -24.565  0.00  0.00    -0.025 C 
ENDBRANCH  14  18
ENDBRANCH  13  14
ENDBRANCH  12  13
ENDBRANCH   4  12
TORSDOF 6
ENDMDL
MODEL 4
REMARK VINA RESULT:      -8.1      1.381      2.173
REMARK  Name = 13738
REMARK  6 active torsions:
REMARK  status: ('A' for Active; 'I' for Inactive)
REMARK    1  A    between atoms: C_4  and  C_12
REMARK    2  A    between atoms: C_5  and  C_6
REMARK    3  A    between atoms: C_12  and  C_13
REMARK    4  A    between atoms: C_13  and  N_14
REMARK    5  A    between atoms: N_14  and  C_16
REMARK    6  A    between atoms: N_14  and  C_18
REMARK                            x       y       z     vdW  Elec       q    Type
REMARK                         _______ _______ _______ _____ _____    ______ ____
ROOT
ATOM      1  O   UNL     1      35.213 -16.962 -23.333  0.00  0.00    -0.316 OA
ATOM      2  N   UNL     1      34.322 -17.093 -21.282  0.00  0.00    -0.313 NA
ATOM      3  N   UNL     1      35.290 -18.310 -22.960  0.00  0.00    -0.007 NA
ATOM      4  C   UNL     1      34.636 -16.355 -22.285  0.00  0.00    +0.292 C 
ATOM      5  C   UNL     1      34.745 -18.307 -21.739  0.00  0.00    +0.127 C 
ENDROOT
BRANCH   5   6
ATOM      6  C   UNL     1      34.609 -19.498 -20.952  0.00  0.00    +0.077 C 
ATOM      7  C   UNL     1      33.341 -19.964 -20.602  0.00  0.00    +0.011 C 
ATOM      8  C   UNL     1      35.745 -20.191 -20.533  0.00  0.00    +0.011 C 
ATOM      9  C   UNL     1      33.210 -21.122 -19.836  0.00  0.00    +0.001 C 
ATOM     10  C   UNL     1      35.614 -21.349 -19.766  0.00  0.00    +0.001 C 
ATOM     11  C   UNL     1      34.346 -21.814 -19.417  0.00  0.00    +0.000 C 
ENDBRANCH   5   6
BRANCH   4  12
ATOM     12  C   UNL     1      34.437 -14.867 -22.440  0.00  0.00    +0.080 C 
BRANCH  12  13
ATOM     13  C   UNL     1      33.324 -14.554 -23.441  0.00  0.00    -0.066 C 
BRANCH  13  14
ATOM     14  N   UNL     1      33.782 -13.610 -24.459  0.00  0.00    +0.387 N 
ATOM     15  H   UNL     1      34.781 -13.750 -24.602  0.00  0.00    -0.080 HD
BRANCH  14  16
ATOM     16  C   UNL     1      33.564 -12.234 -24.014  0.00  0.00    -0.077 C 
ATOM     17  C   UNL     1      34.198 -11.241 -24.973  0.00  0.00    -0.025 C 
ENDBRANCH  14  16
BRANCH  14  18
ATOM     18  C   UNL     1      33.094 -13.852 -25.727  0.00  0.00    -0.077 C 
ATOM     19  C   UNL     1      33.122 -15.326 -26.094  0.00  0.00    -0.025 C 
ENDBRANCH  14  18
ENDBRANCH  13  14
ENDBRANCH  12  13
ENDBRANCH   4  12
TORSDOF 6
ENDMDL
MODEL 5
REMARK VINA RESULT:      -8.1      1.434      1.982
REMARK  Name = 13738
REMARK  6 active torsions:
REMARK  status: ('A' for Active; 'I' for Inactive)
REMARK    1  A    between atoms: C_4  and  C_12
REMARK    2  A    between atoms: C_5  and  C_6
REMARK    3  A    between atoms: C_12  and  C_13
REMARK    4  A    between atoms: C_13  and  N_14
REMARK    5  A    between atoms: N_14  and  C_16
REMARK    6  A    between atoms: N_14  and  C_18
REMARK                            x       y       z     vdW  Elec       q    Type
REMARK                         _______ _______ _______ _____ _____    ______ ____
ROOT
ATOM      1  O   UNL     1      34.684 -17.533 -23.853  0.00  0.00    -0.316 OA
ATOM      2  N   UNL     1      34.559 -17.311 -21.627  0.00  0.00    -0.313 NA
ATOM      3  N   UNL     1      34.665 -18.833 -23.332  0.00  0.00    -0.007 NA
ATOM      4  C   UNL     1      34.619 -16.737 -22.775  0.00  0.00    +0.292 C 
ATOM      5  C   UNL     1      34.590 -18.619 -22.014  0.00  0.00    +0.127 C 
ENDROOT
BRANCH   5   6
ATOM      6  C   UNL     1      34.545 -19.688 -21.060  0.00  0.00    +0.077 C 
ATOM      7  C   UNL     1      33.316 -20.166 -20.603  0.00  0.00    +0.011 C 
ATOM      8  C   UNL     1      35.730 -20.252 -20.586  0.00  0.00    +0.011 C 
ATOM      9  C   UNL     1      33.273 -21.205 -19.674  0.00  0.00    +0.001 C 
ATOM     10  C   UNL     1      35.687 -21.292 -19.657  0.00  0.00    +0.001 C 
ATOM     11  C   UNL     1      34.458 -21.768 -19.201  0.00  0.00    +0.000 C 
ENDBRANCH   5   6
BRANCH   4  12
ATOM     12  C   UNL     1      34.624 -15.258 -23.073  0.00  0.00    +0.080 C 
BRANCH  12  13
ATOM     13  C   UNL     1      33.495 -14.877 -24.032  0.00  0.00    -0.066 C 
BRANCH  13  14
ATOM     14  N   UNL     1      32.867 -13.619 -23.633  0.00  0.00    +0.387 N 
ATOM     15  H   UNL     1      32.092 -13.429 -24.267  0.00  0.00    -0.080 HD
BRANCH  14  16
ATOM     16  C   UNL     1      33.824 -12.517 -23.728  0.00  0.00    -0.077 C 
ATOM     17  C   UNL     1      33.828 -11.914 -25.122  0.00  0.00    -0.025 C 
ENDBRANCH  14  16
BRANCH  14  18
ATOM     18  C   UNL     1      32.339 -13.720 -22.273  0.00  0.00    -0.077 C 
ATOM     19  C   UNL     1      31.873 -12.368 -21.762  0.00  0.00    -0.025 C 
ENDBRANCH  14  18
ENDBRANCH  13  14
ENDBRANCH  12  13
ENDBRANCH   4  12
TORSDOF 6
ENDMDL
MODEL 6
REMARK VINA RESULT:      -8.0      4.975      9.272
REMARK  Name = 13738
REMARK  6 active torsions:
REMARK  status: ('A' for Active; 'I' for Inactive)
REMARK    1  A    between atoms: C_4  and  C_12
REMARK    2  A    between atoms: C_5  and  C_6
REMARK    3  A    between atoms: C_12  and  C_13
REMARK    4  A    between atoms: C_13  and  N_14
REMARK    5  A    between atoms: N_14  and  C_16
REMARK    6  A    between atoms: N_14  and  C_18
REMARK                            x       y       z     vdW  Elec       q    Type
REMARK                         _______ _______ _______ _____ _____    ______ ____
ROOT
ATOM      1  O   UNL     1      34.174 -23.510 -17.274  0.00  0.00    -0.316 OA
ATOM      2  N   UNL     1      32.641 -22.226 -18.283  0.00  0.00    -0.313 NA
ATOM      3  N   UNL     1      34.872 -22.723 -18.199  0.00  0.00    -0.007 NA
ATOM      4  C   UNL     1      32.893 -23.136 -17.413  0.00  0.00    +0.292 C 
ATOM      5  C   UNL     1      33.900 -21.992 -18.753  0.00  0.00    +0.127 C 
ENDROOT
BRANCH   5   6
ATOM      6  C   UNL     1      34.153 -21.022 -19.779  0.00  0.00    +0.077 C 
ATOM      7  C   UNL     1      35.462 -20.748 -20.175  0.00  0.00    +0.011 C 
ATOM      8  C   UNL     1      33.089 -20.349 -20.382  0.00  0.00    +0.011 C 
ATOM      9  C   UNL     1      35.708 -19.805 -21.172  0.00  0.00    +0.001 C 
ATOM     10  C   UNL     1      33.335 -19.405 -21.379  0.00  0.00    +0.001 C 
ATOM     11  C   UNL     1      34.644 -19.133 -21.774  0.00  0.00    +0.000 C 
ENDBRANCH   5   6
BRANCH   4  12
ATOM     12  C   UNL     1      31.919 -23.852 -16.509  0.00  0.00    +0.080 C 
BRANCH  12  13
ATOM     13  C   UNL     1      30.701 -22.979 -16.198  0.00  0.00    -0.066 C 
BRANCH  13  14
ATOM     14  N   UNL     1      29.714 -23.716 -15.411  0.00  0.00    +0.387 N 
ATOM     15  H   UNL     1      29.326 -23.087 -14.709  0.00  0.00    -0.080 HD
BRANCH  14  16
ATOM     16  C   UNL     1      30.344 -24.844 -14.727  0.00  0.00    -0.077 C 
ATOM     17  C   UNL     1      30.593 -24.527 -13.262  0.00  0.00    -0.025 C 
ENDBRANCH  14  16
BRANCH  14  18
ATOM     18  C   UNL     1      28.623 -24.182 -16.267  0.00  0.00    -0.077 C 
ATOM     19  C   UNL     1      28.052 -23.045 -17.097  0.00  0.00    -0.025 C 
ENDBRANCH  14  18
ENDBRANCH  13  14
ENDBRANCH  12  13
ENDBRANCH   4  12
TORSDOF 6
ENDMDL
MODEL 7
REMARK VINA RESULT:      -7.9      4.977      8.985
REMARK  Name = 13738
REMARK  6 active torsions:
REMARK  status: ('A' for Active; 'I' for Inactive)
REMARK    1  A    between atoms: C_4  and  C_12
REMARK    2  A    between atoms: C_5  and  C_6
REMARK    3  A    between atoms: C_12  and  C_13
REMARK    4  A    between atoms: C_13  and  N_14
REMARK    5  A    between atoms: N_14  and  C_16
REMARK    6  A    between atoms: N_14  and  C_18
REMARK                            x       y       z     vdW  Elec       q    Type
REMARK                         _______ _______ _______ _____ _____    ______ ____
ROOT
ATOM      1  O   UNL     1      34.151 -23.507 -17.252  0.00  0.00    -0.316 OA
ATOM      2  N   UNL     1      32.618 -22.208 -18.241  0.00  0.00    -0.313 NA
ATOM      3  N   UNL     1      34.843 -22.736 -18.194  0.00  0.00    -0.007 NA
ATOM      4  C   UNL     1      32.873 -23.116 -17.370  0.00  0.00    +0.292 C 
ATOM      5  C   UNL     1      33.871 -21.994 -18.736  0.00  0.00    +0.127 C 
ENDROOT
BRANCH   5   6
ATOM      6  C   UNL     1      34.119 -21.035 -19.772  0.00  0.00    +0.077 C 
ATOM      7  C   UNL     1      33.053 -20.366 -20.376  0.00  0.00    +0.011 C 
ATOM      8  C   UNL     1      35.426 -20.768 -20.179  0.00  0.00    +0.011 C 
ATOM      9  C   UNL     1      33.294 -19.434 -21.384  0.00  0.00    +0.001 C 
ATOM     10  C   UNL     1      35.668 -19.835 -21.188  0.00  0.00    +0.001 C 
ATOM     11  C   UNL     1      34.601 -19.168 -21.790  0.00  0.00    +0.000 C 
ENDBRANCH   5   6
BRANCH   4  12
ATOM     12  C   UNL     1      31.906 -23.812 -16.444  0.00  0.00    +0.080 C 
BRANCH  12  13
ATOM     13  C   UNL     1      30.678 -22.944 -16.164  0.00  0.00    -0.066 C 
BRANCH  13  14
ATOM     14  N   UNL     1      29.443 -23.707 -16.341  0.00  0.00    +0.387 N 
ATOM     15  H   UNL     1      29.636 -24.494 -16.960  0.00  0.00    -0.080 HD
BRANCH  14  16
ATOM     16  C   UNL     1      28.411 -22.873 -16.957  0.00  0.00    -0.077 C 
ATOM     17  C   UNL     1      27.404 -22.397 -15.925  0.00  0.00    -0.025 C 
ENDBRANCH  14  16
BRANCH  14  18
ATOM     18  C   UNL     1      28.978 -24.232 -15.057  0.00  0.00    -0.077 C 
ATOM     19  C   UNL     1      29.576 -25.599 -14.774  0.00  0.00    -0.025 C 
ENDBRANCH  14  18
ENDBRANCH  13  14
ENDBRANCH  12  13
ENDBRANCH   4  12
TORSDOF 6
ENDMDL
MODEL 8
REMARK VINA RESULT:      -7.9      4.004      8.716
REMARK  Name = 13738
REMARK  6 active torsions:
REMARK  status: ('A' for Active; 'I' for Inactive)
REMARK    1  A    between atoms: C_4  and  C_12
REMARK    2  A    between atoms: C_5  and  C_6
REMARK    3  A    between atoms: C_12  and  C_13
REMARK    4  A    between atoms: C_13  and  N_14
REMARK    5  A    between atoms: N_14  and  C_16
REMARK    6  A    between atoms: N_14  and  C_18
REMARK                            x       y       z     vdW  Elec       q    Type
REMARK                         _______ _______ _______ _____ _____    ______ ____
ROOT
ATOM      1  O   UNL     1      33.712 -12.990 -25.759  0.00  0.00    -0.316 OA
ATOM      2  N   UNL     1      33.675 -12.451 -23.585  0.00  0.00    -0.313 NA
ATOM      3  N   UNL     1      33.764 -11.591 -25.703  0.00  0.00    -0.007 NA
ATOM      4  C   UNL     1      33.663 -13.376 -24.475  0.00  0.00    +0.292 C 
ATOM      5  C   UNL     1      33.739 -11.350 -24.388  0.00  0.00    +0.127 C 
ENDROOT
BRANCH   5   6
ATOM      6  C   UNL     1      33.775 -10.023 -23.846  0.00  0.00    +0.077 C 
ATOM      7  C   UNL     1      34.808  -9.152 -24.196  0.00  0.00    +0.011 C 
ATOM      8  C   UNL     1      32.778  -9.601 -22.966  0.00  0.00    +0.011 C 
ATOM      9  C   UNL     1      34.843  -7.862 -23.669  0.00  0.00    +0.001 C 
ATOM     10  C   UNL     1      32.813  -8.310 -22.437  0.00  0.00    +0.001 C 
ATOM     11  C   UNL     1      33.846  -7.441 -22.789  0.00  0.00    +0.000 C 
ENDBRANCH   5   6
BRANCH   4  12
ATOM     12  C   UNL     1      33.600 -14.869 -24.261  0.00  0.00    +0.080 C 
BRANCH  12  13
ATOM     13  C   UNL     1      34.649 -15.333 -23.248  0.00  0.00    -0.066 C 
BRANCH  13  14
ATOM     14  N   UNL     1      35.325 -16.545 -23.709  0.00  0.00    +0.387 N 
ATOM     15  H   UNL     1      36.295 -16.312 -23.920  0.00  0.00    -0.080 HD
BRANCH  14  16
ATOM     16  C   UNL     1      34.694 -17.050 -24.927  0.00  0.00    -0.077 C 
ATOM     17  C   UNL     1      34.470 -18.550 -24.846  0.00  0.00    -0.025 C 
ENDBRANCH  14  16
BRANCH  14  18
ATOM     18  C   UNL     1      35.311 -17.566 -22.663  0.00  0.00    -0.077 C 
ATOM     19  C   UNL     1      35.016 -16.957 -21.303  0.00  0.00    -0.025 C 
ENDBRANCH  14  18
ENDBRANCH  13  14
ENDBRANCH  12  13
ENDBRANCH   4  12
TORSDOF 6
ENDMDL
MODEL 9
REMARK VINA RESULT:      -7.9      3.183      8.154
REMARK  Name = 13738
REMARK  6 active torsions:
REMARK  status: ('A' for Active; 'I' for Inactive)
REMARK    1  A    between atoms: C_4  and  C_12
REMARK    2  A    between atoms: C_5  and  C_6
REMARK    3  A    between atoms: C_12  and  C_13
REMARK    4  A    between atoms: C_13  and  N_14
REMARK    5  A    between atoms: N_14  and  C_16
REMARK    6  A    between atoms: N_14  and  C_18
REMARK                            x       y       z     vdW  Elec       q    Type
REMARK                         _______ _______ _______ _____ _____    ______ ____
ROOT
ATOM      1  O   UNL     1      32.686 -21.129 -19.733  0.00  0.00    -0.316 OA
ATOM      2  N   UNL     1      34.807 -20.620 -20.246  0.00  0.00    -0.313 NA
ATOM      3  N   UNL     1      32.624 -20.051 -20.624  0.00  0.00    -0.007 NA
ATOM      4  C   UNL     1      33.998 -21.371 -19.588  0.00  0.00    +0.292 C 
ATOM      5  C   UNL     1      33.914 -19.808 -20.881  0.00  0.00    +0.127 C 
ENDROOT
BRANCH   5   6
ATOM      6  C   UNL     1      34.342 -18.763 -21.765  0.00  0.00    +0.077 C 
ATOM      7  C   UNL     1      34.435 -17.450 -21.302  0.00  0.00    +0.011 C 
ATOM      8  C   UNL     1      34.665 -19.058 -23.090  0.00  0.00    +0.011 C 
ATOM      9  C   UNL     1      34.851 -16.435 -22.162  0.00  0.00    +0.001 C 
ATOM     10  C   UNL     1      35.081 -18.042 -23.950  0.00  0.00    +0.001 C 
ATOM     11  C   UNL     1      35.173 -16.730 -23.486  0.00  0.00    +0.000 C 
ENDBRANCH   5   6
BRANCH   4  12
ATOM     12  C   UNL     1      34.337 -22.510 -18.659  0.00  0.00    +0.080 C 
BRANCH  12  13
ATOM     13  C   UNL     1      33.140 -22.896 -17.788  0.00  0.00    -0.066 C 
BRANCH  13  14
ATOM     14  N   UNL     1      33.574 -23.573 -16.567  0.00  0.00    +0.387 N 
ATOM     15  H   UNL     1      33.624 -24.574 -16.753  0.00  0.00    -0.080 HD
BRANCH  14  16
ATOM     16  C   UNL     1      32.612 -23.349 -15.488  0.00  0.00    -0.077 C 
ATOM     17  C   UNL     1      31.224 -23.076 -16.041  0.00  0.00    -0.025 C 
ENDBRANCH  14  16
BRANCH  14  18
ATOM     18  C   UNL     1      34.903 -23.109 -16.170  0.00  0.00    -0.077 C 
ATOM     19  C   UNL     1      35.105 -23.235 -14.670  0.00  0.00    -0.025 C 
ENDBRANCH  14  18
ENDBRANCH  13  14
ENDBRANCH  12  13
ENDBRANCH   4  12
TORSDOF 6
ENDMDL
