MODEL 1
REMARK VINA RESULT:     -10.4      0.000      0.000
REMARK  Name = 24872560
REMARK  5 active torsions:
REMARK  status: ('A' for Active; 'I' for Inactive)
REMARK    1  A    between atoms: N_3  and  C_12
REMARK    2  A    between atoms: N_4  and  C_24
REMARK    3  A    between atoms: C_17  and  C_20
REMARK    4  A    between atoms: C_27  and  C_32
REMARK    5  A    between atoms: C_28  and  C_34
REMARK                            x       y       z     vdW  Elec       q    Type
REMARK                         _______ _______ _______ _____ _____    ______ ____
ROOT
ATOM      1  S   UNL     1      33.115 -12.180 -24.908  0.00  0.00    -0.017 S 
ATOM      2  O   UNL     1      32.491 -13.313 -19.985  0.00  0.00    -0.272 OA
ATOM      3  N   UNL     1      32.284 -10.873 -22.594  0.00  0.00    -0.265 N 
ATOM      4  N   UNL     1      33.007 -13.037 -22.261  0.00  0.00    -0.217 N 
ATOM      5  C   UNL     1      31.778 -11.271 -21.240  0.00  0.00    +0.133 C 
ATOM      6  C   UNL     1      31.908 -10.263 -20.073  0.00  0.00    +0.028 C 
ATOM      7  C   UNL     1      30.241 -11.267 -21.035  0.00  0.00    +0.028 C 
ATOM      8  C   UNL     1      30.466 -10.614 -19.659  0.00  0.00    +0.004 C 
ATOM      9  C   UNL     1      32.449 -12.680 -21.036  0.00  0.00    +0.251 C 
ATOM     10  C   UNL     1      32.863 -12.019 -23.248  0.00  0.00    +0.152 C 
ENDROOT
BRANCH   3  12
ATOM     11  F   UNL     1      34.837  -6.977 -23.804  0.00  0.00    -0.204 F 
ATOM     12  C   UNL     1      32.348  -9.525 -23.076  0.00  0.00    +0.055 C 
ATOM     13  C   UNL     1      33.582  -8.889 -23.210  0.00  0.00    +0.045 C 
ATOM     14  C   UNL     1      31.175  -8.849 -23.413  0.00  0.00    +0.015 C 
ATOM     15  C   UNL     1      33.645  -7.578 -23.680  0.00  0.00    +0.146 C 
ATOM     16  C   UNL     1      31.237  -7.537 -23.882  0.00  0.00    +0.008 C 
ATOM     17  C   UNL     1      32.472  -6.901 -24.016  0.00  0.00    +0.081 C 
BRANCH  17  20
ATOM     18  O   UNL     1      33.224  -5.250 -25.501  0.00  0.00    -0.270 OA
ATOM     19  N   UNL     1      31.764  -4.581 -23.829  0.00  0.00    -0.299 N 
ATOM     20  C   UNL     1      32.532  -5.534 -24.508  0.00  0.00    +0.248 C 
ATOM     21  C   UNL     1      31.700  -3.188 -24.210  0.00  0.00    +0.111 C 
ATOM     22  H   UNL     1      31.239  -4.875 -23.049  0.00  0.00    +0.150 HD
ENDBRANCH  17  20
ENDBRANCH   3  12
BRANCH   4  24
ATOM     23  N   UNL     1      35.015 -16.066 -21.492  0.00  0.00    -0.232 NA
ATOM     24  C   UNL     1      33.668 -14.293 -22.435  0.00  0.00    +0.079 C 
ATOM     25  C   UNL     1      33.622 -14.965 -23.652  0.00  0.00    +0.023 C 
ATOM     26  C   UNL     1      34.371 -14.881 -21.396  0.00  0.00    +0.115 C 
ATOM     27  C   UNL     1      34.272 -16.187 -23.789  0.00  0.00    +0.100 C 
ATOM     28  C   UNL     1      34.948 -16.689 -22.690  0.00  0.00    +0.153 C 
BRANCH  27  32
ATOM     29  F   UNL     1      35.414 -16.930 -25.756  0.00  0.00    -0.166 F 
ATOM     30  F   UNL     1      33.853 -18.218 -24.980  0.00  0.00    -0.166 F 
ATOM     31  F   UNL     1      33.328 -16.352 -25.966  0.00  0.00    -0.166 F 
ATOM     32  C   UNL     1      34.219 -16.907 -25.094  0.00  0.00    +0.421 C 
ENDBRANCH  27  32
BRANCH  28  34
ATOM     33  N   UNL     1      36.218 -18.944 -22.766  0.00  0.00    -0.189 NA
ATOM     34  C   UNL     1      35.649 -17.932 -22.732  0.00  0.00    +0.120 C 
ENDBRANCH  28  34
ENDBRANCH   4  24
TORSDOF 5
ENDMDL
MODEL 2
REMARK VINA RESULT:     -10.0      3.258      4.836
REMARK  Name = 24872560
REMARK  5 active torsions:
REMARK  status: ('A' for Active; 'I' for Inactive)
REMARK    1  A    between atoms: N_3  and  C_12
REMARK    2  A    between atoms: N_4  and  C_24
REMARK    3  A    between atoms: C_17  and  C_20
REMARK    4  A    between atoms: C_27  and  C_32
REMARK    5  A    between atoms: C_28  and  C_34
REMARK                            x       y       z     vdW  Elec       q    Type
REMARK                         _______ _______ _______ _____ _____    ______ ____
ROOT
ATOM      1  S   UNL     1      35.009 -14.192 -21.148  0.00  0.00    -0.017 S 
ATOM      2  O   UNL     1      33.653 -17.022 -25.157  0.00  0.00    -0.272 OA
ATOM      3  N   UNL     1      33.726 -13.806 -23.589  0.00  0.00    -0.265 N 
ATOM      4  N   UNL     1      34.262 -16.000 -23.129  0.00  0.00    -0.217 N 
ATOM      5  C   UNL     1      33.627 -14.534 -24.896  0.00  0.00    +0.133 C 
ATOM      6  C   UNL     1      32.415 -14.250 -25.816  0.00  0.00    +0.028 C 
ATOM      7  C   UNL     1      34.567 -14.065 -26.035  0.00  0.00    +0.028 C 
ATOM      8  C   UNL     1      33.384 -14.198 -27.012  0.00  0.00    +0.004 C 
ATOM      9  C   UNL     1      33.847 -16.031 -24.458  0.00  0.00    +0.251 C 
ATOM     10  C   UNL     1      34.282 -14.682 -22.590  0.00  0.00    +0.152 C 
ENDROOT
BRANCH   3  12
ATOM     11  F   UNL     1      30.531 -10.967 -21.376  0.00  0.00    -0.204 F 
ATOM     12  C   UNL     1      33.177 -12.506 -23.338  0.00  0.00    +0.055 C 
ATOM     13  C   UNL     1      32.100 -12.360 -22.464  0.00  0.00    +0.045 C 
ATOM     14  C   UNL     1      33.720 -11.386 -23.968  0.00  0.00    +0.015 C 
ATOM     15  C   UNL     1      31.566 -11.095 -22.218  0.00  0.00    +0.146 C 
ATOM     16  C   UNL     1      33.187 -10.120 -23.723  0.00  0.00    +0.008 C 
ATOM     17  C   UNL     1      32.110  -9.975 -22.848  0.00  0.00    +0.081 C 
BRANCH  17  20
ATOM     18  O   UNL     1      30.618  -8.220 -23.283  0.00  0.00    -0.270 OA
ATOM     19  N   UNL     1      32.116  -7.924 -21.539  0.00  0.00    -0.299 N 
ATOM     20  C   UNL     1      31.558  -8.654 -22.595  0.00  0.00    +0.248 C 
ATOM     21  C   UNL     1      31.661  -6.609 -21.148  0.00  0.00    +0.111 C 
ATOM     22  H   UNL     1      32.859  -8.329 -21.035  0.00  0.00    +0.150 HD
ENDBRANCH  17  20
ENDBRANCH   3  12
BRANCH   4  24
ATOM     23  N   UNL     1      36.275 -18.775 -21.700  0.00  0.00    -0.232 NA
ATOM     24  C   UNL     1      34.589 -17.203 -22.429  0.00  0.00    +0.079 C 
ATOM     25  C   UNL     1      33.603 -17.960 -21.804  0.00  0.00    +0.023 C 
ATOM     26  C   UNL     1      35.898 -17.650 -22.347  0.00  0.00    +0.115 C 
ATOM     27  C   UNL     1      33.953 -19.124 -21.128  0.00  0.00    +0.100 C 
ATOM     28  C   UNL     1      35.290 -19.484 -21.106  0.00  0.00    +0.153 C 
BRANCH  27  32
ATOM     29  F   UNL     1      32.437 -20.974 -21.214  0.00  0.00    -0.166 F 
ATOM     30  F   UNL     1      33.303 -20.500 -19.283  0.00  0.00    -0.166 F 
ATOM     31  F   UNL     1      31.790 -19.196 -20.143  0.00  0.00    -0.166 F 
ATOM     32  C   UNL     1      32.895 -19.933 -20.457  0.00  0.00    +0.421 C 
ENDBRANCH  27  32
BRANCH  28  34
ATOM     33  N   UNL     1      36.121 -21.621 -19.902  0.00  0.00    -0.189 NA
ATOM     34  C   UNL     1      35.748 -20.662 -20.442  0.00  0.00    +0.120 C 
ENDBRANCH  28  34
ENDBRANCH   4  24
TORSDOF 5
ENDMDL
MODEL 3
REMARK VINA RESULT:      -9.7      3.928      6.003
REMARK  Name = 24872560
REMARK  5 active torsions:
REMARK  status: ('A' for Active; 'I' for Inactive)
REMARK    1  A    between atoms: N_3  and  C_12
REMARK    2  A    between atoms: N_4  and  C_24
REMARK    3  A    between atoms: C_17  and  C_20
REMARK    4  A    between atoms: C_27  and  C_32
REMARK    5  A    between atoms: C_28  and  C_34
REMARK                            x       y       z     vdW  Elec       q    Type
REMARK                         _______ _______ _______ _____ _____    ______ ____
ROOT
ATOM      1  S   UNL     1      34.358 -15.682 -20.145  0.00  0.00    -0.017 S 
ATOM      2  O   UNL     1      33.923 -18.601 -24.293  0.00  0.00    -0.272 OA
ATOM      3  N   UNL     1      33.856 -15.323 -22.860  0.00  0.00    -0.265 N 
ATOM      4  N   UNL     1      34.030 -17.526 -22.205  0.00  0.00    -0.217 N 
ATOM      5  C   UNL     1      34.061 -16.110 -24.120  0.00  0.00    +0.133 C 
ATOM      6  C   UNL     1      33.190 -15.775 -25.354  0.00  0.00    +0.028 C 
ATOM      7  C   UNL     1      35.324 -15.782 -24.956  0.00  0.00    +0.028 C 
ATOM      8  C   UNL     1      34.457 -15.869 -26.226  0.00  0.00    +0.004 C 
ATOM      9  C   UNL     1      34.006 -17.593 -23.596  0.00  0.00    +0.251 C 
ATOM     10  C   UNL     1      34.023 -16.187 -21.719  0.00  0.00    +0.152 C 
ENDROOT
BRANCH   3  12
ATOM     11  F   UNL     1      30.941 -11.968 -21.012  0.00  0.00    -0.204 F 
ATOM     12  C   UNL     1      33.385 -13.970 -22.812  0.00  0.00    +0.055 C 
ATOM     13  C   UNL     1      32.373 -13.615 -21.921  0.00  0.00    +0.045 C 
ATOM     14  C   UNL     1      33.939 -13.008 -23.657  0.00  0.00    +0.015 C 
ATOM     15  C   UNL     1      31.915 -12.298 -21.873  0.00  0.00    +0.146 C 
ATOM     16  C   UNL     1      33.481 -11.691 -23.611  0.00  0.00    +0.008 C 
ATOM     17  C   UNL     1      32.469 -11.336 -22.719  0.00  0.00    +0.081 C 
BRANCH  17  20
ATOM     18  O   UNL     1      30.795  -9.701 -22.865  0.00  0.00    -0.270 OA
ATOM     19  N   UNL     1      32.943  -8.974 -22.380  0.00  0.00    -0.299 N 
ATOM     20  C   UNL     1      31.996  -9.962 -22.672  0.00  0.00    +0.248 C 
ATOM     21  C   UNL     1      32.624  -7.568 -22.275  0.00  0.00    +0.111 C 
ATOM     22  H   UNL     1      33.877  -9.251 -22.238  0.00  0.00    +0.150 HD
ENDBRANCH  17  20
ENDBRANCH   3  12
BRANCH   4  24
ATOM     23  N   UNL     1      32.774 -20.417 -20.239  0.00  0.00    -0.232 NA
ATOM     24  C   UNL     1      34.031 -18.713 -21.407  0.00  0.00    +0.079 C 
ATOM     25  C   UNL     1      35.222 -19.322 -21.028  0.00  0.00    +0.023 C 
ATOM     26  C   UNL     1      32.844 -19.295 -20.991  0.00  0.00    +0.115 C 
ATOM     27  C   UNL     1      35.191 -20.476 -20.253  0.00  0.00    +0.100 C 
ATOM     28  C   UNL     1      33.952 -20.979 -19.889  0.00  0.00    +0.153 C 
BRANCH  27  32
ATOM     29  F   UNL     1      37.582 -20.421 -20.206  0.00  0.00    -0.166 F 
ATOM     30  F   UNL     1      36.585 -21.319 -18.502  0.00  0.00    -0.166 F 
ATOM     31  F   UNL     1      36.628 -22.364 -20.409  0.00  0.00    -0.166 F 
ATOM     32  C   UNL     1      36.469 -21.129 -19.850  0.00  0.00    +0.421 C 
ENDBRANCH  27  32
BRANCH  28  34
ATOM     33  N   UNL     1      33.704 -23.114 -18.446  0.00  0.00    -0.189 NA
ATOM     34  C   UNL     1      33.815 -22.157 -19.094  0.00  0.00    +0.120 C 
ENDBRANCH  28  34
ENDBRANCH   4  24
TORSDOF 5
ENDMDL
MODEL 4
REMARK VINA RESULT:      -9.6      4.107     10.544
REMARK  Name = 24872560
REMARK  5 active torsions:
REMARK  status: ('A' for Active; 'I' for Inactive)
REMARK    1  A    between atoms: N_3  and  C_12
REMARK    2  A    between atoms: N_4  and  C_24
REMARK    3  A    between atoms: C_17  and  C_20
REMARK    4  A    between atoms: C_27  and  C_32
REMARK    5  A    between atoms: C_28  and  C_34
REMARK                            x       y       z     vdW  Elec       q    Type
REMARK                         _______ _______ _______ _____ _____    ______ ____
ROOT
ATOM      1  S   UNL     1      32.626 -16.032 -20.626  0.00  0.00    -0.017 S 
ATOM      2  O   UNL     1      34.533 -15.632 -25.329  0.00  0.00    -0.272 OA
ATOM      3  N   UNL     1      34.059 -17.631 -22.399  0.00  0.00    -0.265 N 
ATOM      4  N   UNL     1      33.680 -15.482 -23.143  0.00  0.00    -0.217 N 
ATOM      5  C   UNL     1      34.323 -17.656 -23.875  0.00  0.00    +0.133 C 
ATOM      6  C   UNL     1      35.573 -18.405 -24.394  0.00  0.00    +0.028 C 
ATOM      7  C   UNL     1      33.438 -18.597 -24.732  0.00  0.00    +0.028 C 
ATOM      8  C   UNL     1      34.701 -19.012 -25.509  0.00  0.00    +0.004 C 
ATOM      9  C   UNL     1      34.199 -16.134 -24.259  0.00  0.00    +0.251 C 
ATOM     10  C   UNL     1      33.504 -16.354 -22.031  0.00  0.00    +0.152 C 
ENDROOT
BRANCH   3  12
ATOM     11  F   UNL     1      33.010 -21.329 -19.503  0.00  0.00    -0.204 F 
ATOM     12  C   UNL     1      34.471 -18.651 -21.481  0.00  0.00    +0.055 C 
ATOM     13  C   UNL     1      33.526 -19.513 -20.924  0.00  0.00    +0.045 C 
ATOM     14  C   UNL     1      35.819 -18.783 -21.144  0.00  0.00    +0.015 C 
ATOM     15  C   UNL     1      33.927 -20.506 -20.032  0.00  0.00    +0.146 C 
ATOM     16  C   UNL     1      36.221 -19.776 -20.251  0.00  0.00    +0.008 C 
ATOM     17  C   UNL     1      35.275 -20.638 -19.695  0.00  0.00    +0.081 C 
BRANCH  17  20
ATOM     18  O   UNL     1      35.215 -22.817 -18.832  0.00  0.00    -0.270 OA
ATOM     19  N   UNL     1      36.677 -21.324 -17.828  0.00  0.00    -0.299 N 
ATOM     20  C   UNL     1      35.698 -21.673 -18.766  0.00  0.00    +0.248 C 
ATOM     21  C   UNL     1      37.217 -22.246 -16.854  0.00  0.00    +0.111 C 
ATOM     22  H   UNL     1      37.016 -20.399 -17.831  0.00  0.00    +0.150 HD
ENDBRANCH  17  20
ENDBRANCH   3  12
BRANCH   4  24
ATOM     23  N   UNL     1      33.672 -11.941 -24.266  0.00  0.00    -0.232 NA
ATOM     24  C   UNL     1      33.405 -14.079 -23.168  0.00  0.00    +0.079 C 
ATOM     25  C   UNL     1      32.632 -13.482 -22.179  0.00  0.00    +0.023 C 
ATOM     26  C   UNL     1      33.897 -13.272 -24.182  0.00  0.00    +0.115 C 
ATOM     27  C   UNL     1      32.379 -12.116 -22.232  0.00  0.00    +0.100 C 
ATOM     28  C   UNL     1      32.917 -11.397 -23.287  0.00  0.00    +0.153 C 
BRANCH  27  32
ATOM     29  F   UNL     1      32.008 -10.254 -20.775  0.00  0.00    -0.166 F 
ATOM     30  F   UNL     1      30.252 -11.265 -21.546  0.00  0.00    -0.166 F 
ATOM     31  F   UNL     1      31.480 -12.229 -20.033  0.00  0.00    -0.166 F 
ATOM     32  C   UNL     1      31.548 -11.478 -21.171  0.00  0.00    +0.421 C 
ENDBRANCH  27  32
BRANCH  28  34
ATOM     33  N   UNL     1      32.554  -8.846 -23.542  0.00  0.00    -0.189 NA
ATOM     34  C   UNL     1      32.717  -9.991 -23.427  0.00  0.00    +0.120 C 
ENDBRANCH  28  34
ENDBRANCH   4  24
TORSDOF 5
ENDMDL
MODEL 5
REMARK VINA RESULT:      -9.6      1.654      2.022
REMARK  Name = 24872560
REMARK  5 active torsions:
REMARK  status: ('A' for Active; 'I' for Inactive)
REMARK    1  A    between atoms: N_3  and  C_12
REMARK    2  A    between atoms: N_4  and  C_24
REMARK    3  A    between atoms: C_17  and  C_20
REMARK    4  A    between atoms: C_27  and  C_32
REMARK    5  A    between atoms: C_28  and  C_34
REMARK                            x       y       z     vdW  Elec       q    Type
REMARK                         _______ _______ _______ _____ _____    ______ ____
ROOT
ATOM      1  S   UNL     1      32.768 -12.145 -25.232  0.00  0.00    -0.017 S 
ATOM      2  O   UNL     1      32.536 -13.481 -20.325  0.00  0.00    -0.272 OA
ATOM      3  N   UNL     1      32.232 -10.910 -22.795  0.00  0.00    -0.265 N 
ATOM      4  N   UNL     1      32.855 -13.123 -22.627  0.00  0.00    -0.217 N 
ATOM      5  C   UNL     1      31.830 -11.345 -21.417  0.00  0.00    +0.133 C 
ATOM      6  C   UNL     1      32.126 -10.403 -20.225  0.00  0.00    +0.028 C 
ATOM      7  C   UNL     1      30.322 -11.268 -21.068  0.00  0.00    +0.028 C 
ATOM      8  C   UNL     1      30.711 -10.696 -19.692  0.00  0.00    +0.004 C 
ATOM      9  C   UNL     1      32.433 -12.797 -21.340  0.00  0.00    +0.251 C 
ATOM     10  C   UNL     1      32.680 -12.052 -23.550  0.00  0.00    +0.152 C 
ENDROOT
BRANCH   3  12
ATOM     11  F   UNL     1      34.880  -7.029 -23.839  0.00  0.00    -0.204 F 
ATOM     12  C   UNL     1      32.329  -9.545 -23.222  0.00  0.00    +0.055 C 
ATOM     13  C   UNL     1      33.578  -8.934 -23.326  0.00  0.00    +0.045 C 
ATOM     14  C   UNL     1      31.174  -8.828 -23.535  0.00  0.00    +0.015 C 
ATOM     15  C   UNL     1      33.674  -7.606 -23.743  0.00  0.00    +0.146 C 
ATOM     16  C   UNL     1      31.268  -7.500 -23.951  0.00  0.00    +0.008 C 
ATOM     17  C   UNL     1      32.518  -6.889 -24.055  0.00  0.00    +0.081 C 
BRANCH  17  20
ATOM     18  O   UNL     1      33.329  -5.196 -25.459  0.00  0.00    -0.270 OA
ATOM     19  N   UNL     1      31.849  -4.565 -23.790  0.00  0.00    -0.299 N 
ATOM     20  C   UNL     1      32.613  -5.505 -24.491  0.00  0.00    +0.248 C 
ATOM     21  C   UNL     1      31.818  -3.157 -24.116  0.00  0.00    +0.111 C 
ATOM     22  H   UNL     1      31.304  -4.879 -23.032  0.00  0.00    +0.150 HD
ENDBRANCH  17  20
ENDBRANCH   3  12
BRANCH   4  24
ATOM     23  N   UNL     1      33.988 -16.087 -24.556  0.00  0.00    -0.232 NA
ATOM     24  C   UNL     1      33.422 -14.403 -22.917  0.00  0.00    +0.079 C 
ATOM     25  C   UNL     1      33.954 -15.197 -21.907  0.00  0.00    +0.023 C 
ATOM     26  C   UNL     1      33.464 -14.889 -24.214  0.00  0.00    +0.115 C 
ATOM     27  C   UNL     1      34.501 -16.437 -22.220  0.00  0.00    +0.100 C 
ATOM     28  C   UNL     1      34.494 -16.831 -23.548  0.00  0.00    +0.153 C 
BRANCH  27  32
ATOM     29  F   UNL     1      34.279 -18.342 -20.791  0.00  0.00    -0.166 F 
ATOM     30  F   UNL     1      36.281 -17.839 -21.455  0.00  0.00    -0.166 F 
ATOM     31  F   UNL     1      35.282 -16.592 -19.980  0.00  0.00    -0.166 F 
ATOM     32  C   UNL     1      35.073 -17.286 -21.136  0.00  0.00    +0.421 C 
ENDBRANCH  27  32
BRANCH  28  34
ATOM     33  N   UNL     1      35.464 -19.107 -24.314  0.00  0.00    -0.189 NA
ATOM     34  C   UNL     1      35.029 -18.086 -23.970  0.00  0.00    +0.120 C 
ENDBRANCH  28  34
ENDBRANCH   4  24
TORSDOF 5
ENDMDL
MODEL 6
REMARK VINA RESULT:      -9.2      2.650      9.592
REMARK  Name = 24872560
REMARK  5 active torsions:
REMARK  status: ('A' for Active; 'I' for Inactive)
REMARK    1  A    between atoms: N_3  and  C_12
REMARK    2  A    between atoms: N_4  and  C_24
REMARK    3  A    between atoms: C_17  and  C_20
REMARK    4  A    between atoms: C_27  and  C_32
REMARK    5  A    between atoms: C_28  and  C_34
REMARK                            x       y       z     vdW  Elec       q    Type
REMARK                         _______ _______ _______ _____ _____    ______ ____
ROOT
ATOM      1  S   UNL     1      32.556 -13.335 -20.965  0.00  0.00    -0.017 S 
ATOM      2  O   UNL     1      33.546 -11.991 -25.774  0.00  0.00    -0.272 OA
ATOM      3  N   UNL     1      33.552 -14.544 -23.266  0.00  0.00    -0.265 N 
ATOM      4  N   UNL     1      33.134 -12.287 -23.479  0.00  0.00    -0.217 N 
ATOM      5  C   UNL     1      33.528 -14.268 -24.740  0.00  0.00    +0.133 C 
ATOM      6  C   UNL     1      34.623 -14.901 -25.632  0.00  0.00    +0.028 C 
ATOM      7  C   UNL     1      32.456 -15.012 -25.577  0.00  0.00    +0.028 C 
ATOM      8  C   UNL     1      33.528 -15.265 -26.653  0.00  0.00    +0.004 C 
ATOM      9  C   UNL     1      33.401 -12.700 -24.782  0.00  0.00    +0.251 C 
ATOM     10  C   UNL     1      33.135 -13.366 -22.549  0.00  0.00    +0.152 C 
ENDROOT
BRANCH   3  12
ATOM     11  F   UNL     1      34.832 -19.173 -23.574  0.00  0.00    -0.204 F 
ATOM     12  C   UNL     1      34.087 -15.731 -22.669  0.00  0.00    +0.055 C 
ATOM     13  C   UNL     1      34.204 -16.900 -23.422  0.00  0.00    +0.045 C 
ATOM     14  C   UNL     1      34.493 -15.719 -21.334  0.00  0.00    +0.015 C 
ATOM     15  C   UNL     1      34.726 -18.055 -22.841  0.00  0.00    +0.146 C 
ATOM     16  C   UNL     1      35.015 -16.874 -20.752  0.00  0.00    +0.008 C 
ATOM     17  C   UNL     1      35.131 -18.043 -21.506  0.00  0.00    +0.081 C 
BRANCH  17  20
ATOM     18  O   UNL     1      36.906 -19.395 -20.787  0.00  0.00    -0.270 OA
ATOM     19  N   UNL     1      34.759 -20.192 -20.428  0.00  0.00    -0.299 N 
ATOM     20  C   UNL     1      35.677 -19.245 -20.896  0.00  0.00    +0.248 C 
ATOM     21  C   UNL     1      35.144 -21.425 -19.779  0.00  0.00    +0.111 C 
ATOM     22  H   UNL     1      33.799 -20.009 -20.548  0.00  0.00    +0.150 HD
ENDBRANCH  17  20
ENDBRANCH   3  12
BRANCH   4  24
ATOM     23  N   UNL     1      31.638  -9.229 -21.992  0.00  0.00    -0.232 NA
ATOM     24  C   UNL     1      32.920 -10.907 -23.169  0.00  0.00    +0.079 C 
ATOM     25  C   UNL     1      33.741  -9.918 -23.700  0.00  0.00    +0.023 C 
ATOM     26  C   UNL     1      31.892 -10.514 -22.328  0.00  0.00    +0.115 C 
ATOM     27  C   UNL     1      33.510  -8.585 -23.379  0.00  0.00    +0.100 C 
ATOM     28  C   UNL     1      32.456  -8.296 -22.528  0.00  0.00    +0.153 C 
BRANCH  27  32
ATOM     29  F   UNL     1      33.728  -6.381 -24.283  0.00  0.00    -0.166 F 
ATOM     30  F   UNL     1      35.383  -7.124 -23.095  0.00  0.00    -0.166 F 
ATOM     31  F   UNL     1      35.029  -7.927 -25.085  0.00  0.00    -0.166 F 
ATOM     32  C   UNL     1      34.393  -7.526 -23.947  0.00  0.00    +0.421 C 
ENDBRANCH  27  32
BRANCH  28  34
ATOM     33  N   UNL     1      31.877  -5.872 -21.827  0.00  0.00    -0.189 NA
ATOM     34  C   UNL     1      32.136  -6.959 -22.141  0.00  0.00    +0.120 C 
ENDBRANCH  28  34
ENDBRANCH   4  24
TORSDOF 5
ENDMDL
MODEL 7
REMARK VINA RESULT:      -9.1      3.766     10.376
REMARK  Name = 24872560
REMARK  5 active torsions:
REMARK  status: ('A' for Active; 'I' for Inactive)
REMARK    1  A    between atoms: N_3  and  C_12
REMARK    2  A    between atoms: N_4  and  C_24
REMARK    3  A    between atoms: C_17  and  C_20
REMARK    4  A    between atoms: C_27  and  C_32
REMARK    5  A    between atoms: C_28  and  C_34
REMARK                            x       y       z     vdW  Elec       q    Type
REMARK                         _______ _______ _______ _____ _____    ______ ____
ROOT
ATOM      1  S   UNL     1      32.481 -16.030 -20.550  0.00  0.00    -0.017 S 
ATOM      2  O   UNL     1      34.428 -15.363 -25.206  0.00  0.00    -0.272 OA
ATOM      3  N   UNL     1      33.990 -17.500 -22.370  0.00  0.00    -0.265 N 
ATOM      4  N   UNL     1      33.545 -15.336 -23.027  0.00  0.00    -0.217 N 
ATOM      5  C   UNL     1      34.272 -17.453 -23.842  0.00  0.00    +0.133 C 
ATOM      6  C   UNL     1      35.555 -18.136 -24.375  0.00  0.00    +0.028 C 
ATOM      7  C   UNL     1      33.431 -18.387 -24.749  0.00  0.00    +0.028 C 
ATOM      8  C   UNL     1      34.717 -18.725 -25.526  0.00  0.00    +0.004 C 
ATOM      9  C   UNL     1      34.100 -15.922 -24.163  0.00  0.00    +0.251 C 
ATOM     10  C   UNL     1      33.386 -16.260 -21.955  0.00  0.00    +0.152 C 
ENDROOT
BRANCH   3  12
ATOM     11  F   UNL     1      33.030 -21.319 -19.602  0.00  0.00    -0.204 F 
ATOM     12  C   UNL     1      34.428 -18.544 -21.491  0.00  0.00    +0.055 C 
ATOM     13  C   UNL     1      33.503 -19.443 -20.960  0.00  0.00    +0.045 C 
ATOM     14  C   UNL     1      35.779 -18.661 -21.165  0.00  0.00    +0.015 C 
ATOM     15  C   UNL     1      33.928 -20.460 -20.105  0.00  0.00    +0.146 C 
ATOM     16  C   UNL     1      36.206 -19.677 -20.310  0.00  0.00    +0.008 C 
ATOM     17  C   UNL     1      35.280 -20.577 -19.780  0.00  0.00    +0.081 C 
BRANCH  17  20
ATOM     18  O   UNL     1      35.317 -22.800 -19.036  0.00  0.00    -0.270 OA
ATOM     19  N   UNL     1      36.649 -21.282 -17.896  0.00  0.00    -0.299 N 
ATOM     20  C   UNL     1      35.729 -21.635 -18.890  0.00  0.00    +0.248 C 
ATOM     21  C   UNL     1      37.205 -22.224 -16.951  0.00  0.00    +0.111 C 
ATOM     22  H   UNL     1      36.932 -20.341 -17.836  0.00  0.00    +0.150 HD
ENDBRANCH  17  20
ENDBRANCH   3  12
BRANCH   4  24
ATOM     23  N   UNL     1      31.873 -12.157 -22.081  0.00  0.00    -0.232 NA
ATOM     24  C   UNL     1      33.221 -13.944 -22.997  0.00  0.00    +0.079 C 
ATOM     25  C   UNL     1      33.895 -13.032 -23.801  0.00  0.00    +0.023 C 
ATOM     26  C   UNL     1      32.227 -13.460 -22.161  0.00  0.00    +0.115 C 
ATOM     27  C   UNL     1      33.559 -11.684 -23.747  0.00  0.00    +0.100 C 
ATOM     28  C   UNL     1      32.551 -11.302 -22.878  0.00  0.00    +0.153 C 
BRANCH  27  32
ATOM     29  F   UNL     1      35.027 -11.294 -25.595  0.00  0.00    -0.166 F 
ATOM     30  F   UNL     1      33.461  -9.832 -25.258  0.00  0.00    -0.166 F 
ATOM     31  F   UNL     1      35.160  -9.933 -23.904  0.00  0.00    -0.166 F 
ATOM     32  C   UNL     1      34.285 -10.708 -24.609  0.00  0.00    +0.421 C 
ENDBRANCH  27  32
BRANCH  28  34
ATOM     33  N   UNL     1      31.790  -8.837 -22.650  0.00  0.00    -0.189 NA
ATOM     34  C   UNL     1      32.131  -9.943 -22.753  0.00  0.00    +0.120 C 
ENDBRANCH  28  34
ENDBRANCH   4  24
TORSDOF 5
ENDMDL
MODEL 8
REMARK VINA RESULT:      -9.0      4.244     10.527
REMARK  Name = 24872560
REMARK  5 active torsions:
REMARK  status: ('A' for Active; 'I' for Inactive)
REMARK    1  A    between atoms: N_3  and  C_12
REMARK    2  A    between atoms: N_4  and  C_24
REMARK    3  A    between atoms: C_17  and  C_20
REMARK    4  A    between atoms: C_27  and  C_32
REMARK    5  A    between atoms: C_28  and  C_34
REMARK                            x       y       z     vdW  Elec       q    Type
REMARK                         _______ _______ _______ _____ _____    ______ ____
ROOT
ATOM      1  S   UNL     1      32.877 -16.406 -20.987  0.00  0.00    -0.017 S 
ATOM      2  O   UNL     1      34.969 -16.721 -25.618  0.00  0.00    -0.272 OA
ATOM      3  N   UNL     1      34.182 -18.330 -22.520  0.00  0.00    -0.265 N 
ATOM      4  N   UNL     1      34.067 -16.246 -23.500  0.00  0.00    -0.217 N 
ATOM      5  C   UNL     1      34.490 -18.543 -23.972  0.00  0.00    +0.133 C 
ATOM      6  C   UNL     1      35.667 -19.472 -24.355  0.00  0.00    +0.028 C 
ATOM      7  C   UNL     1      33.535 -19.472 -24.764  0.00  0.00    +0.028 C 
ATOM      8  C   UNL     1      34.769 -20.100 -25.438  0.00  0.00    +0.004 C 
ATOM      9  C   UNL     1      34.547 -17.067 -24.518  0.00  0.00    +0.251 C 
ATOM     10  C   UNL     1      33.760 -16.969 -22.311  0.00  0.00    +0.152 C 
ENDROOT
BRANCH   3  12
ATOM     11  F   UNL     1      37.289 -20.660 -19.677  0.00  0.00    -0.204 F 
ATOM     12  C   UNL     1      34.450 -19.282 -21.484  0.00  0.00    +0.055 C 
ATOM     13  C   UNL     1      35.762 -19.517 -21.073  0.00  0.00    +0.045 C 
ATOM     14  C   UNL     1      33.398 -19.975 -20.884  0.00  0.00    +0.015 C 
ATOM     15  C   UNL     1      36.024 -20.443 -20.063  0.00  0.00    +0.146 C 
ATOM     16  C   UNL     1      33.658 -20.902 -19.874  0.00  0.00    +0.008 C 
ATOM     17  C   UNL     1      34.971 -21.136 -19.464  0.00  0.00    +0.081 C 
BRANCH  17  20
ATOM     18  O   UNL     1      34.587 -23.159 -18.343  0.00  0.00    -0.270 OA
ATOM     19  N   UNL     1      36.264 -21.792 -17.510  0.00  0.00    -0.299 N 
ATOM     20  C   UNL     1      35.238 -22.102 -18.410  0.00  0.00    +0.248 C 
ATOM     21  C   UNL     1      36.664 -22.659 -16.425  0.00  0.00    +0.111 C 
ATOM     22  H   UNL     1      36.739 -20.936 -17.622  0.00  0.00    +0.150 HD
ENDBRANCH  17  20
ENDBRANCH   3  12
BRANCH   4  24
ATOM     23  N   UNL     1      33.788 -12.630 -22.699  0.00  0.00    -0.232 NA
ATOM     24  C   UNL     1      33.949 -14.833 -23.682  0.00  0.00    +0.079 C 
ATOM     25  C   UNL     1      33.889 -14.277 -24.956  0.00  0.00    +0.023 C 
ATOM     26  C   UNL     1      33.896 -13.974 -22.597  0.00  0.00    +0.115 C 
ATOM     27  C   UNL     1      33.777 -12.899 -25.101  0.00  0.00    +0.100 C 
ATOM     28  C   UNL     1      33.731 -12.127 -23.952  0.00  0.00    +0.153 C 
BRANCH  27  32
ATOM     29  F   UNL     1      34.665 -11.350 -26.693  0.00  0.00    -0.166 F 
ATOM     30  F   UNL     1      33.883 -13.217 -27.469  0.00  0.00    -0.166 F 
ATOM     31  F   UNL     1      32.519 -11.697 -26.723  0.00  0.00    -0.166 F 
ATOM     32  C   UNL     1      33.714 -12.304 -26.468  0.00  0.00    +0.421 C 
ENDBRANCH  27  32
BRANCH  28  34
ATOM     33  N   UNL     1      33.517  -9.548 -24.033  0.00  0.00    -0.189 NA
ATOM     34  C   UNL     1      33.613 -10.704 -23.997  0.00  0.00    +0.120 C 
ENDBRANCH  28  34
ENDBRANCH   4  24
TORSDOF 5
ENDMDL
MODEL 9
REMARK VINA RESULT:      -8.8      3.313      5.306
REMARK  Name = 24872560
REMARK  5 active torsions:
REMARK  status: ('A' for Active; 'I' for Inactive)
REMARK    1  A    between atoms: N_3  and  C_12
REMARK    2  A    between atoms: N_4  and  C_24
REMARK    3  A    between atoms: C_17  and  C_20
REMARK    4  A    between atoms: C_27  and  C_32
REMARK    5  A    between atoms: C_28  and  C_34
REMARK                            x       y       z     vdW  Elec       q    Type
REMARK                         _______ _______ _______ _____ _____    ______ ____
ROOT
ATOM      1  S   UNL     1      35.078 -14.890 -20.575  0.00  0.00    -0.017 S 
ATOM      2  O   UNL     1      33.943 -17.964 -24.471  0.00  0.00    -0.272 OA
ATOM      3  N   UNL     1      33.904 -14.664 -23.090  0.00  0.00    -0.265 N 
ATOM      4  N   UNL     1      34.445 -16.820 -22.480  0.00  0.00    -0.217 N 
ATOM      5  C   UNL     1      33.875 -15.467 -24.356  0.00  0.00    +0.133 C 
ATOM      6  C   UNL     1      32.704 -15.253 -25.345  0.00  0.00    +0.028 C 
ATOM      7  C   UNL     1      34.861 -15.050 -25.477  0.00  0.00    +0.028 C 
ATOM      8  C   UNL     1      33.726 -15.256 -26.497  0.00  0.00    +0.004 C 
ATOM      9  C   UNL     1      34.093 -16.932 -23.823  0.00  0.00    +0.251 C 
ATOM     10  C   UNL     1      34.424 -15.473 -22.018  0.00  0.00    +0.152 C 
ENDROOT
BRANCH   3  12
ATOM     11  F   UNL     1      33.703 -10.012 -24.307  0.00  0.00    -0.204 F 
ATOM     12  C   UNL     1      33.329 -13.360 -22.940  0.00  0.00    +0.055 C 
ATOM     13  C   UNL     1      33.801 -12.296 -23.708  0.00  0.00    +0.045 C 
ATOM     14  C   UNL     1      32.295 -13.154 -22.026  0.00  0.00    +0.015 C 
ATOM     15  C   UNL     1      33.241 -11.027 -23.564  0.00  0.00    +0.146 C 
ATOM     16  C   UNL     1      31.734 -11.886 -21.880  0.00  0.00    +0.008 C 
ATOM     17  C   UNL     1      32.207 -10.822 -22.649  0.00  0.00    +0.081 C 
BRANCH  17  20
ATOM     18  O   UNL     1      31.437  -9.019 -21.364  0.00  0.00    -0.270 OA
ATOM     19  N   UNL     1      31.298  -8.809 -23.669  0.00  0.00    -0.299 N 
ATOM     20  C   UNL     1      31.619  -9.501 -22.495  0.00  0.00    +0.248 C 
ATOM     21  C   UNL     1      30.729  -7.479 -23.682  0.00  0.00    +0.111 C 
ATOM     22  H   UNL     1      31.468  -9.251 -24.532  0.00  0.00    +0.150 HD
ENDBRANCH  17  20
ENDBRANCH   3  12
BRANCH   4  24
ATOM     23  N   UNL     1      36.406 -19.292 -20.520  0.00  0.00    -0.232 NA
ATOM     24  C   UNL     1      34.754 -17.976 -21.697  0.00  0.00    +0.079 C 
ATOM     25  C   UNL     1      33.765 -18.888 -21.344  0.00  0.00    +0.023 C 
ATOM     26  C   UNL     1      36.047 -18.221 -21.264  0.00  0.00    +0.115 C 
ATOM     27  C   UNL     1      34.096 -20.002 -20.580  0.00  0.00    +0.100 C 
ATOM     28  C   UNL     1      35.418 -20.156 -20.197  0.00  0.00    +0.153 C 
BRANCH  27  32
ATOM     29  F   UNL     1      33.478 -22.266 -20.117  0.00  0.00    -0.166 F 
ATOM     30  F   UNL     1      32.465 -20.720 -18.985  0.00  0.00    -0.166 F 
ATOM     31  F   UNL     1      32.000 -21.002 -21.090  0.00  0.00    -0.166 F 
ATOM     32  C   UNL     1      33.034 -20.977 -20.199  0.00  0.00    +0.421 C 
ENDBRANCH  27  32
BRANCH  28  34
ATOM     33  N   UNL     1      36.216 -22.170 -18.778  0.00  0.00    -0.189 NA
ATOM     34  C   UNL     1      35.858 -21.267 -19.414  0.00  0.00    +0.120 C 
ENDBRANCH  28  34
ENDBRANCH   4  24
TORSDOF 5
ENDMDL
