MODEL 1
REMARK VINA RESULT:      -9.7      0.000      0.000
REMARK  Name = 5318980
REMARK  7 active torsions:
REMARK  status: ('A' for Active; 'I' for Inactive)
REMARK    1  A    between atoms: C_3  and  C_26
REMARK    2  A    between atoms: C_6  and  O_20
REMARK    3  A    between atoms: C_7  and  C_12
REMARK    4  A    between atoms: C_8  and  O_22
REMARK    5  A    between atoms: C_11  and  O_24
REMARK    6  A    between atoms: C_17  and  O_18
REMARK    7  A    between atoms: C_26  and  C_27
REMARK                            x       y       z     vdW  Elec       q    Type
REMARK                         _______ _______ _______ _____ _____    ______ ____
ROOT
ATOM      1  O   UNL     1      34.179 -13.798 -23.259  0.00  0.00    -0.450 OA
ATOM      2  O   UNL     1      33.420 -15.495 -26.885  0.00  0.00    -0.283 OA
ATOM      3  C   UNL     1      34.680 -15.898 -22.304  0.00  0.00    +0.051 C 
ATOM      4  C   UNL     1      34.295 -15.155 -23.420  0.00  0.00    +0.151 A 
ATOM      5  C   UNL     1      34.047 -15.796 -24.632  0.00  0.00    +0.110 A 
ATOM      6  C   UNL     1      34.816 -17.282 -22.404  0.00  0.00    +0.136 C 
ATOM      7  C   UNL     1      33.788 -13.034 -24.347  0.00  0.00    +0.182 A 
ATOM      8  C   UNL     1      34.183 -17.182 -24.737  0.00  0.00    +0.143 C 
ATOM      9  C   UNL     1      33.645 -14.989 -25.794  0.00  0.00    +0.238 A 
ATOM     10  C   UNL     1      34.568 -17.924 -23.619  0.00  0.00    +0.073 C 
ATOM     11  C   UNL     1      33.528 -13.527 -25.571  0.00  0.00    +0.208 A 
ENDROOT
BRANCH   7  12
ATOM     12  C   UNL     1      33.704 -11.596 -24.039  0.00  0.00    +0.038 C 
ATOM     13  C   UNL     1      32.671 -11.113 -23.233  0.00  0.00    +0.006 C 
ATOM     14  C   UNL     1      34.656 -10.716 -24.552  0.00  0.00    +0.006 C 
ATOM     15  C   UNL     1      32.592  -9.751 -22.941  0.00  0.00    +0.037 C 
ATOM     16  C   UNL     1      34.577  -9.354 -24.260  0.00  0.00    +0.037 C 
ATOM     17  C   UNL     1      33.546  -8.871 -23.455  0.00  0.00    +0.139 C 
BRANCH  17  18
ATOM     18  O   UNL     1      33.469  -7.543 -23.170  0.00  0.00    -0.471 OA
ATOM     19  C   UNL     1      32.675  -7.164 -22.046  0.00  0.00    +0.252 C 
ENDBRANCH  17  18
ENDBRANCH   7  12
BRANCH   6  20
ATOM     20  O   UNL     1      35.191 -18.026 -21.326  0.00  0.00    -0.506 OA
ATOM     21  H   UNL     1      34.614 -18.681 -20.985  0.00  0.00    +0.292 HD
ENDBRANCH   6  20
BRANCH   8  22
ATOM     22  O   UNL     1      33.954 -17.857 -25.899  0.00  0.00    -0.505 OA
ATOM     23  H   UNL     1      33.227 -17.623 -26.441  0.00  0.00    +0.292 HD
ENDBRANCH   8  22
BRANCH  11  24
ATOM     24  O   UNL     1      33.173 -12.735 -26.642  0.00  0.00    -0.501 OA
ATOM     25  H   UNL     1      33.522 -11.869 -26.720  0.00  0.00    +0.292 HD
ENDBRANCH  11  24
BRANCH   3  26
ATOM     26  C   UNL     1      34.948 -15.219 -20.998  0.00  0.00    +0.058 C 
BRANCH  26  27
ATOM     27  C   UNL     1      34.041 -14.039 -20.756  0.00  0.00    -0.030 C 
ATOM     28  C   UNL     1      32.735 -14.049 -20.429  0.00  0.00    -0.048 C 
ATOM     29  C   UNL     1      31.888 -12.830 -20.200  0.00  0.00    +0.026 C 
ATOM     30  C   UNL     1      31.999 -15.354 -20.273  0.00  0.00    +0.026 C 
ENDBRANCH  26  27
ENDBRANCH   3  26
TORSDOF 7
ENDMDL
MODEL 2
REMARK VINA RESULT:      -9.7      3.626      6.653
REMARK  Name = 5318980
REMARK  7 active torsions:
REMARK  status: ('A' for Active; 'I' for Inactive)
REMARK    1  A    between atoms: C_3  and  C_26
REMARK    2  A    between atoms: C_6  and  O_20
REMARK    3  A    between atoms: C_7  and  C_12
REMARK    4  A    between atoms: C_8  and  O_22
REMARK    5  A    between atoms: C_11  and  O_24
REMARK    6  A    between atoms: C_17  and  O_18
REMARK    7  A    between atoms: C_26  and  C_27
REMARK                            x       y       z     vdW  Elec       q    Type
REMARK                         _______ _______ _______ _____ _____    ______ ____
ROOT
ATOM      1  O   UNL     1      32.615  -9.123 -23.059  0.00  0.00    -0.450 OA
ATOM      2  O   UNL     1      31.760  -7.847 -19.284  0.00  0.00    -0.283 OA
ATOM      3  C   UNL     1      32.288 -11.378 -22.444  0.00  0.00    +0.051 C 
ATOM      4  C   UNL     1      32.301 -10.032 -22.080  0.00  0.00    +0.151 A 
ATOM      5  C   UNL     1      32.002  -9.661 -20.772  0.00  0.00    +0.110 A 
ATOM      6  C   UNL     1      31.976 -12.351 -21.494  0.00  0.00    +0.136 C 
ATOM      7  C   UNL     1      32.646  -7.778 -22.725  0.00  0.00    +0.182 A 
ATOM      8  C   UNL     1      31.688 -10.631 -19.818  0.00  0.00    +0.143 C 
ATOM      9  C   UNL     1      32.020  -8.233 -20.415  0.00  0.00    +0.238 A 
ATOM     10  C   UNL     1      31.676 -11.978 -20.183  0.00  0.00    +0.073 C 
ATOM     11  C   UNL     1      32.369  -7.288 -21.503  0.00  0.00    +0.208 A 
ENDROOT
BRANCH   7  12
ATOM     12  C   UNL     1      32.995  -6.912 -23.865  0.00  0.00    +0.038 C 
ATOM     13  C   UNL     1      32.053  -6.017 -24.378  0.00  0.00    +0.006 C 
ATOM     14  C   UNL     1      34.267  -6.984 -24.432  0.00  0.00    +0.006 C 
ATOM     15  C   UNL     1      32.384  -5.198 -25.456  0.00  0.00    +0.037 C 
ATOM     16  C   UNL     1      34.598  -6.164 -25.512  0.00  0.00    +0.037 C 
ATOM     17  C   UNL     1      33.657  -5.271 -26.024  0.00  0.00    +0.139 C 
BRANCH  17  18
ATOM     18  O   UNL     1      33.980  -4.471 -27.076  0.00  0.00    -0.471 OA
ATOM     19  C   UNL     1      33.082  -4.462 -28.185  0.00  0.00    +0.252 C 
ENDBRANCH  17  18
ENDBRANCH   7  12
BRANCH   6  20
ATOM     20  O   UNL     1      31.958 -13.672 -21.828  0.00  0.00    -0.506 OA
ATOM     21  H   UNL     1      32.157 -13.936 -22.705  0.00  0.00    +0.292 HD
ENDBRANCH   6  20
BRANCH   8  22
ATOM     22  O   UNL     1      31.387 -10.321 -18.525  0.00  0.00    -0.505 OA
ATOM     23  H   UNL     1      31.939  -9.738 -18.042  0.00  0.00    +0.292 HD
ENDBRANCH   8  22
BRANCH  11  24
ATOM     24  O   UNL     1      32.376  -5.940 -21.213  0.00  0.00    -0.501 OA
ATOM     25  H   UNL     1      31.701  -5.574 -20.677  0.00  0.00    +0.292 HD
ENDBRANCH  11  24
BRANCH   3  26
ATOM     26  C   UNL     1      32.608 -11.787 -23.847  0.00  0.00    +0.058 C 
BRANCH  26  27
ATOM     27  C   UNL     1      33.816 -11.075 -24.402  0.00  0.00    -0.030 C 
ATOM     28  C   UNL     1      34.376 -11.216 -25.619  0.00  0.00    -0.048 C 
ATOM     29  C   UNL     1      35.584 -10.471 -26.110  0.00  0.00    +0.026 C 
ATOM     30  C   UNL     1      33.799 -12.188 -26.615  0.00  0.00    +0.026 C 
ENDBRANCH  26  27
ENDBRANCH   3  26
TORSDOF 7
ENDMDL
MODEL 3
REMARK VINA RESULT:      -9.5      8.156     11.899
REMARK  Name = 5318980
REMARK  7 active torsions:
REMARK  status: ('A' for Active; 'I' for Inactive)
REMARK    1  A    between atoms: C_3  and  C_26
REMARK    2  A    between atoms: C_6  and  O_20
REMARK    3  A    between atoms: C_7  and  C_12
REMARK    4  A    between atoms: C_8  and  O_22
REMARK    5  A    between atoms: C_11  and  O_24
REMARK    6  A    between atoms: C_17  and  O_18
REMARK    7  A    between atoms: C_26  and  C_27
REMARK                            x       y       z     vdW  Elec       q    Type
REMARK                         _______ _______ _______ _____ _____    ______ ____
ROOT
ATOM      1  O   UNL     1      33.232 -22.733 -17.183  0.00  0.00    -0.450 OA
ATOM      2  O   UNL     1      36.405 -23.815 -14.866  0.00  0.00    -0.283 OA
ATOM      3  C   UNL     1      31.709 -23.747 -15.692  0.00  0.00    +0.051 C 
ATOM      4  C   UNL     1      33.028 -23.437 -16.024  0.00  0.00    +0.151 A 
ATOM      5  C   UNL     1      34.069 -23.838 -15.190  0.00  0.00    +0.110 A 
ATOM      6  C   UNL     1      31.437 -24.460 -14.524  0.00  0.00    +0.136 C 
ATOM      7  C   UNL     1      34.533 -22.418 -17.545  0.00  0.00    +0.182 A 
ATOM      8  C   UNL     1      33.801 -24.552 -14.020  0.00  0.00    +0.143 C 
ATOM      9  C   UNL     1      35.451 -23.494 -15.562  0.00  0.00    +0.238 A 
ATOM     10  C   UNL     1      32.481 -24.862 -13.690  0.00  0.00    +0.073 C 
ATOM     11  C   UNL     1      35.623 -22.738 -16.826  0.00  0.00    +0.208 A 
ENDROOT
BRANCH   7  12
ATOM     12  C   UNL     1      34.610 -21.663 -18.808  0.00  0.00    +0.038 C 
ATOM     13  C   UNL     1      33.441 -21.241 -19.444  0.00  0.00    +0.006 C 
ATOM     14  C   UNL     1      35.853 -21.367 -19.368  0.00  0.00    +0.006 C 
ATOM     15  C   UNL     1      33.516 -20.526 -20.638  0.00  0.00    +0.037 C 
ATOM     16  C   UNL     1      35.927 -20.651 -20.563  0.00  0.00    +0.037 C 
ATOM     17  C   UNL     1      34.759 -20.230 -21.199  0.00  0.00    +0.139 C 
BRANCH  17  18
ATOM     18  O   UNL     1      34.832 -19.532 -22.364  0.00  0.00    -0.471 OA
ATOM     19  C   UNL     1      35.748 -18.439 -22.411  0.00  0.00    +0.252 C 
ENDBRANCH  17  18
ENDBRANCH   7  12
BRANCH   6  20
ATOM     20  O   UNL     1      30.156 -24.774 -14.182  0.00  0.00    -0.506 OA
ATOM     21  H   UNL     1      29.457 -24.611 -14.784  0.00  0.00    +0.292 HD
ENDBRANCH   6  20
BRANCH   8  22
ATOM     22  O   UNL     1      34.782 -24.966 -13.171  0.00  0.00    -0.505 OA
ATOM     23  H   UNL     1      34.652 -25.726 -12.639  0.00  0.00    +0.292 HD
ENDBRANCH   8  22
BRANCH  11  24
ATOM     24  O   UNL     1      36.902 -22.381 -17.197  0.00  0.00    -0.501 OA
ATOM     25  H   UNL     1      37.335 -21.674 -16.761  0.00  0.00    +0.292 HD
ENDBRANCH  11  24
BRANCH   3  26
ATOM     26  C   UNL     1      30.584 -23.321 -16.581  0.00  0.00    +0.058 C 
BRANCH  26  27
ATOM     27  C   UNL     1      29.418 -22.747 -15.816  0.00  0.00    -0.030 C 
ATOM     28  C   UNL     1      28.129 -22.678 -16.197  0.00  0.00    -0.048 C 
ATOM     29  C   UNL     1      27.012 -22.092 -15.381  0.00  0.00    +0.026 C 
ATOM     30  C   UNL     1      27.703 -23.205 -17.542  0.00  0.00    +0.026 C 
ENDBRANCH  26  27
ENDBRANCH   3  26
TORSDOF 7
ENDMDL
MODEL 4
REMARK VINA RESULT:      -9.5      9.423     13.381
REMARK  Name = 5318980
REMARK  7 active torsions:
REMARK  status: ('A' for Active; 'I' for Inactive)
REMARK    1  A    between atoms: C_3  and  C_26
REMARK    2  A    between atoms: C_6  and  O_20
REMARK    3  A    between atoms: C_7  and  C_12
REMARK    4  A    between atoms: C_8  and  O_22
REMARK    5  A    between atoms: C_11  and  O_24
REMARK    6  A    between atoms: C_17  and  O_18
REMARK    7  A    between atoms: C_26  and  C_27
REMARK                            x       y       z     vdW  Elec       q    Type
REMARK                         _______ _______ _______ _____ _____    ______ ____
ROOT
ATOM      1  O   UNL     1      32.950 -23.165 -15.925  0.00  0.00    -0.450 OA
ATOM      2  O   UNL     1      34.094 -24.656 -12.308  0.00  0.00    -0.283 OA
ATOM      3  C   UNL     1      35.196 -22.893 -16.600  0.00  0.00    +0.051 C 
ATOM      4  C   UNL     1      34.282 -23.290 -15.623  0.00  0.00    +0.151 A 
ATOM      5  C   UNL     1      34.738 -23.790 -14.405  0.00  0.00    +0.110 A 
ATOM      6  C   UNL     1      36.565 -22.997 -16.354  0.00  0.00    +0.136 C 
ATOM      7  C   UNL     1      32.019 -23.542 -14.970  0.00  0.00    +0.182 A 
ATOM      8  C   UNL     1      36.108 -23.896 -14.154  0.00  0.00    +0.143 C 
ATOM      9  C   UNL     1      33.753 -24.205 -13.393  0.00  0.00    +0.238 A 
ATOM     10  C   UNL     1      37.020 -23.497 -15.133  0.00  0.00    +0.073 C 
ATOM     11  C   UNL     1      32.325 -24.046 -13.761  0.00  0.00    +0.208 A 
ENDROOT
BRANCH   7  12
ATOM     12  C   UNL     1      30.628 -23.358 -15.421  0.00  0.00    +0.038 C 
ATOM     13  C   UNL     1      29.926 -22.204 -15.069  0.00  0.00    +0.006 C 
ATOM     14  C   UNL     1      30.012 -24.338 -16.199  0.00  0.00    +0.006 C 
ATOM     15  C   UNL     1      28.610 -22.030 -15.496  0.00  0.00    +0.037 C 
ATOM     16  C   UNL     1      28.695 -24.163 -16.627  0.00  0.00    +0.037 C 
ATOM     17  C   UNL     1      27.994 -23.010 -16.276  0.00  0.00    +0.139 C 
BRANCH  17  18
ATOM     18  O   UNL     1      26.710 -22.840 -16.693  0.00  0.00    -0.471 OA
ATOM     19  C   UNL     1      26.410 -21.637 -17.399  0.00  0.00    +0.252 C 
ENDBRANCH  17  18
ENDBRANCH   7  12
BRANCH   6  20
ATOM     20  O   UNL     1      37.473 -22.614 -17.294  0.00  0.00    -0.506 OA
ATOM     21  H   UNL     1      37.644 -21.704 -17.437  0.00  0.00    +0.292 HD
ENDBRANCH   6  20
BRANCH   8  22
ATOM     22  O   UNL     1      36.605 -24.378 -12.981  0.00  0.00    -0.505 OA
ATOM     23  H   UNL     1      36.546 -25.293 -12.788  0.00  0.00    +0.292 HD
ENDBRANCH   8  22
BRANCH  11  24
ATOM     24  O   UNL     1      31.374 -24.443 -12.847  0.00  0.00    -0.501 OA
ATOM     25  H   UNL     1      31.631 -24.907 -12.075  0.00  0.00    +0.292 HD
ENDBRANCH  11  24
BRANCH   3  26
ATOM     26  C   UNL     1      34.716 -22.355 -17.911  0.00  0.00    +0.058 C 
BRANCH  26  27
ATOM     27  C   UNL     1      35.793 -21.627 -18.674  0.00  0.00    -0.030 C 
ATOM     28  C   UNL     1      35.649 -20.794 -19.722  0.00  0.00    -0.048 C 
ATOM     29  C   UNL     1      36.770 -20.098 -20.439  0.00  0.00    +0.026 C 
ATOM     30  C   UNL     1      34.280 -20.499 -20.278  0.00  0.00    +0.026 C 
ENDBRANCH  26  27
ENDBRANCH   3  26
TORSDOF 7
ENDMDL
MODEL 5
REMARK VINA RESULT:      -8.9      9.831     14.528
REMARK  Name = 5318980
REMARK  7 active torsions:
REMARK  status: ('A' for Active; 'I' for Inactive)
REMARK    1  A    between atoms: C_3  and  C_26
REMARK    2  A    between atoms: C_6  and  O_20
REMARK    3  A    between atoms: C_7  and  C_12
REMARK    4  A    between atoms: C_8  and  O_22
REMARK    5  A    between atoms: C_11  and  O_24
REMARK    6  A    between atoms: C_17  and  O_18
REMARK    7  A    between atoms: C_26  and  C_27
REMARK                            x       y       z     vdW  Elec       q    Type
REMARK                         _______ _______ _______ _____ _____    ______ ____
ROOT
ATOM      1  O   UNL     1      34.728 -23.890 -15.617  0.00  0.00    -0.450 OA
ATOM      2  O   UNL     1      31.659 -24.124 -12.946  0.00  0.00    -0.283 OA
ATOM      3  C   UNL     1      33.329 -22.906 -17.243  0.00  0.00    +0.051 C 
ATOM      4  C   UNL     1      33.480 -23.438 -15.963  0.00  0.00    +0.151 A 
ATOM      5  C   UNL     1      32.390 -23.492 -15.098  0.00  0.00    +0.110 A 
ATOM      6  C   UNL     1      32.084 -22.429 -17.654  0.00  0.00    +0.136 C 
ATOM      7  C   UNL     1      34.908 -24.433 -14.354  0.00  0.00    +0.182 A 
ATOM      8  C   UNL     1      31.142 -23.016 -15.505  0.00  0.00    +0.143 C 
ATOM      9  C   UNL     1      32.578 -24.056 -13.751  0.00  0.00    +0.238 A 
ATOM     10  C   UNL     1      30.993 -22.484 -16.787  0.00  0.00    +0.073 C 
ATOM     11  C   UNL     1      33.942 -24.536 -13.423  0.00  0.00    +0.208 A 
ENDROOT
BRANCH   7  12
ATOM     12  C   UNL     1      36.291 -24.877 -14.112  0.00  0.00    +0.038 C 
ATOM     13  C   UNL     1      36.794 -25.996 -14.779  0.00  0.00    +0.006 C 
ATOM     14  C   UNL     1      37.101 -24.180 -13.215  0.00  0.00    +0.006 C 
ATOM     15  C   UNL     1      38.104 -26.416 -14.549  0.00  0.00    +0.037 C 
ATOM     16  C   UNL     1      38.412 -24.599 -12.985  0.00  0.00    +0.037 C 
ATOM     17  C   UNL     1      38.913 -25.717 -13.652  0.00  0.00    +0.139 C 
BRANCH  17  18
ATOM     18  O   UNL     1      40.191 -26.126 -13.428  0.00  0.00    -0.471 OA
ATOM     19  C   UNL     1      40.966 -26.491 -14.569  0.00  0.00    +0.252 C 
ENDBRANCH  17  18
ENDBRANCH   7  12
BRANCH   6  20
ATOM     20  O   UNL     1      31.915 -21.906 -18.901  0.00  0.00    -0.506 OA
ATOM     21  H   UNL     1      31.759 -22.473 -19.630  0.00  0.00    +0.292 HD
ENDBRANCH   6  20
BRANCH   8  22
ATOM     22  O   UNL     1      30.045 -23.045 -14.697  0.00  0.00    -0.505 OA
ATOM     23  H   UNL     1      30.053 -23.557 -13.913  0.00  0.00    +0.292 HD
ENDBRANCH   8  22
BRANCH  11  24
ATOM     24  O   UNL     1      34.162 -25.052 -12.164  0.00  0.00    -0.501 OA
ATOM     25  H   UNL     1      35.038 -25.191 -11.862  0.00  0.00    +0.292 HD
ENDBRANCH  11  24
BRANCH   3  26
ATOM     26  C   UNL     1      34.494 -22.844 -18.180  0.00  0.00    +0.058 C 
BRANCH  26  27
ATOM     27  C   UNL     1      34.337 -21.782 -19.239  0.00  0.00    -0.030 C 
ATOM     28  C   UNL     1      35.301 -21.049 -19.828  0.00  0.00    -0.048 C 
ATOM     29  C   UNL     1      35.074 -20.004 -20.883  0.00  0.00    +0.026 C 
ATOM     30  C   UNL     1      36.744 -21.235 -19.440  0.00  0.00    +0.026 C 
ENDBRANCH  26  27
ENDBRANCH   3  26
TORSDOF 7
ENDMDL
MODEL 6
REMARK VINA RESULT:      -8.8      1.640      6.391
REMARK  Name = 5318980
REMARK  7 active torsions:
REMARK  status: ('A' for Active; 'I' for Inactive)
REMARK    1  A    between atoms: C_3  and  C_26
REMARK    2  A    between atoms: C_6  and  O_20
REMARK    3  A    between atoms: C_7  and  C_12
REMARK    4  A    between atoms: C_8  and  O_22
REMARK    5  A    between atoms: C_11  and  O_24
REMARK    6  A    between atoms: C_17  and  O_18
REMARK    7  A    between atoms: C_26  and  C_27
REMARK                            x       y       z     vdW  Elec       q    Type
REMARK                         _______ _______ _______ _____ _____    ______ ____
ROOT
ATOM      1  O   UNL     1      32.815 -12.503 -22.729  0.00  0.00    -0.450 OA
ATOM      2  O   UNL     1      33.744  -9.078 -24.732  0.00  0.00    -0.283 OA
ATOM      3  C   UNL     1      31.913 -11.283 -20.921  0.00  0.00    +0.051 C 
ATOM      4  C   UNL     1      32.528 -11.283 -22.173  0.00  0.00    +0.151 A 
ATOM      5  C   UNL     1      32.821 -10.077 -22.805  0.00  0.00    +0.110 A 
ATOM      6  C   UNL     1      31.594 -10.074 -20.304  0.00  0.00    +0.136 C 
ATOM      7  C   UNL     1      33.436 -12.535 -23.968  0.00  0.00    +0.182 A 
ATOM      8  C   UNL     1      32.504  -8.863 -22.191  0.00  0.00    +0.143 C 
ATOM      9  C   UNL     1      33.467 -10.105 -24.127  0.00  0.00    +0.238 A 
ATOM     10  C   UNL     1      31.889  -8.866 -20.938  0.00  0.00    +0.073 C 
ATOM     11  C   UNL     1      33.764 -11.446 -24.686  0.00  0.00    +0.208 A 
ENDROOT
BRANCH   7  12
ATOM     12  C   UNL     1      33.686 -13.905 -24.450  0.00  0.00    +0.038 C 
ATOM     13  C   UNL     1      34.522 -14.758 -23.727  0.00  0.00    +0.006 C 
ATOM     14  C   UNL     1      33.089 -14.351 -25.628  0.00  0.00    +0.006 C 
ATOM     15  C   UNL     1      34.759 -16.055 -24.183  0.00  0.00    +0.037 C 
ATOM     16  C   UNL     1      33.325 -15.648 -26.084  0.00  0.00    +0.037 C 
ATOM     17  C   UNL     1      34.160 -16.500 -25.362  0.00  0.00    +0.139 C 
BRANCH  17  18
ATOM     18  O   UNL     1      34.391 -17.765 -25.807  0.00  0.00    -0.471 OA
ATOM     19  C   UNL     1      34.436 -18.800 -24.826  0.00  0.00    +0.252 C 
ENDBRANCH  17  18
ENDBRANCH   7  12
BRANCH   6  20
ATOM     20  O   UNL     1      30.994 -10.052 -19.081  0.00  0.00    -0.506 OA
ATOM     21  H   UNL     1      31.156 -10.741 -18.467  0.00  0.00    +0.292 HD
ENDBRANCH   6  20
BRANCH   8  22
ATOM     22  O   UNL     1      32.769  -7.657 -22.766  0.00  0.00    -0.505 OA
ATOM     23  H   UNL     1      32.073  -7.152 -23.138  0.00  0.00    +0.292 HD
ENDBRANCH   8  22
BRANCH  11  24
ATOM     24  O   UNL     1      34.350 -11.513 -25.931  0.00  0.00    -0.501 OA
ATOM     25  H   UNL     1      35.280 -11.434 -26.016  0.00  0.00    +0.292 HD
ENDBRANCH  11  24
BRANCH   3  26
ATOM     26  C   UNL     1      31.594 -12.574 -20.235  0.00  0.00    +0.058 C 
BRANCH  26  27
ATOM     27  C   UNL     1      32.815 -13.423 -19.988  0.00  0.00    -0.030 C 
ATOM     28  C   UNL     1      33.045 -14.684 -20.399  0.00  0.00    -0.048 C 
ATOM     29  C   UNL     1      34.291 -15.475 -20.117  0.00  0.00    +0.026 C 
ATOM     30  C   UNL     1      32.009 -15.425 -21.202  0.00  0.00    +0.026 C 
ENDBRANCH  26  27
ENDBRANCH   3  26
TORSDOF 7
ENDMDL
MODEL 7
REMARK VINA RESULT:      -8.6      8.977     12.633
REMARK  Name = 5318980
REMARK  7 active torsions:
REMARK  status: ('A' for Active; 'I' for Inactive)
REMARK    1  A    between atoms: C_3  and  C_26
REMARK    2  A    between atoms: C_6  and  O_20
REMARK    3  A    between atoms: C_7  and  C_12
REMARK    4  A    between atoms: C_8  and  O_22
REMARK    5  A    between atoms: C_11  and  O_24
REMARK    6  A    between atoms: C_17  and  O_18
REMARK    7  A    between atoms: C_26  and  C_27
REMARK                            x       y       z     vdW  Elec       q    Type
REMARK                         _______ _______ _______ _____ _____    ______ ____
ROOT
ATOM      1  O   UNL     1      35.122 -22.773 -16.304  0.00  0.00    -0.450 OA
ATOM      2  O   UNL     1      31.378 -24.190 -15.539  0.00  0.00    -0.283 OA
ATOM      3  C   UNL     1      35.917 -23.553 -14.223  0.00  0.00    +0.051 C 
ATOM      4  C   UNL     1      34.859 -23.414 -15.121  0.00  0.00    +0.151 A 
ATOM      5  C   UNL     1      33.601 -23.919 -14.798  0.00  0.00    +0.110 A 
ATOM      6  C   UNL     1      35.713 -24.196 -13.002  0.00  0.00    +0.136 C 
ATOM      7  C   UNL     1      34.088 -22.612 -17.213  0.00  0.00    +0.182 A 
ATOM      8  C   UNL     1      33.392 -24.564 -13.577  0.00  0.00    +0.143 C 
ATOM      9  C   UNL     1      32.502 -23.762 -15.765  0.00  0.00    +0.238 A 
ATOM     10  C   UNL     1      34.452 -24.701 -12.680  0.00  0.00    +0.073 C 
ATOM     11  C   UNL     1      32.833 -23.058 -17.028  0.00  0.00    +0.208 A 
ENDROOT
BRANCH   7  12
ATOM     12  C   UNL     1      34.505 -21.909 -18.439  0.00  0.00    +0.038 C 
ATOM     13  C   UNL     1      33.547 -21.347 -19.284  0.00  0.00    +0.006 C 
ATOM     14  C   UNL     1      35.860 -21.806 -18.756  0.00  0.00    +0.006 C 
ATOM     15  C   UNL     1      33.942 -20.683 -20.444  0.00  0.00    +0.037 C 
ATOM     16  C   UNL     1      36.256 -21.140 -19.917  0.00  0.00    +0.037 C 
ATOM     17  C   UNL     1      35.298 -20.579 -20.761  0.00  0.00    +0.139 C 
BRANCH  17  18
ATOM     18  O   UNL     1      35.683 -19.930 -21.893  0.00  0.00    -0.471 OA
ATOM     19  C   UNL     1      34.696 -19.148 -22.563  0.00  0.00    +0.252 C 
ENDBRANCH  17  18
ENDBRANCH   7  12
BRANCH   6  20
ATOM     20  O   UNL     1      36.733 -24.341 -12.111  0.00  0.00    -0.506 OA
ATOM     21  H   UNL     1      36.546 -24.514 -11.209  0.00  0.00    +0.292 HD
ENDBRANCH   6  20
BRANCH   8  22
ATOM     22  O   UNL     1      32.182 -25.076 -13.214  0.00  0.00    -0.505 OA
ATOM     23  H   UNL     1      31.398 -24.756 -13.615  0.00  0.00    +0.292 HD
ENDBRANCH   8  22
BRANCH  11  24
ATOM     24  O   UNL     1      31.835 -22.910 -17.966  0.00  0.00    -0.501 OA
ATOM     25  H   UNL     1      32.036 -22.980 -18.878  0.00  0.00    +0.292 HD
ENDBRANCH  11  24
BRANCH   3  26
ATOM     26  C   UNL     1      37.271 -23.014 -14.560  0.00  0.00    +0.058 C 
BRANCH  26  27
ATOM     27  C   UNL     1      38.150 -24.028 -15.248  0.00  0.00    -0.030 C 
ATOM     28  C   UNL     1      39.094 -24.816 -14.698  0.00  0.00    -0.048 C 
ATOM     29  C   UNL     1      39.936 -25.810 -15.445  0.00  0.00    +0.026 C 
ATOM     30  C   UNL     1      39.385 -24.741 -13.223  0.00  0.00    +0.026 C 
ENDBRANCH  26  27
ENDBRANCH   3  26
TORSDOF 7
ENDMDL
MODEL 8
REMARK VINA RESULT:      -8.5      3.793     10.304
REMARK  Name = 5318980
REMARK  7 active torsions:
REMARK  status: ('A' for Active; 'I' for Inactive)
REMARK    1  A    between atoms: C_3  and  C_26
REMARK    2  A    between atoms: C_6  and  O_20
REMARK    3  A    between atoms: C_7  and  C_12
REMARK    4  A    between atoms: C_8  and  O_22
REMARK    5  A    between atoms: C_11  and  O_24
REMARK    6  A    between atoms: C_17  and  O_18
REMARK    7  A    between atoms: C_26  and  C_27
REMARK                            x       y       z     vdW  Elec       q    Type
REMARK                         _______ _______ _______ _____ _____    ______ ____
ROOT
ATOM      1  O   UNL     1      32.571  -6.794 -24.414  0.00  0.00    -0.450 OA
ATOM      2  O   UNL     1      30.737  -5.319 -21.087  0.00  0.00    -0.283 OA
ATOM      3  C   UNL     1      32.408  -4.711 -25.512  0.00  0.00    +0.051 C 
ATOM      4  C   UNL     1      32.162  -5.485 -24.378  0.00  0.00    +0.151 A 
ATOM      5  C   UNL     1      31.528  -4.922 -23.273  0.00  0.00    +0.110 A 
ATOM      6  C   UNL     1      32.016  -3.372 -25.536  0.00  0.00    +0.136 C 
ATOM      7  C   UNL     1      32.332  -7.592 -23.306  0.00  0.00    +0.182 A 
ATOM      8  C   UNL     1      31.135  -3.582 -23.293  0.00  0.00    +0.143 C 
ATOM      9  C   UNL     1      31.284  -5.760 -22.089  0.00  0.00    +0.238 A 
ATOM     10  C   UNL     1      31.381  -2.809 -24.429  0.00  0.00    +0.073 C 
ATOM     11  C   UNL     1      31.739  -7.169 -22.175  0.00  0.00    +0.208 A 
ENDROOT
BRANCH   7  12
ATOM     12  C   UNL     1      32.821  -8.971 -23.475  0.00  0.00    +0.038 C 
ATOM     13  C   UNL     1      34.020  -9.211 -24.149  0.00  0.00    +0.006 C 
ATOM     14  C   UNL     1      32.086 -10.040 -22.962  0.00  0.00    +0.006 C 
ATOM     15  C   UNL     1      34.482 -10.516 -24.309  0.00  0.00    +0.037 C 
ATOM     16  C   UNL     1      32.549 -11.347 -23.122  0.00  0.00    +0.037 C 
ATOM     17  C   UNL     1      33.746 -11.585 -23.795  0.00  0.00    +0.139 C 
BRANCH  17  18
ATOM     18  O   UNL     1      34.198 -12.859 -23.951  0.00  0.00    -0.471 OA
ATOM     19  C   UNL     1      33.804 -13.813 -22.965  0.00  0.00    +0.252 C 
ENDBRANCH  17  18
ENDBRANCH   7  12
BRANCH   6  20
ATOM     20  O   UNL     1      32.246  -2.598 -26.634  0.00  0.00    -0.506 OA
ATOM     21  H   UNL     1      32.863  -1.895 -26.590  0.00  0.00    +0.292 HD
ENDBRANCH   6  20
BRANCH   8  22
ATOM     22  O   UNL     1      30.513  -2.983 -22.239  0.00  0.00    -0.505 OA
ATOM     23  H   UNL     1      30.685  -2.083 -22.043  0.00  0.00    +0.292 HD
ENDBRANCH   8  22
BRANCH  11  24
ATOM     24  O   UNL     1      31.546  -7.980 -21.077  0.00  0.00    -0.501 OA
ATOM     25  H   UNL     1      30.915  -7.744 -20.427  0.00  0.00    +0.292 HD
ENDBRANCH  11  24
BRANCH   3  26
ATOM     26  C   UNL     1      33.088  -5.307 -26.703  0.00  0.00    +0.058 C 
BRANCH  26  27
ATOM     27  C   UNL     1      34.577  -5.071 -26.707  0.00  0.00    -0.030 C 
ATOM     28  C   UNL     1      35.324  -4.496 -27.668  0.00  0.00    -0.048 C 
ATOM     29  C   UNL     1      36.810  -4.290 -27.606  0.00  0.00    +0.026 C 
ATOM     30  C   UNL     1      34.682  -4.005 -28.939  0.00  0.00    +0.026 C 
ENDBRANCH  26  27
ENDBRANCH   3  26
TORSDOF 7
ENDMDL
MODEL 9
REMARK VINA RESULT:      -8.4      9.698     13.406
REMARK  Name = 5318980
REMARK  7 active torsions:
REMARK  status: ('A' for Active; 'I' for Inactive)
REMARK    1  A    between atoms: C_3  and  C_26
REMARK    2  A    between atoms: C_6  and  O_20
REMARK    3  A    between atoms: C_7  and  C_12
REMARK    4  A    between atoms: C_8  and  O_22
REMARK    5  A    between atoms: C_11  and  O_24
REMARK    6  A    between atoms: C_17  and  O_18
REMARK    7  A    between atoms: C_26  and  C_27
REMARK                            x       y       z     vdW  Elec       q    Type
REMARK                         _______ _______ _______ _____ _____    ______ ____
ROOT
ATOM      1  O   UNL     1      35.157 -23.355 -14.994  0.00  0.00    -0.450 OA
ATOM      2  O   UNL     1      39.206 -23.776 -15.190  0.00  0.00    -0.283 OA
ATOM      3  C   UNL     1      35.115 -24.131 -12.765  0.00  0.00    +0.051 C 
ATOM      4  C   UNL     1      35.853 -23.822 -13.908  0.00  0.00    +0.151 A 
ATOM      5  C   UNL     1      37.236 -23.991 -13.912  0.00  0.00    +0.110 A 
ATOM      6  C   UNL     1      35.766 -24.610 -11.628  0.00  0.00    +0.136 C 
ATOM      7  C   UNL     1      35.862 -23.049 -16.148  0.00  0.00    +0.182 A 
ATOM      8  C   UNL     1      37.891 -24.470 -12.775  0.00  0.00    +0.143 C 
ATOM      9  C   UNL     1      37.990 -23.654 -15.129  0.00  0.00    +0.238 A 
ATOM     10  C   UNL     1      37.151 -24.779 -11.632  0.00  0.00    +0.073 C 
ATOM     11  C   UNL     1      37.196 -23.158 -16.279  0.00  0.00    +0.208 A 
ENDROOT
BRANCH   7  12
ATOM     12  C   UNL     1      34.997 -22.558 -17.235  0.00  0.00    +0.038 C 
ATOM     13  C   UNL     1      35.545 -21.819 -18.285  0.00  0.00    +0.006 C 
ATOM     14  C   UNL     1      33.629 -22.832 -17.216  0.00  0.00    +0.006 C 
ATOM     15  C   UNL     1      34.726 -21.355 -19.314  0.00  0.00    +0.037 C 
ATOM     16  C   UNL     1      32.810 -22.368 -18.246  0.00  0.00    +0.037 C 
ATOM     17  C   UNL     1      33.357 -21.630 -19.294  0.00  0.00    +0.139 C 
BRANCH  17  18
ATOM     18  O   UNL     1      32.558 -21.177 -20.299  0.00  0.00    -0.471 OA
ATOM     19  C   UNL     1      32.860 -19.892 -20.840  0.00  0.00    +0.252 C 
ENDBRANCH  17  18
ENDBRANCH   7  12
BRANCH   6  20
ATOM     20  O   UNL     1      35.064 -24.919 -10.501  0.00  0.00    -0.506 OA
ATOM     21  H   UNL     1      35.312 -25.659  -9.983  0.00  0.00    +0.292 HD
ENDBRANCH   6  20
BRANCH   8  22
ATOM     22  O   UNL     1      39.240 -24.651 -12.726  0.00  0.00    -0.505 OA
ATOM     23  H   UNL     1      39.817 -23.953 -12.966  0.00  0.00    +0.292 HD
ENDBRANCH   8  22
BRANCH  11  24
ATOM     24  O   UNL     1      37.870 -22.812 -17.431  0.00  0.00    -0.501 OA
ATOM     25  H   UNL     1      38.637 -23.287 -17.684  0.00  0.00    +0.292 HD
ENDBRANCH  11  24
BRANCH   3  26
ATOM     26  C   UNL     1      33.630 -23.954 -12.752  0.00  0.00    +0.058 C 
BRANCH  26  27
ATOM     27  C   UNL     1      32.948 -24.641 -13.908  0.00  0.00    -0.030 C 
ATOM     28  C   UNL     1      31.668 -24.518 -14.308  0.00  0.00    -0.048 C 
ATOM     29  C   UNL     1      31.051 -25.235 -15.475  0.00  0.00    +0.026 C 
ATOM     30  C   UNL     1      30.722 -23.612 -13.566  0.00  0.00    +0.026 C 
ENDBRANCH  26  27
ENDBRANCH   3  26
TORSDOF 7
ENDMDL
