MODEL 1
REMARK VINA RESULT:     -10.6      0.000      0.000
REMARK  Name = 46937137
REMARK  13 active torsions:
REMARK  status: ('A' for Active; 'I' for Inactive)
REMARK    1  A    between atoms: C_1  and  C_2
REMARK    2  A    between atoms: C_1  and  C_23
REMARK    3  A    between atoms: C_1  and  N_24
REMARK    4  A    between atoms: C_5  and  C_8
REMARK    5  A    between atoms: C_11  and  S_14
REMARK    6  A    between atoms: S_14  and  N_17
REMARK    7  A    between atoms: N_24  and  C_27
REMARK    8  A    between atoms: C_27  and  C_30
REMARK    9  A    between atoms: C_27  and  C_38
REMARK   10  A    between atoms: N_29  and  C_32
REMARK   11  A    between atoms: C_32  and  C_33
REMARK   12  A    between atoms: C_33  and  N_34
REMARK   13  A    between atoms: C_38  and  C_39
REMARK                            x       y       z     vdW  Elec       q    Type
REMARK                         _______ _______ _______ _____ _____    ______ ____
ROOT
ATOM      1  C   UNL     1      33.675 -13.895 -24.227  0.00  0.00    +0.059 C 
ENDROOT
BRANCH   1   2
ATOM      2  C   UNL     1      33.761 -15.184 -23.432  0.00  0.00    -0.034 C 
ATOM      3  C   UNL     1      34.519 -16.251 -23.915  0.00  0.00    -0.006 C 
ATOM      4  C   UNL     1      33.083 -15.303 -22.219  0.00  0.00    -0.006 C 
ATOM      5  C   UNL     1      33.921 -17.556 -21.972  0.00  0.00    -0.000 C 
ATOM      6  C   UNL     1      34.600 -17.436 -23.185  0.00  0.00    -0.000 C 
ATOM      7  C   UNL     1      33.163 -16.488 -21.489  0.00  0.00    -0.000 C 
BRANCH   5   8
ATOM      8  C   UNL     1      34.004 -18.785 -21.215  0.00  0.00    +0.000 C 
ATOM      9  C   UNL     1      35.244 -19.381 -20.983  0.00  0.00    +0.001 C 
ATOM     10  C   UNL     1      32.843 -19.376 -20.716  0.00  0.00    +0.001 C 
ATOM     11  C   UNL     1      34.162 -21.159 -19.756  0.00  0.00    +0.122 C 
ATOM     12  C   UNL     1      35.323 -20.567 -20.254  0.00  0.00    +0.020 C 
ATOM     13  C   UNL     1      32.922 -20.563 -19.986  0.00  0.00    +0.020 C 
BRANCH  11  14
ATOM     14  S   UNL     1      34.261 -22.643 -18.843  0.00  0.00    +0.057 S 
ATOM     15  O   UNL     1      34.282 -23.758 -19.779  0.00  0.00    -0.153 OA
ATOM     16  O   UNL     1      35.323 -22.509 -17.856  0.00  0.00    -0.153 OA
BRANCH  14  17
ATOM     17  N   UNL     1      32.756 -22.630 -18.035  0.00  0.00    -0.203 NA
ATOM     18  H   UNL     1      32.064 -23.125 -18.597  0.00  0.00    +0.144 HD
ATOM     19  H   UNL     1      32.454 -21.665 -17.895  0.00  0.00    +0.144 HD
ENDBRANCH  14  17
ENDBRANCH  11  14
ENDBRANCH   5   8
ENDBRANCH   1   2
BRANCH   1  23
ATOM     20  F   UNL     1      32.067 -14.217 -25.936  0.00  0.00    -0.172 F 
ATOM     21  F   UNL     1      33.870 -13.118 -26.461  0.00  0.00    -0.172 F 
ATOM     22  F   UNL     1      33.959 -15.278 -26.158  0.00  0.00    -0.172 F 
ATOM     23  C   UNL     1      33.399 -14.136 -25.706  0.00  0.00    +0.384 C 
ENDBRANCH   1  23
BRANCH   1  24
ATOM     24  N   UNL     1      32.690 -12.984 -23.665  0.00  0.00    +0.400 N 
ATOM     25  H   UNL     1      31.938 -12.846 -24.341  0.00  0.00    -0.083 HD
ATOM     26  H   UNL     1      32.320 -13.390 -22.805  0.00  0.00    -0.083 HD
BRANCH  24  27
ATOM     27  C   UNL     1      33.301 -11.690 -23.352  0.00  0.00    +0.018 C 
BRANCH  27  30
ATOM     28  O   UNL     1      31.885  -9.817 -22.774  0.00  0.00    -0.277 OA
ATOM     29  N   UNL     1      31.837 -11.703 -21.421  0.00  0.00    -0.308 N 
ATOM     30  C   UNL     1      32.278 -10.949 -22.499  0.00  0.00    +0.202 C 
ATOM     31  H   UNL     1      32.218 -12.601 -21.289  0.00  0.00    +0.149 HD
BRANCH  29  32
ATOM     32  C   UNL     1      30.846 -11.230 -20.482  0.00  0.00    +0.066 C 
BRANCH  32  33
ATOM     33  C   UNL     1      31.470 -10.924 -19.129  0.00  0.00    -0.065 C 
BRANCH  33  34
ATOM     34  N   UNL     1      32.136  -9.628 -19.160  0.00  0.00    +0.382 N 
ATOM     35  H   UNL     1      31.542  -8.952 -19.638  0.00  0.00    -0.089 HD
ATOM     36  H   UNL     1      33.022  -9.713 -19.658  0.00  0.00    -0.089 HD
ATOM     37  H   UNL     1      32.311  -9.312 -18.206  0.00  0.00    -0.089 HD
ENDBRANCH  33  34
ENDBRANCH  32  33
ENDBRANCH  29  32
ENDBRANCH  27  30
BRANCH  27  38
ATOM     38  C   UNL     1      33.637 -10.937 -24.650  0.00  0.00    -0.012 C 
BRANCH  38  39
ATOM     39  C   UNL     1      35.016 -10.243 -24.648  0.00  0.00    -0.002 C 
ATOM     40  C   UNL     1      34.866  -8.797 -24.170  0.00  0.00    -0.000 C 
ATOM     41  C   UNL     1      35.683 -10.264 -26.025  0.00  0.00    -0.000 C 
ENDBRANCH  38  39
ENDBRANCH  27  38
ENDBRANCH  24  27
ENDBRANCH   1  24
TORSDOF 13
ENDMDL
MODEL 2
REMARK VINA RESULT:     -10.2      2.980      4.568
REMARK  Name = 46937137
REMARK  13 active torsions:
REMARK  status: ('A' for Active; 'I' for Inactive)
REMARK    1  A    between atoms: C_1  and  C_2
REMARK    2  A    between atoms: C_1  and  C_23
REMARK    3  A    between atoms: C_1  and  N_24
REMARK    4  A    between atoms: C_5  and  C_8
REMARK    5  A    between atoms: C_11  and  S_14
REMARK    6  A    between atoms: S_14  and  N_17
REMARK    7  A    between atoms: N_24  and  C_27
REMARK    8  A    between atoms: C_27  and  C_30
REMARK    9  A    between atoms: C_27  and  C_38
REMARK   10  A    between atoms: N_29  and  C_32
REMARK   11  A    between atoms: C_32  and  C_33
REMARK   12  A    between atoms: C_33  and  N_34
REMARK   13  A    between atoms: C_38  and  C_39
REMARK                            x       y       z     vdW  Elec       q    Type
REMARK                         _______ _______ _______ _____ _____    ______ ____
ROOT
ATOM      1  C   UNL     1      34.807 -18.122 -22.761  0.00  0.00    +0.059 C 
ENDROOT
BRANCH   1   2
ATOM      2  C   UNL     1      34.908 -19.100 -21.606  0.00  0.00    -0.034 C 
ATOM      3  C   UNL     1      36.150 -19.380 -21.036  0.00  0.00    -0.006 C 
ATOM      4  C   UNL     1      33.760 -19.719 -21.114  0.00  0.00    -0.006 C 
ATOM      5  C   UNL     1      35.095 -20.899 -19.481  0.00  0.00    -0.000 C 
ATOM      6  C   UNL     1      36.244 -20.278 -19.975  0.00  0.00    -0.000 C 
ATOM      7  C   UNL     1      33.852 -20.618 -20.052  0.00  0.00    -0.000 C 
BRANCH   5   8
ATOM      8  C   UNL     1      35.192 -21.831 -18.381  0.00  0.00    +0.000 C 
ATOM      9  C   UNL     1      36.362 -21.902 -17.626  0.00  0.00    +0.001 C 
ATOM     10  C   UNL     1      34.113 -22.662 -18.073  0.00  0.00    +0.001 C 
ATOM     11  C   UNL     1      35.378 -23.633 -16.257  0.00  0.00    +0.122 C 
ATOM     12  C   UNL     1      36.456 -22.802 -16.565  0.00  0.00    +0.020 C 
ATOM     13  C   UNL     1      34.207 -23.562 -17.011  0.00  0.00    +0.020 C 
BRANCH  11  14
ATOM     14  S   UNL     1      35.494 -24.759 -14.929  0.00  0.00    +0.057 S 
ATOM     15  O   UNL     1      35.771 -26.082 -15.471  0.00  0.00    -0.153 OA
ATOM     16  O   UNL     1      36.378 -24.194 -13.920  0.00  0.00    -0.153 OA
BRANCH  14  17
ATOM     17  N   UNL     1      33.893 -24.730 -14.335  0.00  0.00    -0.203 NA
ATOM     18  H   UNL     1      33.253 -24.500 -15.095  0.00  0.00    +0.144 HD
ATOM     19  H   UNL     1      33.816 -24.025 -13.601  0.00  0.00    +0.144 HD
ENDBRANCH  14  17
ENDBRANCH  11  14
ENDBRANCH   5   8
ENDBRANCH   1   2
BRANCH   1  23
ATOM     20  F   UNL     1      33.437 -18.971 -24.498  0.00  0.00    -0.172 F 
ATOM     21  F   UNL     1      35.344 -18.092 -25.073  0.00  0.00    -0.172 F 
ATOM     22  F   UNL     1      35.293 -20.045 -24.099  0.00  0.00    -0.172 F 
ATOM     23  C   UNL     1      34.727 -18.819 -24.114  0.00  0.00    +0.384 C 
ENDBRANCH   1  23
BRANCH   1  24
ATOM     24  N   UNL     1      33.691 -17.206 -22.591  0.00  0.00    +0.400 N 
ATOM     25  H   UNL     1      33.148 -17.177 -23.455  0.00  0.00    -0.083 HD
ATOM     26  H   UNL     1      33.110 -17.536 -21.821  0.00  0.00    -0.083 HD
BRANCH  24  27
ATOM     27  C   UNL     1      34.170 -15.858 -22.278  0.00  0.00    +0.018 C 
BRANCH  27  30
ATOM     28  O   UNL     1      31.985 -15.754 -21.246  0.00  0.00    -0.277 OA
ATOM     29  N   UNL     1      33.246 -13.809 -21.373  0.00  0.00    -0.308 N 
ATOM     30  C   UNL     1      33.005 -15.158 -21.588  0.00  0.00    +0.202 C 
ATOM     31  H   UNL     1      34.097 -13.428 -21.688  0.00  0.00    +0.149 HD
BRANCH  29  32
ATOM     32  C   UNL     1      32.303 -12.936 -20.710  0.00  0.00    +0.066 C 
BRANCH  32  33
ATOM     33  C   UNL     1      31.729 -11.910 -21.675  0.00  0.00    -0.065 C 
BRANCH  33  34
ATOM     34  N   UNL     1      30.370 -11.555 -21.286  0.00  0.00    +0.382 N 
ATOM     35  H   UNL     1      29.724 -11.824 -22.028  0.00  0.00    -0.089 HD
ATOM     36  H   UNL     1      30.312 -10.548 -21.134  0.00  0.00    -0.089 HD
ATOM     37  H   UNL     1      30.123 -12.045 -20.426  0.00  0.00    -0.089 HD
ENDBRANCH  33  34
ENDBRANCH  32  33
ENDBRANCH  29  32
ENDBRANCH  27  30
BRANCH  27  38
ATOM     38  C   UNL     1      34.606 -15.139 -23.565  0.00  0.00    -0.012 C 
BRANCH  38  39
ATOM     39  C   UNL     1      33.442 -14.712 -24.484  0.00  0.00    -0.002 C 
ATOM     40  C   UNL     1      33.506 -15.496 -25.797  0.00  0.00    -0.000 C 
ATOM     41  C   UNL     1      33.449 -13.211 -24.780  0.00  0.00    -0.000 C 
ENDBRANCH  38  39
ENDBRANCH  27  38
ENDBRANCH  24  27
ENDBRANCH   1  24
TORSDOF 13
ENDMDL
MODEL 3
REMARK VINA RESULT:     -10.1      3.261      4.893
REMARK  Name = 46937137
REMARK  13 active torsions:
REMARK  status: ('A' for Active; 'I' for Inactive)
REMARK    1  A    between atoms: C_1  and  C_2
REMARK    2  A    between atoms: C_1  and  C_23
REMARK    3  A    between atoms: C_1  and  N_24
REMARK    4  A    between atoms: C_5  and  C_8
REMARK    5  A    between atoms: C_11  and  S_14
REMARK    6  A    between atoms: S_14  and  N_17
REMARK    7  A    between atoms: N_24  and  C_27
REMARK    8  A    between atoms: C_27  and  C_30
REMARK    9  A    between atoms: C_27  and  C_38
REMARK   10  A    between atoms: N_29  and  C_32
REMARK   11  A    between atoms: C_32  and  C_33
REMARK   12  A    between atoms: C_33  and  N_34
REMARK   13  A    between atoms: C_38  and  C_39
REMARK                            x       y       z     vdW  Elec       q    Type
REMARK                         _______ _______ _______ _____ _____    ______ ____
ROOT
ATOM      1  C   UNL     1      35.014 -18.278 -23.010  0.00  0.00    +0.059 C 
ENDROOT
BRANCH   1   2
ATOM      2  C   UNL     1      35.029 -19.203 -21.808  0.00  0.00    -0.034 C 
ATOM      3  C   UNL     1      33.830 -19.707 -21.301  0.00  0.00    -0.006 C 
ATOM      4  C   UNL     1      36.239 -19.553 -21.211  0.00  0.00    -0.006 C 
ATOM      5  C   UNL     1      35.055 -20.908 -19.599  0.00  0.00    -0.000 C 
ATOM      6  C   UNL     1      33.843 -20.558 -20.198  0.00  0.00    -0.000 C 
ATOM      7  C   UNL     1      36.253 -20.404 -20.107  0.00  0.00    -0.000 C 
BRANCH   5   8
ATOM      8  C   UNL     1      35.068 -21.790 -18.454  0.00  0.00    +0.000 C 
ATOM      9  C   UNL     1      33.951 -22.573 -18.162  0.00  0.00    +0.001 C 
ATOM     10  C   UNL     1      36.199 -21.859 -17.639  0.00  0.00    +0.001 C 
ATOM     11  C   UNL     1      35.094 -23.492 -16.242  0.00  0.00    +0.122 C 
ATOM     12  C   UNL     1      33.964 -23.424 -17.057  0.00  0.00    +0.020 C 
ATOM     13  C   UNL     1      36.211 -22.710 -16.533  0.00  0.00    +0.020 C 
BRANCH  11  14
ATOM     14  S   UNL     1      35.111 -24.557 -14.859  0.00  0.00    +0.057 S 
ATOM     15  O   UNL     1      36.132 -24.090 -13.932  0.00  0.00    -0.153 OA
ATOM     16  O   UNL     1      33.742 -24.734 -14.396  0.00  0.00    -0.153 OA
BRANCH  14  17
ATOM     17  N   UNL     1      35.640 -26.014 -15.576  0.00  0.00    -0.203 NA
ATOM     18  H   UNL     1      35.411 -26.797 -14.963  0.00  0.00    +0.144 HD
ATOM     19  H   UNL     1      36.650 -25.977 -15.716  0.00  0.00    +0.144 HD
ENDBRANCH  14  17
ENDBRANCH  11  14
ENDBRANCH   5   8
ENDBRANCH   1   2
BRANCH   1  23
ATOM     20  F   UNL     1      35.154 -20.270 -24.284  0.00  0.00    -0.172 F 
ATOM     21  F   UNL     1      33.331 -19.096 -24.470  0.00  0.00    -0.172 F 
ATOM     22  F   UNL     1      35.180 -18.393 -25.394  0.00  0.00    -0.172 F 
ATOM     23  C   UNL     1      34.670 -19.005 -24.304  0.00  0.00    +0.384 C 
ENDBRANCH   1  23
BRANCH   1  24
ATOM     24  N   UNL     1      34.122 -17.149 -22.805  0.00  0.00    +0.400 N 
ATOM     25  H   UNL     1      33.555 -17.013 -23.643  0.00  0.00    -0.083 HD
ATOM     26  H   UNL     1      33.523 -17.344 -22.003  0.00  0.00    -0.083 HD
BRANCH  24  27
ATOM     27  C   UNL     1      34.886 -15.928 -22.537  0.00  0.00    +0.018 C 
BRANCH  27  30
ATOM     28  O   UNL     1      34.904 -15.409 -20.175  0.00  0.00    -0.277 OA
ATOM     29  N   UNL     1      33.071 -14.756 -21.440  0.00  0.00    -0.308 N 
ATOM     30  C   UNL     1      34.307 -15.355 -21.248  0.00  0.00    +0.202 C 
ATOM     31  H   UNL     1      32.677 -14.768 -22.342  0.00  0.00    +0.149 HD
BRANCH  29  32
ATOM     32  C   UNL     1      32.332 -14.116 -20.375  0.00  0.00    +0.066 C 
BRANCH  32  33
ATOM     33  C   UNL     1      32.241 -12.613 -20.593  0.00  0.00    -0.065 C 
BRANCH  33  34
ATOM     34  N   UNL     1      31.330 -12.316 -21.691  0.00  0.00    +0.382 N 
ATOM     35  H   UNL     1      30.842 -13.168 -21.967  0.00  0.00    -0.089 HD
ATOM     36  H   UNL     1      31.859 -11.956 -22.485  0.00  0.00    -0.089 HD
ATOM     37  H   UNL     1      30.650 -11.617 -21.390  0.00  0.00    -0.089 HD
ENDBRANCH  33  34
ENDBRANCH  32  33
ENDBRANCH  29  32
ENDBRANCH  27  30
BRANCH  27  38
ATOM     38  C   UNL     1      34.757 -14.954 -23.720  0.00  0.00    -0.012 C 
BRANCH  38  39
ATOM     39  C   UNL     1      33.421 -15.054 -24.488  0.00  0.00    -0.002 C 
ATOM     40  C   UNL     1      33.657 -15.709 -25.851  0.00  0.00    -0.000 C 
ATOM     41  C   UNL     1      32.753 -13.691 -24.681  0.00  0.00    -0.000 C 
ENDBRANCH  38  39
ENDBRANCH  27  38
ENDBRANCH  24  27
ENDBRANCH   1  24
TORSDOF 13
ENDMDL
MODEL 4
REMARK VINA RESULT:      -9.5      3.479      5.352
REMARK  Name = 46937137
REMARK  13 active torsions:
REMARK  status: ('A' for Active; 'I' for Inactive)
REMARK    1  A    between atoms: C_1  and  C_2
REMARK    2  A    between atoms: C_1  and  C_23
REMARK    3  A    between atoms: C_1  and  N_24
REMARK    4  A    between atoms: C_5  and  C_8
REMARK    5  A    between atoms: C_11  and  S_14
REMARK    6  A    between atoms: S_14  and  N_17
REMARK    7  A    between atoms: N_24  and  C_27
REMARK    8  A    between atoms: C_27  and  C_30
REMARK    9  A    between atoms: C_27  and  C_38
REMARK   10  A    between atoms: N_29  and  C_32
REMARK   11  A    between atoms: C_32  and  C_33
REMARK   12  A    between atoms: C_33  and  N_34
REMARK   13  A    between atoms: C_38  and  C_39
REMARK                            x       y       z     vdW  Elec       q    Type
REMARK                         _______ _______ _______ _____ _____    ______ ____
ROOT
ATOM      1  C   UNL     1      35.803 -18.132 -23.429  0.00  0.00    +0.059 C 
ENDROOT
BRANCH   1   2
ATOM      2  C   UNL     1      35.656 -19.020 -22.208  0.00  0.00    -0.034 C 
ATOM      3  C   UNL     1      36.751 -19.240 -21.371  0.00  0.00    -0.006 C 
ATOM      4  C   UNL     1      34.428 -19.614 -21.921  0.00  0.00    -0.006 C 
ATOM      5  C   UNL     1      35.387 -20.651 -19.961  0.00  0.00    -0.000 C 
ATOM      6  C   UNL     1      36.616 -20.055 -20.248  0.00  0.00    -0.000 C 
ATOM      7  C   UNL     1      34.293 -20.430 -20.798  0.00  0.00    -0.000 C 
BRANCH   5   8
ATOM      8  C   UNL     1      35.248 -21.497 -18.796  0.00  0.00    +0.000 C 
ATOM      9  C   UNL     1      36.308 -21.631 -17.899  0.00  0.00    +0.001 C 
ATOM     10  C   UNL     1      34.053 -22.181 -18.570  0.00  0.00    +0.001 C 
ATOM     11  C   UNL     1      34.979 -23.132 -16.550  0.00  0.00    +0.122 C 
ATOM     12  C   UNL     1      36.173 -22.447 -16.777  0.00  0.00    +0.020 C 
ATOM     13  C   UNL     1      33.919 -22.998 -17.447  0.00  0.00    +0.020 C 
BRANCH  11  14
ATOM     14  S   UNL     1      34.810 -24.154 -15.146  0.00  0.00    +0.057 S 
ATOM     15  O   UNL     1      33.396 -24.245 -14.810  0.00  0.00    -0.153 OA
ATOM     16  O   UNL     1      35.580 -25.371 -15.365  0.00  0.00    -0.153 OA
BRANCH  14  17
ATOM     17  N   UNL     1      35.600 -23.211 -13.960  0.00  0.00    -0.203 NA
ATOM     18  H   UNL     1      36.123 -23.823 -13.333  0.00  0.00    +0.144 HD
ATOM     19  H   UNL     1      34.906 -22.689 -13.424  0.00  0.00    +0.144 HD
ENDBRANCH  14  17
ENDBRANCH  11  14
ENDBRANCH   5   8
ENDBRANCH   1   2
BRANCH   1  23
ATOM     20  F   UNL     1      34.838 -17.518 -25.504  0.00  0.00    -0.172 F 
ATOM     21  F   UNL     1      34.827 -19.633 -24.988  0.00  0.00    -0.172 F 
ATOM     22  F   UNL     1      33.475 -18.254 -23.969  0.00  0.00    -0.172 F 
ATOM     23  C   UNL     1      34.721 -18.387 -24.472  0.00  0.00    +0.384 C 
ENDBRANCH   1  23
BRANCH   1  24
ATOM     24  N   UNL     1      35.842 -16.724 -23.066  0.00  0.00    +0.400 N 
ATOM     25  H   UNL     1      36.565 -16.580 -22.361  0.00  0.00    -0.083 HD
ATOM     26  H   UNL     1      36.048 -16.175 -23.900  0.00  0.00    -0.083 HD
BRANCH  24  27
ATOM     27  C   UNL     1      34.550 -16.294 -22.525  0.00  0.00    +0.018 C 
BRANCH  27  30
ATOM     28  O   UNL     1      34.752 -13.916 -22.914  0.00  0.00    -0.277 OA
ATOM     29  N   UNL     1      33.314 -15.142 -24.262  0.00  0.00    -0.308 N 
ATOM     30  C   UNL     1      34.226 -14.981 -23.230  0.00  0.00    +0.202 C 
ATOM     31  H   UNL     1      32.951 -16.041 -24.433  0.00  0.00    +0.149 HD
BRANCH  29  32
ATOM     32  C   UNL     1      32.870 -14.050 -25.098  0.00  0.00    +0.066 C 
BRANCH  32  33
ATOM     33  C   UNL     1      32.713 -14.492 -26.545  0.00  0.00    -0.065 C 
BRANCH  33  34
ATOM     34  N   UNL     1      33.570 -13.694 -27.413  0.00  0.00    +0.382 N 
ATOM     35  H   UNL     1      34.411 -14.224 -27.639  0.00  0.00    -0.089 HD
ATOM     36  H   UNL     1      33.830 -12.832 -26.935  0.00  0.00    -0.089 HD
ATOM     37  H   UNL     1      33.068 -13.469 -28.273  0.00  0.00    -0.089 HD
ENDBRANCH  33  34
ENDBRANCH  32  33
ENDBRANCH  29  32
ENDBRANCH  27  30
BRANCH  27  38
ATOM     38  C   UNL     1      34.644 -16.132 -20.999  0.00  0.00    -0.012 C 
BRANCH  38  39
ATOM     39  C   UNL     1      33.289 -15.900 -20.296  0.00  0.00    -0.002 C 
ATOM     40  C   UNL     1      32.217 -16.786 -20.936  0.00  0.00    -0.000 C 
ATOM     41  C   UNL     1      32.845 -14.437 -20.347  0.00  0.00    -0.000 C 
ENDBRANCH  38  39
ENDBRANCH  27  38
ENDBRANCH  24  27
ENDBRANCH   1  24
TORSDOF 13
ENDMDL
MODEL 5
REMARK VINA RESULT:      -9.3      6.089     11.868
REMARK  Name = 46937137
REMARK  13 active torsions:
REMARK  status: ('A' for Active; 'I' for Inactive)
REMARK    1  A    between atoms: C_1  and  C_2
REMARK    2  A    between atoms: C_1  and  C_23
REMARK    3  A    between atoms: C_1  and  N_24
REMARK    4  A    between atoms: C_5  and  C_8
REMARK    5  A    between atoms: C_11  and  S_14
REMARK    6  A    between atoms: S_14  and  N_17
REMARK    7  A    between atoms: N_24  and  C_27
REMARK    8  A    between atoms: C_27  and  C_30
REMARK    9  A    between atoms: C_27  and  C_38
REMARK   10  A    between atoms: N_29  and  C_32
REMARK   11  A    between atoms: C_32  and  C_33
REMARK   12  A    between atoms: C_33  and  N_34
REMARK   13  A    between atoms: C_38  and  C_39
REMARK                            x       y       z     vdW  Elec       q    Type
REMARK                         _______ _______ _______ _____ _____    ______ ____
ROOT
ATOM      1  C   UNL     1      36.112 -22.584 -17.008  0.00  0.00    +0.059 C 
ENDROOT
BRANCH   1   2
ATOM      2  C   UNL     1      35.829 -21.721 -18.223  0.00  0.00    -0.034 C 
ATOM      3  C   UNL     1      36.852 -20.964 -18.793  0.00  0.00    -0.006 C 
ATOM      4  C   UNL     1      34.547 -21.686 -18.770  0.00  0.00    -0.006 C 
ATOM      5  C   UNL     1      35.310 -20.135 -20.459  0.00  0.00    -0.000 C 
ATOM      6  C   UNL     1      36.593 -20.172 -19.911  0.00  0.00    -0.000 C 
ATOM      7  C   UNL     1      34.287 -20.893 -19.887  0.00  0.00    -0.000 C 
BRANCH   5   8
ATOM      8  C   UNL     1      35.041 -19.313 -21.617  0.00  0.00    +0.000 C 
ATOM      9  C   UNL     1      34.857 -17.938 -21.470  0.00  0.00    +0.001 C 
ATOM     10  C   UNL     1      34.965 -19.895 -22.883  0.00  0.00    +0.001 C 
ATOM     11  C   UNL     1      34.521 -17.727 -23.854  0.00  0.00    +0.122 C 
ATOM     12  C   UNL     1      34.598 -17.145 -22.588  0.00  0.00    +0.020 C 
ATOM     13  C   UNL     1      34.705 -19.101 -24.001  0.00  0.00    +0.020 C 
BRANCH  11  14
ATOM     14  S   UNL     1      34.196 -16.735 -25.252  0.00  0.00    +0.057 S 
ATOM     15  O   UNL     1      35.456 -16.469 -25.931  0.00  0.00    -0.153 OA
ATOM     16  O   UNL     1      33.088 -17.326 -25.991  0.00  0.00    -0.153 OA
BRANCH  14  17
ATOM     17  N   UNL     1      33.654 -15.294 -24.511  0.00  0.00    -0.203 NA
ATOM     18  H   UNL     1      34.236 -15.090 -23.699  0.00  0.00    +0.144 HD
ATOM     19  H   UNL     1      32.684 -15.409 -24.214  0.00  0.00    +0.144 HD
ENDBRANCH  14  17
ENDBRANCH  11  14
ENDBRANCH   5   8
ENDBRANCH   1   2
BRANCH   1  23
ATOM     20  F   UNL     1      37.214 -22.120 -14.962  0.00  0.00    -0.172 F 
ATOM     21  F   UNL     1      38.372 -23.115 -16.514  0.00  0.00    -0.172 F 
ATOM     22  F   UNL     1      37.878 -20.998 -16.711  0.00  0.00    -0.172 F 
ATOM     23  C   UNL     1      37.405 -22.194 -16.301  0.00  0.00    +0.384 C 
ENDBRANCH   1  23
BRANCH   1  24
ATOM     24  N   UNL     1      34.997 -22.577 -16.074  0.00  0.00    +0.400 N 
ATOM     25  H   UNL     1      35.318 -22.221 -15.173  0.00  0.00    -0.083 HD
ATOM     26  H   UNL     1      34.260 -21.979 -16.447  0.00  0.00    -0.083 HD
BRANCH  24  27
ATOM     27  C   UNL     1      34.463 -23.929 -15.896  0.00  0.00    +0.018 C 
BRANCH  27  30
ATOM     28  O   UNL     1      32.327 -23.441 -16.919  0.00  0.00    -0.277 OA
ATOM     29  N   UNL     1      32.367 -24.086 -14.690  0.00  0.00    -0.308 N 
ATOM     30  C   UNL     1      32.946 -23.777 -15.912  0.00  0.00    +0.202 C 
ATOM     31  H   UNL     1      32.954 -24.343 -13.943  0.00  0.00    +0.149 HD
BRANCH  29  32
ATOM     32  C   UNL     1      30.941 -24.045 -14.462  0.00  0.00    +0.066 C 
BRANCH  32  33
ATOM     33  C   UNL     1      30.291 -25.380 -14.791  0.00  0.00    -0.065 C 
BRANCH  33  34
ATOM     34  N   UNL     1      28.888 -25.371 -14.396  0.00  0.00    +0.382 N 
ATOM     35  H   UNL     1      28.494 -26.303 -14.524  0.00  0.00    -0.089 HD
ATOM     36  H   UNL     1      28.377 -24.704 -14.973  0.00  0.00    -0.089 HD
ATOM     37  H   UNL     1      28.812 -25.101 -13.415  0.00  0.00    -0.089 HD
ENDBRANCH  33  34
ENDBRANCH  32  33
ENDBRANCH  29  32
ENDBRANCH  27  30
BRANCH  27  38
ATOM     38  C   UNL     1      34.977 -24.531 -14.578  0.00  0.00    -0.012 C 
BRANCH  38  39
ATOM     39  C   UNL     1      36.386 -25.154 -14.665  0.00  0.00    -0.002 C 
ATOM     40  C   UNL     1      36.307 -26.514 -15.363  0.00  0.00    -0.000 C 
ATOM     41  C   UNL     1      37.042 -25.316 -13.292  0.00  0.00    -0.000 C 
ENDBRANCH  38  39
ENDBRANCH  27  38
ENDBRANCH  24  27
ENDBRANCH   1  24
TORSDOF 13
ENDMDL
MODEL 6
REMARK VINA RESULT:      -9.3      4.026      9.833
REMARK  Name = 46937137
REMARK  13 active torsions:
REMARK  status: ('A' for Active; 'I' for Inactive)
REMARK    1  A    between atoms: C_1  and  C_2
REMARK    2  A    between atoms: C_1  and  C_23
REMARK    3  A    between atoms: C_1  and  N_24
REMARK    4  A    between atoms: C_5  and  C_8
REMARK    5  A    between atoms: C_11  and  S_14
REMARK    6  A    between atoms: S_14  and  N_17
REMARK    7  A    between atoms: N_24  and  C_27
REMARK    8  A    between atoms: C_27  and  C_30
REMARK    9  A    between atoms: C_27  and  C_38
REMARK   10  A    between atoms: N_29  and  C_32
REMARK   11  A    between atoms: C_32  and  C_33
REMARK   12  A    between atoms: C_33  and  N_34
REMARK   13  A    between atoms: C_38  and  C_39
REMARK                            x       y       z     vdW  Elec       q    Type
REMARK                         _______ _______ _______ _____ _____    ______ ____
ROOT
ATOM      1  C   UNL     1      34.420 -17.540 -23.454  0.00  0.00    +0.059 C 
ENDROOT
BRANCH   1   2
ATOM      2  C   UNL     1      34.158 -16.046 -23.457  0.00  0.00    -0.034 C 
ATOM      3  C   UNL     1      33.575 -15.443 -24.571  0.00  0.00    -0.006 C 
ATOM      4  C   UNL     1      34.497 -15.276 -22.345  0.00  0.00    -0.006 C 
ATOM      5  C   UNL     1      33.672 -13.299 -23.462  0.00  0.00    -0.000 C 
ATOM      6  C   UNL     1      33.332 -14.071 -24.575  0.00  0.00    -0.000 C 
ATOM      7  C   UNL     1      34.256 -13.903 -22.348  0.00  0.00    -0.000 C 
BRANCH   5   8
ATOM      8  C   UNL     1      33.422 -11.875 -23.466  0.00  0.00    +0.000 C 
ATOM      9  C   UNL     1      32.369 -11.349 -22.717  0.00  0.00    +0.001 C 
ATOM     10  C   UNL     1      34.233 -11.025 -24.219  0.00  0.00    +0.001 C 
ATOM     11  C   UNL     1      32.938  -9.126 -23.475  0.00  0.00    +0.122 C 
ATOM     12  C   UNL     1      32.128  -9.976 -22.721  0.00  0.00    +0.020 C 
ATOM     13  C   UNL     1      33.991  -9.651 -24.223  0.00  0.00    +0.020 C 
BRANCH  11  14
ATOM     14  S   UNL     1      32.636  -7.407 -23.480  0.00  0.00    +0.057 S 
ATOM     15  O   UNL     1      32.486  -6.962 -22.101  0.00  0.00    -0.153 OA
ATOM     16  O   UNL     1      33.620  -6.767 -24.342  0.00  0.00    -0.153 OA
BRANCH  14  17
ATOM     17  N   UNL     1      31.112  -7.347 -24.249  0.00  0.00    -0.203 NA
ATOM     18  H   UNL     1      30.564  -6.580 -23.858  0.00  0.00    +0.144 HD
ATOM     19  H   UNL     1      30.619  -8.227 -24.096  0.00  0.00    +0.144 HD
ENDBRANCH  14  17
ENDBRANCH  11  14
ENDBRANCH   5   8
ENDBRANCH   1   2
BRANCH   1  23
ATOM     20  F   UNL     1      35.320 -19.268 -24.803  0.00  0.00    -0.172 F 
ATOM     21  F   UNL     1      33.458 -18.355 -25.465  0.00  0.00    -0.172 F 
ATOM     22  F   UNL     1      35.336 -17.257 -25.646  0.00  0.00    -0.172 F 
ATOM     23  C   UNL     1      34.638 -18.099 -24.855  0.00  0.00    +0.384 C 
ENDBRANCH   1  23
BRANCH   1  24
ATOM     24  N   UNL     1      35.535 -17.886 -22.587  0.00  0.00    +0.400 N 
ATOM     25  H   UNL     1      36.215 -18.432 -23.118  0.00  0.00    -0.083 HD
ATOM     26  H   UNL     1      35.963 -17.027 -22.243  0.00  0.00    -0.083 HD
BRANCH  24  27
ATOM     27  C   UNL     1      35.074 -18.675 -21.442  0.00  0.00    +0.018 C 
BRANCH  27  30
ATOM     28  O   UNL     1      37.456 -19.008 -21.185  0.00  0.00    -0.277 OA
ATOM     29  N   UNL     1      36.009 -20.402 -20.022  0.00  0.00    -0.308 N 
ATOM     30  C   UNL     1      36.317 -19.367 -20.892  0.00  0.00    +0.202 C 
ATOM     31  H   UNL     1      35.062 -20.610 -19.855  0.00  0.00    +0.149 HD
BRANCH  29  32
ATOM     32  C   UNL     1      37.017 -21.190 -19.350  0.00  0.00    +0.066 C 
BRANCH  32  33
ATOM     33  C   UNL     1      36.540 -21.637 -17.976  0.00  0.00    -0.065 C 
BRANCH  33  34
ATOM     34  N   UNL     1      37.228 -20.885 -16.933  0.00  0.00    +0.382 N 
ATOM     35  H   UNL     1      37.584 -20.013 -17.323  0.00  0.00    -0.089 HD
ATOM     36  H   UNL     1      38.005 -21.438 -16.571  0.00  0.00    -0.089 HD
ATOM     37  H   UNL     1      36.575 -20.678 -16.176  0.00  0.00    -0.089 HD
ENDBRANCH  33  34
ENDBRANCH  32  33
ENDBRANCH  29  32
ENDBRANCH  27  30
BRANCH  27  38
ATOM     38  C   UNL     1      33.997 -19.677 -21.889  0.00  0.00    -0.012 C 
BRANCH  38  39
ATOM     39  C   UNL     1      32.718 -19.669 -21.025  0.00  0.00    -0.002 C 
ATOM     40  C   UNL     1      32.433 -18.247 -20.536  0.00  0.00    -0.000 C 
ATOM     41  C   UNL     1      32.816 -20.615 -19.826  0.00  0.00    -0.000 C 
ENDBRANCH  38  39
ENDBRANCH  27  38
ENDBRANCH  24  27
ENDBRANCH   1  24
TORSDOF 13
ENDMDL
MODEL 7
REMARK VINA RESULT:      -9.3      6.067     11.849
REMARK  Name = 46937137
REMARK  13 active torsions:
REMARK  status: ('A' for Active; 'I' for Inactive)
REMARK    1  A    between atoms: C_1  and  C_2
REMARK    2  A    between atoms: C_1  and  C_23
REMARK    3  A    between atoms: C_1  and  N_24
REMARK    4  A    between atoms: C_5  and  C_8
REMARK    5  A    between atoms: C_11  and  S_14
REMARK    6  A    between atoms: S_14  and  N_17
REMARK    7  A    between atoms: N_24  and  C_27
REMARK    8  A    between atoms: C_27  and  C_30
REMARK    9  A    between atoms: C_27  and  C_38
REMARK   10  A    between atoms: N_29  and  C_32
REMARK   11  A    between atoms: C_32  and  C_33
REMARK   12  A    between atoms: C_33  and  N_34
REMARK   13  A    between atoms: C_38  and  C_39
REMARK                            x       y       z     vdW  Elec       q    Type
REMARK                         _______ _______ _______ _____ _____    ______ ____
ROOT
ATOM      1  C   UNL     1      36.164 -22.554 -17.030  0.00  0.00    +0.059 C 
ENDROOT
BRANCH   1   2
ATOM      2  C   UNL     1      35.874 -21.690 -18.243  0.00  0.00    -0.034 C 
ATOM      3  C   UNL     1      34.597 -21.681 -18.804  0.00  0.00    -0.006 C 
ATOM      4  C   UNL     1      36.884 -20.904 -18.796  0.00  0.00    -0.006 C 
ATOM      5  C   UNL     1      35.340 -20.100 -20.472  0.00  0.00    -0.000 C 
ATOM      6  C   UNL     1      34.330 -20.887 -19.917  0.00  0.00    -0.000 C 
ATOM      7  C   UNL     1      36.618 -20.109 -19.910  0.00  0.00    -0.000 C 
BRANCH   5   8
ATOM      8  C   UNL     1      35.063 -19.276 -21.628  0.00  0.00    +0.000 C 
ATOM      9  C   UNL     1      34.903 -19.864 -22.882  0.00  0.00    +0.001 C 
ATOM     10  C   UNL     1      34.957 -17.892 -21.488  0.00  0.00    +0.001 C 
ATOM     11  C   UNL     1      34.531 -17.685 -23.858  0.00  0.00    +0.122 C 
ATOM     12  C   UNL     1      34.637 -19.069 -23.997  0.00  0.00    +0.020 C 
ATOM     13  C   UNL     1      34.690 -17.097 -22.604  0.00  0.00    +0.020 C 
BRANCH  11  14
ATOM     14  S   UNL     1      34.198 -16.690 -25.252  0.00  0.00    +0.057 S 
ATOM     15  O   UNL     1      35.461 -16.371 -25.902  0.00  0.00    -0.153 OA
ATOM     16  O   UNL     1      33.128 -17.314 -26.020  0.00  0.00    -0.153 OA
BRANCH  14  17
ATOM     17  N   UNL     1      33.587 -15.279 -24.508  0.00  0.00    -0.203 NA
ATOM     18  H   UNL     1      32.639 -15.453 -24.176  0.00  0.00    +0.144 HD
ATOM     19  H   UNL     1      33.575 -14.516 -25.185  0.00  0.00    +0.144 HD
ENDBRANCH  14  17
ENDBRANCH  11  14
ENDBRANCH   5   8
ENDBRANCH   1   2
BRANCH   1  23
ATOM     20  F   UNL     1      37.837 -20.910 -16.700  0.00  0.00    -0.172 F 
ATOM     21  F   UNL     1      37.267 -22.109 -14.975  0.00  0.00    -0.172 F 
ATOM     22  F   UNL     1      38.470 -22.992 -16.568  0.00  0.00    -0.172 F 
ATOM     23  C   UNL     1      37.447 -22.149 -16.315  0.00  0.00    +0.384 C 
ENDBRANCH   1  23
BRANCH   1  24
ATOM     24  N   UNL     1      35.044 -22.568 -16.103  0.00  0.00    +0.400 N 
ATOM     25  H   UNL     1      35.364 -22.248 -15.188  0.00  0.00    -0.083 HD
ATOM     26  H   UNL     1      34.316 -21.949 -16.458  0.00  0.00    -0.083 HD
BRANCH  24  27
ATOM     27  C   UNL     1      34.495 -23.920 -15.975  0.00  0.00    +0.018 C 
BRANCH  27  30
ATOM     28  O   UNL     1      32.329 -23.346 -16.887  0.00  0.00    -0.277 OA
ATOM     29  N   UNL     1      32.444 -24.109 -14.698  0.00  0.00    -0.308 N 
ATOM     30  C   UNL     1      32.981 -23.744 -15.923  0.00  0.00    +0.202 C 
ATOM     31  H   UNL     1      33.055 -24.415 -13.989  0.00  0.00    +0.149 HD
BRANCH  29  32
ATOM     32  C   UNL     1      31.028 -24.060 -14.412  0.00  0.00    +0.066 C 
BRANCH  32  33
ATOM     33  C   UNL     1      30.350 -25.377 -14.757  0.00  0.00    -0.065 C 
BRANCH  33  34
ATOM     34  N   UNL     1      28.938 -25.329 -14.395  0.00  0.00    +0.382 N 
ATOM     35  H   UNL     1      28.792 -24.602 -13.695  0.00  0.00    -0.089 HD
ATOM     36  H   UNL     1      28.654 -26.230 -14.014  0.00  0.00    -0.089 HD
ATOM     37  H   UNL     1      28.382 -25.119 -15.225  0.00  0.00    -0.089 HD
ENDBRANCH  33  34
ENDBRANCH  32  33
ENDBRANCH  29  32
ENDBRANCH  27  30
BRANCH  27  38
ATOM     38  C   UNL     1      35.049 -24.598 -14.711  0.00  0.00    -0.012 C 
BRANCH  38  39
ATOM     39  C   UNL     1      36.475 -25.167 -14.864  0.00  0.00    -0.002 C 
ATOM     40  C   UNL     1      36.402 -26.633 -15.299  0.00  0.00    -0.000 C 
ATOM     41  C   UNL     1      37.292 -25.053 -13.575  0.00  0.00    -0.000 C 
ENDBRANCH  38  39
ENDBRANCH  27  38
ENDBRANCH  24  27
ENDBRANCH   1  24
TORSDOF 13
ENDMDL
MODEL 8
REMARK VINA RESULT:      -9.1      5.888     11.830
REMARK  Name = 46937137
REMARK  13 active torsions:
REMARK  status: ('A' for Active; 'I' for Inactive)
REMARK    1  A    between atoms: C_1  and  C_2
REMARK    2  A    between atoms: C_1  and  C_23
REMARK    3  A    between atoms: C_1  and  N_24
REMARK    4  A    between atoms: C_5  and  C_8
REMARK    5  A    between atoms: C_11  and  S_14
REMARK    6  A    between atoms: S_14  and  N_17
REMARK    7  A    between atoms: N_24  and  C_27
REMARK    8  A    between atoms: C_27  and  C_30
REMARK    9  A    between atoms: C_27  and  C_38
REMARK   10  A    between atoms: N_29  and  C_32
REMARK   11  A    between atoms: C_32  and  C_33
REMARK   12  A    between atoms: C_33  and  N_34
REMARK   13  A    between atoms: C_38  and  C_39
REMARK                            x       y       z     vdW  Elec       q    Type
REMARK                         _______ _______ _______ _____ _____    ______ ____
ROOT
ATOM      1  C   UNL     1      32.291 -11.328 -21.697  0.00  0.00    +0.059 C 
ENDROOT
BRANCH   1   2
ATOM      2  C   UNL     1      32.275 -10.022 -22.468  0.00  0.00    -0.034 C 
ATOM      3  C   UNL     1      33.437  -9.566 -23.090  0.00  0.00    -0.006 C 
ATOM      4  C   UNL     1      31.099  -9.279 -22.557  0.00  0.00    -0.006 C 
ATOM      5  C   UNL     1      32.247  -7.621 -23.889  0.00  0.00    -0.000 C 
ATOM      6  C   UNL     1      33.424  -8.366 -23.800  0.00  0.00    -0.000 C 
ATOM      7  C   UNL     1      31.085  -8.078 -23.266  0.00  0.00    -0.000 C 
BRANCH   5   8
ATOM      8  C   UNL     1      32.232  -6.376 -24.625  0.00  0.00    +0.000 C 
ATOM      9  C   UNL     1      31.142  -5.514 -24.517  0.00  0.00    +0.001 C 
ATOM     10  C   UNL     1      33.310  -6.038 -25.444  0.00  0.00    +0.001 C 
ATOM     11  C   UNL     1      32.205  -3.975 -26.046  0.00  0.00    +0.122 C 
ATOM     12  C   UNL     1      31.128  -4.313 -25.226  0.00  0.00    +0.020 C 
ATOM     13  C   UNL     1      33.296  -4.837 -26.154  0.00  0.00    +0.020 C 
BRANCH  11  14
ATOM     14  S   UNL     1      32.188  -2.473 -26.934  0.00  0.00    +0.057 S 
ATOM     15  O   UNL     1      30.934  -1.787 -26.655  0.00  0.00    -0.153 OA
ATOM     16  O   UNL     1      33.452  -1.787 -26.707  0.00  0.00    -0.153 OA
BRANCH  14  17
ATOM     17  N   UNL     1      32.158  -3.046 -28.543  0.00  0.00    -0.203 NA
ATOM     18  H   UNL     1      32.458  -2.303 -29.175  0.00  0.00    +0.144 HD
ATOM     19  H   UNL     1      31.209  -3.333 -28.784  0.00  0.00    +0.144 HD
ENDBRANCH  14  17
ENDBRANCH  11  14
ENDBRANCH   5   8
ENDBRANCH   1   2
BRANCH   1  23
ATOM     20  F   UNL     1      30.089 -11.463 -20.833  0.00  0.00    -0.172 F 
ATOM     21  F   UNL     1      31.689 -12.296 -19.615  0.00  0.00    -0.172 F 
ATOM     22  F   UNL     1      31.469 -10.131 -19.795  0.00  0.00    -0.172 F 
ATOM     23  C   UNL     1      31.384 -11.296 -20.473  0.00  0.00    +0.384 C 
ENDBRANCH   1  23
BRANCH   1  24
ATOM     24  N   UNL     1      31.959 -12.458 -22.550  0.00  0.00    +0.400 N 
ATOM     25  H   UNL     1      31.058 -12.841 -22.262  0.00  0.00    -0.083 HD
ATOM     26  H   UNL     1      31.913 -12.137 -23.517  0.00  0.00    -0.083 HD
BRANCH  24  27
ATOM     27  C   UNL     1      32.981 -13.502 -22.446  0.00  0.00    +0.018 C 
BRANCH  27  30
ATOM     28  O   UNL     1      33.820 -12.913 -24.637  0.00  0.00    -0.277 OA
ATOM     29  N   UNL     1      33.336 -15.140 -24.196  0.00  0.00    -0.308 N 
ATOM     30  C   UNL     1      33.418 -13.793 -23.878  0.00  0.00    +0.202 C 
ATOM     31  H   UNL     1      32.999 -15.765 -23.515  0.00  0.00    +0.149 HD
BRANCH  29  32
ATOM     32  C   UNL     1      33.723 -15.669 -25.485  0.00  0.00    +0.066 C 
BRANCH  32  33
ATOM     33  C   UNL     1      34.313 -17.064 -25.353  0.00  0.00    -0.065 C 
BRANCH  33  34
ATOM     34  N   UNL     1      35.392 -17.066 -24.372  0.00  0.00    +0.382 N 
ATOM     35  H   UNL     1      35.255 -17.838 -23.720  0.00  0.00    -0.089 HD
ATOM     36  H   UNL     1      35.387 -16.185 -23.860  0.00  0.00    -0.089 HD
ATOM     37  H   UNL     1      36.286 -17.178 -24.849  0.00  0.00    -0.089 HD
ENDBRANCH  33  34
ENDBRANCH  32  33
ENDBRANCH  29  32
ENDBRANCH  27  30
BRANCH  27  38
ATOM     38  C   UNL     1      32.400 -14.743 -21.749  0.00  0.00    -0.012 C 
BRANCH  38  39
ATOM     39  C   UNL     1      33.349 -15.407 -20.729  0.00  0.00    -0.002 C 
ATOM     40  C   UNL     1      34.555 -14.498 -20.478  0.00  0.00    -0.000 C 
ATOM     41  C   UNL     1      33.830 -16.785 -21.188  0.00  0.00    -0.000 C 
ENDBRANCH  38  39
ENDBRANCH  27  38
ENDBRANCH  24  27
ENDBRANCH   1  24
TORSDOF 13
ENDMDL
MODEL 9
REMARK VINA RESULT:      -9.0      2.521      3.985
REMARK  Name = 46937137
REMARK  13 active torsions:
REMARK  status: ('A' for Active; 'I' for Inactive)
REMARK    1  A    between atoms: C_1  and  C_2
REMARK    2  A    between atoms: C_1  and  C_23
REMARK    3  A    between atoms: C_1  and  N_24
REMARK    4  A    between atoms: C_5  and  C_8
REMARK    5  A    between atoms: C_11  and  S_14
REMARK    6  A    between atoms: S_14  and  N_17
REMARK    7  A    between atoms: N_24  and  C_27
REMARK    8  A    between atoms: C_27  and  C_30
REMARK    9  A    between atoms: C_27  and  C_38
REMARK   10  A    between atoms: N_29  and  C_32
REMARK   11  A    between atoms: C_32  and  C_33
REMARK   12  A    between atoms: C_33  and  N_34
REMARK   13  A    between atoms: C_38  and  C_39
REMARK                            x       y       z     vdW  Elec       q    Type
REMARK                         _______ _______ _______ _____ _____    ______ ____
ROOT
ATOM      1  C   UNL     1      32.896 -12.309 -23.102  0.00  0.00    +0.059 C 
ENDROOT
BRANCH   1   2
ATOM      2  C   UNL     1      33.272 -13.698 -22.622  0.00  0.00    -0.034 C 
ATOM      3  C   UNL     1      34.243 -14.432 -23.304  0.00  0.00    -0.006 C 
ATOM      4  C   UNL     1      32.649 -14.241 -21.499  0.00  0.00    -0.006 C 
ATOM      5  C   UNL     1      33.966 -16.252 -21.739  0.00  0.00    -0.000 C 
ATOM      6  C   UNL     1      34.590 -15.708 -22.863  0.00  0.00    -0.000 C 
ATOM      7  C   UNL     1      32.994 -15.517 -21.058  0.00  0.00    -0.000 C 
BRANCH   5   8
ATOM      8  C   UNL     1      34.325 -17.576 -21.282  0.00  0.00    +0.000 C 
ATOM      9  C   UNL     1      33.329 -18.515 -21.010  0.00  0.00    +0.001 C 
ATOM     10  C   UNL     1      35.668 -17.916 -21.112  0.00  0.00    +0.001 C 
ATOM     11  C   UNL     1      35.019 -20.131 -20.399  0.00  0.00    +0.122 C 
ATOM     12  C   UNL     1      33.676 -19.792 -20.569  0.00  0.00    +0.020 C 
ATOM     13  C   UNL     1      36.014 -19.193 -20.671  0.00  0.00    +0.020 C 
BRANCH  11  14
ATOM     14  S   UNL     1      35.453 -21.729 -19.846  0.00  0.00    +0.057 S 
ATOM     15  O   UNL     1      34.232 -22.442 -19.497  0.00  0.00    -0.153 OA
ATOM     16  O   UNL     1      36.381 -22.313 -20.804  0.00  0.00    -0.153 OA
BRANCH  14  17
ATOM     17  N   UNL     1      36.305 -21.358 -18.413  0.00  0.00    -0.203 NA
ATOM     18  H   UNL     1      36.407 -22.202 -17.850  0.00  0.00    +0.144 HD
ATOM     19  H   UNL     1      35.788 -20.656 -17.882  0.00  0.00    +0.144 HD
ENDBRANCH  14  17
ENDBRANCH  11  14
ENDBRANCH   5   8
ENDBRANCH   1   2
BRANCH   1  23
ATOM     20  F   UNL     1      31.096 -12.518 -21.577  0.00  0.00    -0.172 F 
ATOM     21  F   UNL     1      32.561 -10.958 -21.179  0.00  0.00    -0.172 F 
ATOM     22  F   UNL     1      31.131 -10.721 -22.812  0.00  0.00    -0.172 F 
ATOM     23  C   UNL     1      31.912 -11.614 -22.169  0.00  0.00    +0.384 C 
ENDBRANCH   1  23
BRANCH   1  24
ATOM     24  N   UNL     1      34.071 -11.481 -23.316  0.00  0.00    +0.400 N 
ATOM     25  H   UNL     1      34.301 -10.995 -22.448  0.00  0.00    -0.083 HD
ATOM     26  H   UNL     1      34.847 -12.078 -23.601  0.00  0.00    -0.083 HD
BRANCH  24  27
ATOM     27  C   UNL     1      33.823 -10.493 -24.369  0.00  0.00    +0.018 C 
BRANCH  27  30
ATOM     28  O   UNL     1      35.366 -10.808 -26.205  0.00  0.00    -0.277 OA
ATOM     29  N   UNL     1      33.466 -12.137 -26.113  0.00  0.00    -0.308 N 
ATOM     30  C   UNL     1      34.315 -11.138 -25.661  0.00  0.00    +0.202 C 
ATOM     31  H   UNL     1      32.646 -12.324 -25.602  0.00  0.00    +0.149 HD
BRANCH  29  32
ATOM     32  C   UNL     1      33.730 -12.916 -27.302  0.00  0.00    +0.066 C 
BRANCH  32  33
ATOM     33  C   UNL     1      33.398 -14.385 -27.083  0.00  0.00    -0.065 C 
BRANCH  33  34
ATOM     34  N   UNL     1      32.225 -14.517 -26.229  0.00  0.00    +0.382 N 
ATOM     35  H   UNL     1      31.387 -14.563 -26.808  0.00  0.00    -0.089 HD
ATOM     36  H   UNL     1      32.164 -13.710 -25.607  0.00  0.00    -0.089 HD
ATOM     37  H   UNL     1      32.302 -15.369 -25.674  0.00  0.00    -0.089 HD
ENDBRANCH  33  34
ENDBRANCH  32  33
ENDBRANCH  29  32
ENDBRANCH  27  30
BRANCH  27  38
ATOM     38  C   UNL     1      34.563  -9.184 -24.051  0.00  0.00    -0.012 C 
BRANCH  38  39
ATOM     39  C   UNL     1      33.641  -7.965 -23.835  0.00  0.00    -0.002 C 
ATOM     40  C   UNL     1      34.241  -6.735 -24.522  0.00  0.00    -0.000 C 
ATOM     41  C   UNL     1      33.406  -7.663 -22.354  0.00  0.00    -0.000 C 
ENDBRANCH  38  39
ENDBRANCH  27  38
ENDBRANCH  24  27
ENDBRANCH   1  24
TORSDOF 13
ENDMDL
