MODEL 1
REMARK VINA RESULT:      -4.8      0.000      0.000
REMARK  Name = 6950514
REMARK  4 active torsions:
REMARK  status: ('A' for Active; 'I' for Inactive)
REMARK    1  A    between atoms: CA_1  and  N_2
REMARK    2  A    between atoms: CA_1  and  C_8
REMARK    3  A    between atoms: CA_1  and  C_9
REMARK    4  A    between atoms: C_9  and  C_10
REMARK                            x       y       z     vdW  Elec       q    Type
REMARK                         _______ _______ _______ _____ _____    ______ ____
ROOT
ATOM      1  CA  UNL     1      29.681 -23.173 -16.385  0.00  0.00    +0.040 C 
ENDROOT
BRANCH   1   2
ATOM      2  N   UNL     1      30.794 -22.509 -17.133  0.00  0.00    +0.389 N 
ATOM      3  H1  UNL     1      31.654 -23.045 -17.011  0.00  0.00    -0.088 HD
ATOM      4  H2  UNL     1      30.929 -21.564 -16.774  0.00  0.00    -0.088 HD
ATOM      5  H3  UNL     1      30.560 -22.465 -18.125  0.00  0.00    -0.088 HD
ENDBRANCH   1   2
BRANCH   1   8
ATOM      6  O   UNL     1      27.844 -21.762 -16.890  0.00  0.00    -0.248 OA
ATOM      7  OXT UNL     1      27.729 -23.960 -17.491  0.00  0.00    -0.248 OA
ATOM      8  C   UNL     1      28.286 -22.943 -16.990  0.00  0.00    +0.345 C 
ENDBRANCH   1   8
BRANCH   1   9
ATOM      9  C   UNL     1      29.830 -22.797 -14.905  0.00  0.00    -0.011 C 
BRANCH   9  10
ATOM     10  C   UNL     1      30.553 -23.846 -14.054  0.00  0.00    -0.002 C 
ATOM     11  C   UNL     1      30.313 -25.251 -14.587  0.00  0.00    -0.000 C 
ENDBRANCH   9  10
ENDBRANCH   1   9
TORSDOF 4
ENDMDL
MODEL 2
REMARK VINA RESULT:      -4.7      1.666      1.870
REMARK  Name = 6950514
REMARK  4 active torsions:
REMARK  status: ('A' for Active; 'I' for Inactive)
REMARK    1  A    between atoms: CA_1  and  N_2
REMARK    2  A    between atoms: CA_1  and  C_8
REMARK    3  A    between atoms: CA_1  and  C_9
REMARK    4  A    between atoms: C_9  and  C_10
REMARK                            x       y       z     vdW  Elec       q    Type
REMARK                         _______ _______ _______ _____ _____    ______ ____
ROOT
ATOM      1  CA  UNL     1      28.744 -23.493 -15.440  0.00  0.00    +0.040 C 
ENDROOT
BRANCH   1   2
ATOM      2  N   UNL     1      29.005 -24.950 -15.227  0.00  0.00    +0.389 N 
ATOM      3  H1  UNL     1      29.176 -25.124 -14.236  0.00  0.00    -0.088 HD
ATOM      4  H2  UNL     1      29.822 -25.232 -15.767  0.00  0.00    -0.088 HD
ATOM      5  H3  UNL     1      28.194 -25.490 -15.530  0.00  0.00    -0.088 HD
ENDBRANCH   1   2
BRANCH   1   8
ATOM      6  O   UNL     1      28.308 -21.920 -17.160  0.00  0.00    -0.248 OA
ATOM      7  OXT UNL     1      27.743 -24.102 -17.509  0.00  0.00    -0.248 OA
ATOM      8  C   UNL     1      28.222 -23.141 -16.844  0.00  0.00    +0.345 C 
ENDBRANCH   1   8
BRANCH   1   9
ATOM      9  C   UNL     1      29.996 -22.728 -14.991  0.00  0.00    -0.011 C 
BRANCH   9  10
ATOM     10  C   UNL     1      31.311 -23.487 -15.200  0.00  0.00    -0.002 C 
ATOM     11  C   UNL     1      31.928 -23.159 -16.551  0.00  0.00    -0.000 C 
ENDBRANCH   9  10
ENDBRANCH   1   9
TORSDOF 4
ENDMDL
MODEL 3
REMARK VINA RESULT:      -4.7      8.818      9.490
REMARK  Name = 6950514
REMARK  4 active torsions:
REMARK  status: ('A' for Active; 'I' for Inactive)
REMARK    1  A    between atoms: CA_1  and  N_2
REMARK    2  A    between atoms: CA_1  and  C_8
REMARK    3  A    between atoms: CA_1  and  C_9
REMARK    4  A    between atoms: C_9  and  C_10
REMARK                            x       y       z     vdW  Elec       q    Type
REMARK                         _______ _______ _______ _____ _____    ______ ____
ROOT
ATOM      1  CA  UNL     1      34.906 -17.945 -22.228  0.00  0.00    +0.040 C 
ENDROOT
BRANCH   1   2
ATOM      2  N   UNL     1      36.076 -18.199 -23.126  0.00  0.00    +0.389 N 
ATOM      3  H1  UNL     1      35.801 -18.839 -23.871  0.00  0.00    -0.088 HD
ATOM      4  H2  UNL     1      36.835 -18.614 -22.586  0.00  0.00    -0.088 HD
ATOM      5  H3  UNL     1      36.391 -17.318 -23.533  0.00  0.00    -0.088 HD
ENDBRANCH   1   2
BRANCH   1   8
ATOM      6  O   UNL     1      34.693 -15.586 -22.339  0.00  0.00    -0.248 OA
ATOM      7  OXT UNL     1      35.152 -16.546 -20.321  0.00  0.00    -0.248 OA
ATOM      8  C   UNL     1      34.909 -16.559 -21.560  0.00  0.00    +0.345 C 
ENDBRANCH   1   8
BRANCH   1   9
ATOM      9  C   UNL     1      34.790 -19.139 -21.271  0.00  0.00    -0.011 C 
BRANCH   9  10
ATOM     10  C   UNL     1      33.352 -19.580 -20.979  0.00  0.00    -0.002 C 
ATOM     11  C   UNL     1      33.319 -20.729 -19.983  0.00  0.00    -0.000 C 
ENDBRANCH   9  10
ENDBRANCH   1   9
TORSDOF 4
ENDMDL
MODEL 4
REMARK VINA RESULT:      -4.6      9.751     10.410
REMARK  Name = 6950514
REMARK  4 active torsions:
REMARK  status: ('A' for Active; 'I' for Inactive)
REMARK    1  A    between atoms: CA_1  and  N_2
REMARK    2  A    between atoms: CA_1  and  C_8
REMARK    3  A    between atoms: CA_1  and  C_9
REMARK    4  A    between atoms: C_9  and  C_10
REMARK                            x       y       z     vdW  Elec       q    Type
REMARK                         _______ _______ _______ _____ _____    ______ ____
ROOT
ATOM      1  CA  UNL     1      38.709 -25.369 -14.442  0.00  0.00    +0.040 C 
ENDROOT
BRANCH   1   2
ATOM      2  N   UNL     1      37.846 -26.159 -15.376  0.00  0.00    +0.389 N 
ATOM      3  H1  UNL     1      38.367 -26.966 -15.719  0.00  0.00    -0.088 HD
ATOM      4  H2  UNL     1      37.571 -25.572 -16.163  0.00  0.00    -0.088 HD
ATOM      5  H3  UNL     1      37.013 -26.478 -14.882  0.00  0.00    -0.088 HD
ENDBRANCH   1   2
BRANCH   1   8
ATOM      6  O   UNL     1      40.940 -24.663 -14.066  0.00  0.00    -0.248 OA
ATOM      7  OXT UNL     1      40.537 -26.159 -15.741  0.00  0.00    -0.248 OA
ATOM      8  C   UNL     1      40.209 -25.410 -14.778  0.00  0.00    +0.345 C 
ENDBRANCH   1   8
BRANCH   1   9
ATOM      9  C   UNL     1      38.341 -25.783 -13.011  0.00  0.00    -0.011 C 
BRANCH   9  10
ATOM     10  C   UNL     1      37.951 -24.619 -12.094  0.00  0.00    -0.002 C 
ATOM     11  C   UNL     1      37.219 -23.531 -12.865  0.00  0.00    -0.000 C 
ENDBRANCH   9  10
ENDBRANCH   1   9
TORSDOF 4
ENDMDL
MODEL 5
REMARK VINA RESULT:      -4.6      9.212      9.813
REMARK  Name = 6950514
REMARK  4 active torsions:
REMARK  status: ('A' for Active; 'I' for Inactive)
REMARK    1  A    between atoms: CA_1  and  N_2
REMARK    2  A    between atoms: CA_1  and  C_8
REMARK    3  A    between atoms: CA_1  and  C_9
REMARK    4  A    between atoms: C_9  and  C_10
REMARK                            x       y       z     vdW  Elec       q    Type
REMARK                         _______ _______ _______ _____ _____    ______ ____
ROOT
ATOM      1  CA  UNL     1      35.403 -18.047 -22.180  0.00  0.00    +0.040 C 
ENDROOT
BRANCH   1   2
ATOM      2  N   UNL     1      35.250 -17.387 -20.845  0.00  0.00    +0.389 N 
ATOM      3  H1  UNL     1      34.443 -17.781 -20.361  0.00  0.00    -0.088 HD
ATOM      4  H2  UNL     1      35.111 -16.385 -20.975  0.00  0.00    -0.088 HD
ATOM      5  H3  UNL     1      36.090 -17.545 -20.288  0.00  0.00    -0.088 HD
ENDBRANCH   1   2
BRANCH   1   8
ATOM      6  O   UNL     1      35.350 -15.888 -23.158  0.00  0.00    -0.248 OA
ATOM      7  OXT UNL     1      34.750 -17.679 -24.437  0.00  0.00    -0.248 OA
ATOM      8  C   UNL     1      35.151 -17.117 -23.379  0.00  0.00    +0.345 C 
ENDBRANCH   1   8
BRANCH   1   9
ATOM      9  C   UNL     1      34.569 -19.335 -22.156  0.00  0.00    -0.011 C 
BRANCH   9  10
ATOM     10  C   UNL     1      34.370 -19.937 -20.761  0.00  0.00    -0.002 C 
ATOM     11  C   UNL     1      32.896 -20.167 -20.465  0.00  0.00    -0.000 C 
ENDBRANCH   9  10
ENDBRANCH   1   9
TORSDOF 4
ENDMDL
MODEL 6
REMARK VINA RESULT:      -4.5     15.015     15.595
REMARK  Name = 6950514
REMARK  4 active torsions:
REMARK  status: ('A' for Active; 'I' for Inactive)
REMARK    1  A    between atoms: CA_1  and  N_2
REMARK    2  A    between atoms: CA_1  and  C_8
REMARK    3  A    between atoms: CA_1  and  C_9
REMARK    4  A    between atoms: C_9  and  C_10
REMARK                            x       y       z     vdW  Elec       q    Type
REMARK                         _______ _______ _______ _____ _____    ______ ____
ROOT
ATOM      1  CA  UNL     1      41.267 -15.040 -16.285  0.00  0.00    +0.040 C 
ENDROOT
BRANCH   1   2
ATOM      2  N   UNL     1      40.458 -15.120 -15.029  0.00  0.00    +0.389 N 
ATOM      3  H1  UNL     1      39.881 -15.961 -15.049  0.00  0.00    -0.088 HD
ATOM      4  H2  UNL     1      39.858 -14.299 -14.957  0.00  0.00    -0.088 HD
ATOM      5  H3  UNL     1      41.082 -15.156 -14.222  0.00  0.00    -0.088 HD
ENDBRANCH   1   2
BRANCH   1   8
ATOM      6  O   UNL     1      41.510 -17.321 -16.884  0.00  0.00    -0.248 OA
ATOM      7  OXT UNL     1      43.385 -16.117 -16.392  0.00  0.00    -0.248 OA
ATOM      8  C   UNL     1      42.142 -16.276 -16.555  0.00  0.00    +0.345 C 
ENDBRANCH   1   8
BRANCH   1   9
ATOM      9  C   UNL     1      42.009 -13.696 -16.272  0.00  0.00    -0.011 C 
BRANCH   9  10
ATOM     10  C   UNL     1      42.046 -12.979 -17.626  0.00  0.00    -0.002 C 
ATOM     11  C   UNL     1      42.567 -11.557 -17.482  0.00  0.00    -0.000 C 
ENDBRANCH   9  10
ENDBRANCH   1   9
TORSDOF 4
ENDMDL
MODEL 7
REMARK VINA RESULT:      -4.5      7.633      8.412
REMARK  Name = 6950514
REMARK  4 active torsions:
REMARK  status: ('A' for Active; 'I' for Inactive)
REMARK    1  A    between atoms: CA_1  and  N_2
REMARK    2  A    between atoms: CA_1  and  C_8
REMARK    3  A    between atoms: CA_1  and  C_9
REMARK    4  A    between atoms: C_9  and  C_10
REMARK                            x       y       z     vdW  Elec       q    Type
REMARK                         _______ _______ _______ _____ _____    ______ ____
ROOT
ATOM      1  CA  UNL     1      34.029 -20.740 -20.353  0.00  0.00    +0.040 C 
ENDROOT
BRANCH   1   2
ATOM      2  N   UNL     1      32.746 -20.753 -19.582  0.00  0.00    +0.389 N 
ATOM      3  H1  UNL     1      32.682 -21.618 -19.044  0.00  0.00    -0.088 HD
ATOM      4  H2  UNL     1      31.960 -20.696 -20.228  0.00  0.00    -0.088 HD
ATOM      5  H3  UNL     1      32.722 -19.955 -18.946  0.00  0.00    -0.088 HD
ENDBRANCH   1   2
BRANCH   1   8
ATOM      6  O   UNL     1      36.221 -20.501 -19.481  0.00  0.00    -0.248 OA
ATOM      7  OXT UNL     1      35.127 -22.477 -19.156  0.00  0.00    -0.248 OA
ATOM      8  C   UNL     1      35.239 -21.292 -19.579  0.00  0.00    +0.345 C 
ENDBRANCH   1   8
BRANCH   1   9
ATOM      9  C   UNL     1      34.204 -19.331 -20.934  0.00  0.00    -0.011 C 
BRANCH   9  10
ATOM     10  C   UNL     1      34.587 -19.300 -22.418  0.00  0.00    -0.002 C 
ATOM     11  C   UNL     1      35.762 -18.365 -22.665  0.00  0.00    -0.000 C 
ENDBRANCH   9  10
ENDBRANCH   1   9
TORSDOF 4
ENDMDL
MODEL 8
REMARK VINA RESULT:      -4.5      9.432     10.126
REMARK  Name = 6950514
REMARK  4 active torsions:
REMARK  status: ('A' for Active; 'I' for Inactive)
REMARK    1  A    between atoms: CA_1  and  N_2
REMARK    2  A    between atoms: CA_1  and  C_8
REMARK    3  A    between atoms: CA_1  and  C_9
REMARK    4  A    between atoms: C_9  and  C_10
REMARK                            x       y       z     vdW  Elec       q    Type
REMARK                         _______ _______ _______ _____ _____    ______ ____
ROOT
ATOM      1  CA  UNL     1      38.103 -25.286 -12.876  0.00  0.00    +0.040 C 
ENDROOT
BRANCH   1   2
ATOM      2  N   UNL     1      37.037 -26.336 -12.864  0.00  0.00    +0.389 N 
ATOM      3  H1  UNL     1      36.622 -26.389 -11.933  0.00  0.00    -0.088 HD
ATOM      4  H2  UNL     1      37.445 -27.238 -13.106  0.00  0.00    -0.088 HD
ATOM      5  H3  UNL     1      36.314 -26.096 -13.544  0.00  0.00    -0.088 HD
ENDBRANCH   1   2
BRANCH   1   8
ATOM      6  O   UNL     1      38.853 -23.330 -11.767  0.00  0.00    -0.248 OA
ATOM      7  OXT UNL     1      36.991 -24.385 -10.977  0.00  0.00    -0.248 OA
ATOM      8  C   UNL     1      37.961 -24.226 -11.770  0.00  0.00    +0.345 C 
ENDBRANCH   1   8
BRANCH   1   9
ATOM      9  C   UNL     1      38.198 -24.740 -14.307  0.00  0.00    -0.011 C 
BRANCH   9  10
ATOM     10  C   UNL     1      39.524 -25.039 -15.013  0.00  0.00    -0.002 C 
ATOM     11  C   UNL     1      40.427 -25.905 -14.147  0.00  0.00    -0.000 C 
ENDBRANCH   9  10
ENDBRANCH   1   9
TORSDOF 4
ENDMDL
MODEL 9
REMARK VINA RESULT:      -4.4      8.241      8.982
REMARK  Name = 6950514
REMARK  4 active torsions:
REMARK  status: ('A' for Active; 'I' for Inactive)
REMARK    1  A    between atoms: CA_1  and  N_2
REMARK    2  A    between atoms: CA_1  and  C_8
REMARK    3  A    between atoms: CA_1  and  C_9
REMARK    4  A    between atoms: C_9  and  C_10
REMARK                            x       y       z     vdW  Elec       q    Type
REMARK                         _______ _______ _______ _____ _____    ______ ____
ROOT
ATOM      1  CA  UNL     1      36.871 -24.502 -12.202  0.00  0.00    +0.040 C 
ENDROOT
BRANCH   1   2
ATOM      2  N   UNL     1      37.802 -23.660 -11.386  0.00  0.00    +0.389 N 
ATOM      3  H1  UNL     1      37.826 -24.011 -10.428  0.00  0.00    -0.088 HD
ATOM      4  H2  UNL     1      37.475 -22.695 -11.385  0.00  0.00    -0.088 HD
ATOM      5  H3  UNL     1      38.739 -23.703 -11.787  0.00  0.00    -0.088 HD
ENDBRANCH   1   2
BRANCH   1   8
ATOM      6  O   UNL     1      35.391 -25.080 -10.441  0.00  0.00    -0.248 OA
ATOM      7  OXT UNL     1      34.510 -24.282 -12.389  0.00  0.00    -0.248 OA
ATOM      8  C   UNL     1      35.452 -24.624 -11.619  0.00  0.00    +0.345 C 
ENDBRANCH   1   8
BRANCH   1   9
ATOM      9  C   UNL     1      37.582 -25.830 -12.492  0.00  0.00    -0.011 C 
BRANCH   9  10
ATOM     10  C   UNL     1      38.198 -25.927 -13.891  0.00  0.00    -0.002 C 
ATOM     11  C   UNL     1      39.680 -25.583 -13.866  0.00  0.00    -0.000 C 
ENDBRANCH   9  10
ENDBRANCH   1   9
TORSDOF 4
ENDMDL
