MODEL 1
REMARK VINA RESULT:      -8.6      0.000      0.000
REMARK  Name = 10062718
REMARK  2 active torsions:
REMARK  status: ('A' for Active; 'I' for Inactive)
REMARK    1  A    between atoms: C_6  and  C_10
REMARK    2  A    between atoms: C_13  and  O_16
REMARK                            x       y       z     vdW  Elec       q    Type
REMARK                         _______ _______ _______ _____ _____    ______ ____
ROOT
ATOM      1  S   UNL     1      34.274 -16.951 -21.377  0.00  0.00    +0.076 S 
ATOM      2  O   UNL     1      32.878 -16.924 -20.986  0.00  0.00    -0.150 OA
ATOM      3  O   UNL     1      35.319 -16.474 -20.494  0.00  0.00    -0.150 OA
ATOM      4  O   UNL     1      34.944 -16.786 -25.106  0.00  0.00    -0.269 OA
ATOM      5  N   UNL     1      34.427 -16.172 -22.889  0.00  0.00    -0.181 N 
ATOM      6  C   UNL     1      34.701 -18.488 -22.038  0.00  0.00    +0.130 C 
ATOM      7  C   UNL     1      34.955 -18.434 -23.353  0.00  0.00    +0.079 C 
ATOM      8  C   UNL     1      34.787 -17.070 -23.932  0.00  0.00    +0.266 C 
ATOM      9  H   UNL     1      34.280 -15.208 -23.024  0.00  0.00    +0.177 HD
ENDROOT
BRANCH   6  10
ATOM     10  C   UNL     1      34.825 -19.579 -21.084  0.00  0.00    +0.022 C 
ATOM     11  C   UNL     1      33.686 -20.239 -20.625  0.00  0.00    +0.038 C 
ATOM     12  C   UNL     1      36.086 -19.963 -20.626  0.00  0.00    +0.002 C 
ATOM     13  C   UNL     1      33.806 -21.285 -19.710  0.00  0.00    +0.134 C 
ATOM     14  C   UNL     1      36.206 -21.007 -19.710  0.00  0.00    +0.003 C 
ATOM     15  C   UNL     1      35.067 -21.668 -19.252  0.00  0.00    +0.037 C 
BRANCH  13  16
ATOM     16  O   UNL     1      32.694 -21.930 -19.262  0.00  0.00    -0.506 OA
ATOM     17  H   UNL     1      32.660 -22.866 -19.273  0.00  0.00    +0.292 HD
ENDBRANCH  13  16
ENDBRANCH   6  10
TORSDOF 2
ENDMDL
MODEL 2
REMARK VINA RESULT:      -8.5      1.109      1.665
REMARK  Name = 10062718
REMARK  2 active torsions:
REMARK  status: ('A' for Active; 'I' for Inactive)
REMARK    1  A    between atoms: C_6  and  C_10
REMARK    2  A    between atoms: C_13  and  O_16
REMARK                            x       y       z     vdW  Elec       q    Type
REMARK                         _______ _______ _______ _____ _____    ______ ____
ROOT
ATOM      1  S   UNL     1      34.258 -16.890 -21.361  0.00  0.00    +0.076 S 
ATOM      2  O   UNL     1      32.868 -16.663 -21.013  0.00  0.00    -0.150 OA
ATOM      3  O   UNL     1      35.332 -16.567 -20.443  0.00  0.00    -0.150 OA
ATOM      4  O   UNL     1      35.062 -16.822 -25.066  0.00  0.00    -0.269 OA
ATOM      5  N   UNL     1      34.568 -16.141 -22.863  0.00  0.00    -0.181 N 
ATOM      6  C   UNL     1      34.481 -18.472 -22.015  0.00  0.00    +0.130 C 
ATOM      7  C   UNL     1      34.781 -18.455 -23.321  0.00  0.00    +0.079 C 
ATOM      8  C   UNL     1      34.829 -17.081 -23.899  0.00  0.00    +0.266 C 
ATOM      9  H   UNL     1      34.566 -15.165 -22.999  0.00  0.00    +0.177 HD
ENDROOT
BRANCH   6  10
ATOM     10  C   UNL     1      34.417 -19.569 -21.062  0.00  0.00    +0.022 C 
ATOM     11  C   UNL     1      35.592 -20.112 -20.542  0.00  0.00    +0.038 C 
ATOM     12  C   UNL     1      33.180 -20.080 -20.670  0.00  0.00    +0.002 C 
ATOM     13  C   UNL     1      35.530 -21.165 -19.629  0.00  0.00    +0.134 C 
ATOM     14  C   UNL     1      33.117 -21.132 -19.758  0.00  0.00    +0.003 C 
ATOM     15  C   UNL     1      34.292 -21.675 -19.237  0.00  0.00    +0.037 C 
BRANCH  13  16
ATOM     16  O   UNL     1      36.676 -21.695 -19.122  0.00  0.00    -0.506 OA
ATOM     17  H   UNL     1      37.015 -22.497 -19.468  0.00  0.00    +0.292 HD
ENDBRANCH  13  16
ENDBRANCH   6  10
TORSDOF 2
ENDMDL
MODEL 3
REMARK VINA RESULT:      -8.1      1.934      2.726
REMARK  Name = 10062718
REMARK  2 active torsions:
REMARK  status: ('A' for Active; 'I' for Inactive)
REMARK    1  A    between atoms: C_6  and  C_10
REMARK    2  A    between atoms: C_13  and  O_16
REMARK                            x       y       z     vdW  Elec       q    Type
REMARK                         _______ _______ _______ _____ _____    ______ ____
ROOT
ATOM      1  S   UNL     1      35.677 -18.303 -22.941  0.00  0.00    +0.076 S 
ATOM      2  O   UNL     1      37.053 -18.552 -22.558  0.00  0.00    -0.150 OA
ATOM      3  O   UNL     1      35.014 -19.102 -23.953  0.00  0.00    -0.150 OA
ATOM      4  O   UNL     1      34.449 -14.747 -22.459  0.00  0.00    -0.269 OA
ATOM      5  N   UNL     1      35.519 -16.652 -23.347  0.00  0.00    -0.181 N 
ATOM      6  C   UNL     1      34.667 -18.139 -21.550  0.00  0.00    +0.130 C 
ATOM      7  C   UNL     1      34.217 -16.887 -21.382  0.00  0.00    +0.079 C 
ATOM      8  C   UNL     1      34.710 -15.937 -22.420  0.00  0.00    +0.266 C 
ATOM      9  H   UNL     1      35.942 -16.240 -24.134  0.00  0.00    +0.177 HD
ENDROOT
BRANCH   6  10
ATOM     10  C   UNL     1      34.369 -19.367 -20.831  0.00  0.00    +0.022 C 
ATOM     11  C   UNL     1      35.404 -20.137 -20.303  0.00  0.00    +0.038 C 
ATOM     12  C   UNL     1      33.044 -19.776 -20.672  0.00  0.00    +0.002 C 
ATOM     13  C   UNL     1      35.117 -21.316 -19.615  0.00  0.00    +0.134 C 
ATOM     14  C   UNL     1      32.757 -20.955 -19.985  0.00  0.00    +0.003 C 
ATOM     15  C   UNL     1      33.792 -21.724 -19.456  0.00  0.00    +0.037 C 
BRANCH  13  16
ATOM     16  O   UNL     1      36.128 -22.067 -19.099  0.00  0.00    -0.506 OA
ATOM     17  H   UNL     1      36.763 -21.673 -18.533  0.00  0.00    +0.292 HD
ENDBRANCH  13  16
ENDBRANCH   6  10
TORSDOF 2
ENDMDL
MODEL 4
REMARK VINA RESULT:      -7.9      2.801      5.369
REMARK  Name = 10062718
REMARK  2 active torsions:
REMARK  status: ('A' for Active; 'I' for Inactive)
REMARK    1  A    between atoms: C_6  and  C_10
REMARK    2  A    between atoms: C_13  and  O_16
REMARK                            x       y       z     vdW  Elec       q    Type
REMARK                         _______ _______ _______ _____ _____    ______ ____
ROOT
ATOM      1  S   UNL     1      35.850 -21.062 -19.978  0.00  0.00    +0.076 S 
ATOM      2  O   UNL     1      36.464 -21.889 -20.998  0.00  0.00    -0.150 OA
ATOM      3  O   UNL     1      36.633 -20.147 -19.171  0.00  0.00    -0.150 OA
ATOM      4  O   UNL     1      32.655 -22.422 -18.454  0.00  0.00    -0.269 OA
ATOM      5  N   UNL     1      34.934 -22.066 -18.946  0.00  0.00    -0.181 N 
ATOM      6  C   UNL     1      34.442 -20.271 -20.588  0.00  0.00    +0.130 C 
ATOM      7  C   UNL     1      33.309 -20.736 -20.042  0.00  0.00    +0.079 C 
ATOM      8  C   UNL     1      33.534 -21.834 -19.059  0.00  0.00    +0.266 C 
ATOM      9  H   UNL     1      35.329 -22.734 -18.340  0.00  0.00    +0.177 HD
ENDROOT
BRANCH   6  10
ATOM     10  C   UNL     1      34.678 -19.169 -21.507  0.00  0.00    +0.022 C 
ATOM     11  C   UNL     1      34.661 -17.854 -21.041  0.00  0.00    +0.038 C 
ATOM     12  C   UNL     1      34.921 -19.427 -22.856  0.00  0.00    +0.002 C 
ATOM     13  C   UNL     1      34.888 -16.798 -21.923  0.00  0.00    +0.134 C 
ATOM     14  C   UNL     1      35.147 -18.371 -23.738  0.00  0.00    +0.003 C 
ATOM     15  C   UNL     1      35.131 -17.057 -23.272  0.00  0.00    +0.037 C 
BRANCH  13  16
ATOM     16  O   UNL     1      34.871 -15.515 -21.468  0.00  0.00    -0.506 OA
ATOM     17  H   UNL     1      34.533 -14.830 -22.010  0.00  0.00    +0.292 HD
ENDBRANCH  13  16
ENDBRANCH   6  10
TORSDOF 2
ENDMDL
MODEL 5
REMARK VINA RESULT:      -7.7      6.278      8.997
REMARK  Name = 10062718
REMARK  2 active torsions:
REMARK  status: ('A' for Active; 'I' for Inactive)
REMARK    1  A    between atoms: C_6  and  C_10
REMARK    2  A    between atoms: C_13  and  O_16
REMARK                            x       y       z     vdW  Elec       q    Type
REMARK                         _______ _______ _______ _____ _____    ______ ____
ROOT
ATOM      1  S   UNL     1      36.476 -25.116 -14.937  0.00  0.00    +0.076 S 
ATOM      2  O   UNL     1      35.966 -26.258 -15.671  0.00  0.00    -0.150 OA
ATOM      3  O   UNL     1      37.848 -24.673 -15.080  0.00  0.00    -0.150 OA
ATOM      4  O   UNL     1      34.744 -24.365 -11.648  0.00  0.00    -0.269 OA
ATOM      5  N   UNL     1      36.137 -25.344 -13.279  0.00  0.00    -0.181 N 
ATOM      6  C   UNL     1      35.396 -23.774 -15.054  0.00  0.00    +0.130 C 
ATOM      7  C   UNL     1      34.791 -23.493 -13.890  0.00  0.00    +0.079 C 
ATOM      8  C   UNL     1      35.179 -24.415 -12.785  0.00  0.00    +0.266 C 
ATOM      9  H   UNL     1      36.557 -26.042 -12.726  0.00  0.00    +0.177 HD
ENDROOT
BRANCH   6  10
ATOM     10  C   UNL     1      35.369 -23.088 -16.335  0.00  0.00    +0.022 C 
ATOM     11  C   UNL     1      34.223 -23.130 -17.128  0.00  0.00    +0.038 C 
ATOM     12  C   UNL     1      36.494 -22.387 -16.773  0.00  0.00    +0.002 C 
ATOM     13  C   UNL     1      34.199 -22.472 -18.357  0.00  0.00    +0.134 C 
ATOM     14  C   UNL     1      36.470 -21.729 -18.002  0.00  0.00    +0.003 C 
ATOM     15  C   UNL     1      35.323 -21.772 -18.794  0.00  0.00    +0.037 C 
BRANCH  13  16
ATOM     16  O   UNL     1      33.079 -22.514 -19.131  0.00  0.00    -0.506 OA
ATOM     17  H   UNL     1      32.516 -21.767 -19.180  0.00  0.00    +0.292 HD
ENDBRANCH  13  16
ENDBRANCH   6  10
TORSDOF 2
ENDMDL
MODEL 6
REMARK VINA RESULT:      -7.5      8.109      9.583
REMARK  Name = 10062718
REMARK  2 active torsions:
REMARK  status: ('A' for Active; 'I' for Inactive)
REMARK    1  A    between atoms: C_6  and  C_10
REMARK    2  A    between atoms: C_13  and  O_16
REMARK                            x       y       z     vdW  Elec       q    Type
REMARK                         _______ _______ _______ _____ _____    ______ ____
ROOT
ATOM      1  S   UNL     1      37.062 -23.545 -14.169  0.00  0.00    +0.076 S 
ATOM      2  O   UNL     1      37.429 -22.558 -15.166  0.00  0.00    -0.150 OA
ATOM      3  O   UNL     1      36.682 -23.161 -12.824  0.00  0.00    -0.150 OA
ATOM      4  O   UNL     1      38.576 -26.992 -14.626  0.00  0.00    -0.269 OA
ATOM      5  N   UNL     1      38.303 -24.714 -14.081  0.00  0.00    -0.181 N 
ATOM      6  C   UNL     1      35.930 -24.681 -14.811  0.00  0.00    +0.130 C 
ATOM      7  C   UNL     1      36.454 -25.906 -14.960  0.00  0.00    +0.079 C 
ATOM      8  C   UNL     1      37.888 -25.989 -14.558  0.00  0.00    +0.266 C 
ATOM      9  H   UNL     1      39.208 -24.526 -13.740  0.00  0.00    +0.177 HD
ENDROOT
BRANCH   6  10
ATOM     10  C   UNL     1      34.574 -24.191 -14.997  0.00  0.00    +0.022 C 
ATOM     11  C   UNL     1      33.648 -24.285 -13.959  0.00  0.00    +0.038 C 
ATOM     12  C   UNL     1      34.198 -23.629 -16.218  0.00  0.00    +0.002 C 
ATOM     13  C   UNL     1      32.347 -23.816 -14.139  0.00  0.00    +0.134 C 
ATOM     14  C   UNL     1      32.898 -23.161 -16.398  0.00  0.00    +0.003 C 
ATOM     15  C   UNL     1      31.972 -23.254 -15.360  0.00  0.00    +0.037 C 
BRANCH  13  16
ATOM     16  O   UNL     1      31.443 -23.908 -13.125  0.00  0.00    -0.506 OA
ATOM     17  H   UNL     1      31.225 -23.148 -12.622  0.00  0.00    +0.292 HD
ENDBRANCH  13  16
ENDBRANCH   6  10
TORSDOF 2
ENDMDL
MODEL 7
REMARK VINA RESULT:      -7.5      8.948     10.165
REMARK  Name = 10062718
REMARK  2 active torsions:
REMARK  status: ('A' for Active; 'I' for Inactive)
REMARK    1  A    between atoms: C_6  and  C_10
REMARK    2  A    between atoms: C_13  and  O_16
REMARK                            x       y       z     vdW  Elec       q    Type
REMARK                         _______ _______ _______ _____ _____    ______ ____
ROOT
ATOM      1  S   UNL     1      37.298 -26.582 -14.643  0.00  0.00    +0.076 S 
ATOM      2  O   UNL     1      36.835 -27.077 -13.361  0.00  0.00    -0.150 OA
ATOM      3  O   UNL     1      36.875 -27.191 -15.889  0.00  0.00    -0.150 OA
ATOM      4  O   UNL     1      40.663 -24.835 -14.620  0.00  0.00    -0.269 OA
ATOM      5  N   UNL     1      39.003 -26.510 -14.612  0.00  0.00    -0.181 N 
ATOM      6  C   UNL     1      37.147 -24.864 -14.733  0.00  0.00    +0.130 C 
ATOM      7  C   UNL     1      38.335 -24.241 -14.741  0.00  0.00    +0.079 C 
ATOM      8  C   UNL     1      39.493 -25.174 -14.649  0.00  0.00    +0.266 C 
ATOM      9  H   UNL     1      39.584 -27.304 -14.571  0.00  0.00    +0.177 HD
ENDROOT
BRANCH   6  10
ATOM     10  C   UNL     1      35.796 -24.351 -14.889  0.00  0.00    +0.022 C 
ATOM     11  C   UNL     1      34.842 -24.581 -13.898  0.00  0.00    +0.038 C 
ATOM     12  C   UNL     1      35.453 -23.629 -16.033  0.00  0.00    +0.002 C 
ATOM     13  C   UNL     1      33.546 -24.088 -14.049  0.00  0.00    +0.134 C 
ATOM     14  C   UNL     1      34.158 -23.137 -16.184  0.00  0.00    +0.003 C 
ATOM     15  C   UNL     1      33.204 -23.366 -15.192  0.00  0.00    +0.037 C 
BRANCH  13  16
ATOM     16  O   UNL     1      32.615 -24.313 -13.081  0.00  0.00    -0.506 OA
ATOM     17  H   UNL     1      31.944 -23.679 -12.921  0.00  0.00    +0.292 HD
ENDBRANCH  13  16
ENDBRANCH   6  10
TORSDOF 2
ENDMDL
MODEL 8
REMARK VINA RESULT:      -7.5      7.335      9.342
REMARK  Name = 10062718
REMARK  2 active torsions:
REMARK  status: ('A' for Active; 'I' for Inactive)
REMARK    1  A    between atoms: C_6  and  C_10
REMARK    2  A    between atoms: C_13  and  O_16
REMARK                            x       y       z     vdW  Elec       q    Type
REMARK                         _______ _______ _______ _____ _____    ______ ____
ROOT
ATOM      1  S   UNL     1      36.957 -23.548 -14.279  0.00  0.00    +0.076 S 
ATOM      2  O   UNL     1      37.402 -22.576 -15.259  0.00  0.00    -0.150 OA
ATOM      3  O   UNL     1      36.509 -23.145 -12.960  0.00  0.00    -0.150 OA
ATOM      4  O   UNL     1      38.424 -27.028 -14.625  0.00  0.00    -0.269 OA
ATOM      5  N   UNL     1      38.167 -24.740 -14.112  0.00  0.00    -0.181 N 
ATOM      6  C   UNL     1      35.842 -24.665 -14.978  0.00  0.00    +0.130 C 
ATOM      7  C   UNL     1      36.348 -25.902 -15.089  0.00  0.00    +0.079 C 
ATOM      8  C   UNL     1      37.754 -26.010 -14.604  0.00  0.00    +0.266 C 
ATOM      9  H   UNL     1      39.055 -24.569 -13.721  0.00  0.00    +0.177 HD
ENDROOT
BRANCH   6  10
ATOM     10  C   UNL     1      34.508 -24.150 -15.245  0.00  0.00    +0.022 C 
ATOM     11  C   UNL     1      34.192 -23.655 -16.510  0.00  0.00    +0.038 C 
ATOM     12  C   UNL     1      33.546 -24.149 -14.235  0.00  0.00    +0.002 C 
ATOM     13  C   UNL     1      32.912 -23.161 -16.765  0.00  0.00    +0.134 C 
ATOM     14  C   UNL     1      32.268 -23.654 -14.490  0.00  0.00    +0.003 C 
ATOM     15  C   UNL     1      31.951 -23.161 -15.755  0.00  0.00    +0.037 C 
BRANCH  13  16
ATOM     16  O   UNL     1      32.603 -22.678 -18.000  0.00  0.00    -0.506 OA
ATOM     17  H   UNL     1      32.382 -21.773 -18.108  0.00  0.00    +0.292 HD
ENDBRANCH  13  16
ENDBRANCH   6  10
TORSDOF 2
ENDMDL
MODEL 9
REMARK VINA RESULT:      -7.4      2.982      6.253
REMARK  Name = 10062718
REMARK  2 active torsions:
REMARK  status: ('A' for Active; 'I' for Inactive)
REMARK    1  A    between atoms: C_6  and  C_10
REMARK    2  A    between atoms: C_13  and  O_16
REMARK                            x       y       z     vdW  Elec       q    Type
REMARK                         _______ _______ _______ _____ _____    ______ ____
ROOT
ATOM      1  S   UNL     1      34.279 -15.888 -21.122  0.00  0.00    +0.076 S 
ATOM      2  O   UNL     1      34.954 -14.707 -20.621  0.00  0.00    -0.150 OA
ATOM      3  O   UNL     1      32.850 -16.072 -20.959  0.00  0.00    -0.150 OA
ATOM      4  O   UNL     1      36.410 -19.013 -21.400  0.00  0.00    -0.269 OA
ATOM      5  N   UNL     1      35.087 -17.268 -20.524  0.00  0.00    -0.181 N 
ATOM      6  C   UNL     1      34.746 -16.223 -22.750  0.00  0.00    +0.130 C 
ATOM      7  C   UNL     1      35.486 -17.336 -22.858  0.00  0.00    +0.079 C 
ATOM      8  C   UNL     1      35.746 -18.002 -21.550  0.00  0.00    +0.266 C 
ATOM      9  H   UNL     1      35.097 -17.527 -19.574  0.00  0.00    +0.177 HD
ENDROOT
BRANCH   6  10
ATOM     10  C   UNL     1      34.199 -15.336 -23.764  0.00  0.00    +0.022 C 
ATOM     11  C   UNL     1      34.101 -13.967 -23.516  0.00  0.00    +0.038 C 
ATOM     12  C   UNL     1      33.772 -15.855 -24.987  0.00  0.00    +0.002 C 
ATOM     13  C   UNL     1      33.576 -13.117 -24.489  0.00  0.00    +0.134 C 
ATOM     14  C   UNL     1      33.246 -15.006 -25.959  0.00  0.00    +0.003 C 
ATOM     15  C   UNL     1      33.149 -13.637 -25.711  0.00  0.00    +0.037 C 
BRANCH  13  16
ATOM     16  O   UNL     1      33.480 -11.781 -24.247  0.00  0.00    -0.506 OA
ATOM     17  H   UNL     1      33.328 -11.473 -23.375  0.00  0.00    +0.292 HD
ENDBRANCH  13  16
ENDBRANCH   6  10
TORSDOF 2
ENDMDL
