MODEL 1
REMARK VINA RESULT:      -9.9      0.000      0.000
REMARK  Name = 219024
REMARK  6 active torsions:
REMARK  status: ('A' for Active; 'I' for Inactive)
REMARK    1  A    between atoms: N_1  and  C1*_17
REMARK    2  A    between atoms: C_13  and  C_29
REMARK    3  A    between atoms: C2*_16  and  O2*_20
REMARK    4  A    between atoms: C3*_18  and  O3*_22
REMARK    5  A    between atoms: C4*_19  and  C5*_24
REMARK    6  A    between atoms: C5*_24  and  O5*_25
REMARK                            x       y       z     vdW  Elec       q    Type
REMARK                         _______ _______ _______ _____ _____    ______ ____
ROOT
ATOM      1  N   UNL     1      34.468 -23.998 -14.789  0.00  0.00    -0.236 N 
ATOM      2  N   UNL     1      32.365 -24.593 -14.342  0.00  0.00    -0.240 NA
ATOM      3  N   UNL     1      34.119 -22.768 -16.854  0.00  0.00    -0.309 NA
ATOM      4  N   UNL     1      31.761 -22.734 -17.481  0.00  0.00    -0.310 NA
ATOM      5  N   UNL     1      33.384 -21.687 -18.771  0.00  0.00    -0.111 N 
ATOM      6  N   UNL     1      32.418 -21.301 -19.624  0.00  0.00    -0.162 NA
ATOM      7  C   UNL     1      33.704 -23.485 -15.800  0.00  0.00    +0.221 C 
ATOM      8  C   UNL     1      33.617 -24.655 -13.939  0.00  0.00    +0.224 C 
ATOM      9  C   UNL     1      32.405 -23.864 -15.504  0.00  0.00    +0.167 C 
ATOM     10  C   UNL     1      31.414 -23.462 -16.393  0.00  0.00    +0.212 C 
ATOM     11  C   UNL     1      33.073 -22.437 -17.642  0.00  0.00    +0.229 C 
ATOM     12  C   UNL     1      34.633 -21.271 -19.135  0.00  0.00    +0.109 C 
ATOM     13  C   UNL     1      34.471 -20.567 -20.303  0.00  0.00    +0.092 C 
ATOM     14  C   UNL     1      33.087 -20.619 -20.557  0.00  0.00    +0.125 C 
ATOM     15  N   UNL     1      30.068 -23.802 -16.170  0.00  0.00    -0.331 N 
ATOM     16  H   UNL     1      29.375 -23.512 -16.806  0.00  0.00    +0.145 HD
ATOM     17  H   UNL     1      29.819 -24.332 -15.378  0.00  0.00    +0.145 HD
ENDROOT
BRANCH   1  20
ATOM     18  O4* UNL     1      36.572 -24.911 -15.401  0.00  0.00    -0.333 OA
ATOM     19  C2* UNL     1      36.394 -24.004 -13.186  0.00  0.00    +0.187 C 
ATOM     20  C1* UNL     1      35.919 -23.877 -14.635  0.00  0.00    +0.226 C 
ATOM     21  C3* UNL     1      36.957 -25.412 -13.138  0.00  0.00    +0.171 C 
ATOM     22  C4* UNL     1      37.507 -25.587 -14.544  0.00  0.00    +0.175 C 
BRANCH  19  23
ATOM     23  O2* UNL     1      37.410 -23.033 -12.939  0.00  0.00    -0.378 OA
ATOM     24  H2* UNL     1      37.749 -22.697 -13.783  0.00  0.00    +0.211 HD
ENDBRANCH  19  23
BRANCH  21  25
ATOM     25  O3* UNL     1      37.952 -25.587 -12.153  0.00  0.00    -0.379 OA
ATOM     26  H3* UNL     1      38.222 -24.721 -11.810  0.00  0.00    +0.211 HD
ENDBRANCH  21  25
BRANCH  22  27
ATOM     27  C5* UNL     1      37.633 -27.040 -14.966  0.00  0.00    +0.169 C 
BRANCH  27  28
ATOM     28  O5* UNL     1      36.897 -27.230 -16.162  0.00  0.00    -0.379 OA
ATOM     29  H5* UNL     1      36.865 -28.175 -16.376  0.00  0.00    +0.211 HD
ENDBRANCH  27  28
ENDBRANCH  22  27
ENDBRANCH   1  20
BRANCH  13  32
ATOM     30  O   UNL     1      36.721 -20.019 -20.743  0.00  0.00    -0.270 OA
ATOM     31  N   UNL     1      35.128 -19.235 -22.213  0.00  0.00    -0.299 N 
ATOM     32  C   UNL     1      35.512 -19.940 -21.058  0.00  0.00    +0.249 C 
ATOM     33  C   UNL     1      36.063 -18.573 -23.094  0.00  0.00    +0.111 C 
ATOM     34  H   UNL     1      34.168 -19.191 -22.434  0.00  0.00    +0.150 HD
ENDBRANCH  13  32
TORSDOF 6
ENDMDL
MODEL 2
REMARK VINA RESULT:      -9.5      1.398      2.025
REMARK  Name = 219024
REMARK  6 active torsions:
REMARK  status: ('A' for Active; 'I' for Inactive)
REMARK    1  A    between atoms: N_1  and  C1*_17
REMARK    2  A    between atoms: C_13  and  C_29
REMARK    3  A    between atoms: C2*_16  and  O2*_20
REMARK    4  A    between atoms: C3*_18  and  O3*_22
REMARK    5  A    between atoms: C4*_19  and  C5*_24
REMARK    6  A    between atoms: C5*_24  and  O5*_25
REMARK                            x       y       z     vdW  Elec       q    Type
REMARK                         _______ _______ _______ _____ _____    ______ ____
ROOT
ATOM      1  N   UNL     1      33.553 -24.408 -13.834  0.00  0.00    -0.236 N 
ATOM      2  N   UNL     1      31.360 -24.814 -13.771  0.00  0.00    -0.240 NA
ATOM      3  N   UNL     1      33.708 -23.315 -15.999  0.00  0.00    -0.309 NA
ATOM      4  N   UNL     1      31.523 -23.160 -17.074  0.00  0.00    -0.310 NA
ATOM      5  N   UNL     1      33.445 -22.332 -18.083  0.00  0.00    -0.111 N 
ATOM      6  N   UNL     1      32.694 -21.944 -19.131  0.00  0.00    -0.162 NA
ATOM      7  C   UNL     1      33.041 -23.919 -15.004  0.00  0.00    +0.221 C 
ATOM      8  C   UNL     1      32.504 -24.936 -13.128  0.00  0.00    +0.224 C 
ATOM      9  C   UNL     1      31.682 -24.180 -14.944  0.00  0.00    +0.167 C 
ATOM     10  C   UNL     1      30.915 -23.777 -16.032  0.00  0.00    +0.212 C 
ATOM     11  C   UNL     1      32.862 -22.971 -16.994  0.00  0.00    +0.229 C 
ATOM     12  C   UNL     1      34.771 -22.036 -18.221  0.00  0.00    +0.109 C 
ATOM     13  C   UNL     1      34.894 -21.412 -19.438  0.00  0.00    +0.092 C 
ATOM     14  C   UNL     1      33.584 -21.385 -19.954  0.00  0.00    +0.125 C 
ATOM     15  N   UNL     1      29.528 -24.001 -16.057  0.00  0.00    -0.331 N 
ATOM     16  H   UNL     1      28.996 -23.711 -16.832  0.00  0.00    +0.145 HD
ATOM     17  H   UNL     1      29.089 -24.450 -15.298  0.00  0.00    +0.145 HD
ENDROOT
BRANCH   1  20
ATOM     18  O4* UNL     1      35.559 -23.140 -13.829  0.00  0.00    -0.333 OA
ATOM     19  C2* UNL     1      35.792 -25.524 -13.982  0.00  0.00    +0.187 C 
ATOM     20  C1* UNL     1      34.953 -24.380 -13.408  0.00  0.00    +0.226 C 
ATOM     21  C3* UNL     1      36.581 -24.842 -15.085  0.00  0.00    +0.171 C 
ATOM     22  C4* UNL     1      36.781 -23.445 -14.521  0.00  0.00    +0.175 C 
BRANCH  19  23
ATOM     23  O2* UNL     1      36.656 -26.028 -12.965  0.00  0.00    -0.378 OA
ATOM     24  H2* UNL     1      37.082 -25.288 -12.505  0.00  0.00    +0.211 HD
ENDBRANCH  19  23
BRANCH  21  25
ATOM     25  O3* UNL     1      37.807 -25.479 -15.375  0.00  0.00    -0.379 OA
ATOM     26  H3* UNL     1      38.360 -25.493 -14.579  0.00  0.00    +0.211 HD
ENDBRANCH  21  25
BRANCH  22  27
ATOM     27  C5* UNL     1      37.043 -22.396 -15.587  0.00  0.00    +0.169 C 
BRANCH  27  28
ATOM     28  O5* UNL     1      37.999 -22.908 -16.501  0.00  0.00    -0.379 OA
ATOM     29  H5* UNL     1      37.544 -23.388 -17.209  0.00  0.00    +0.211 HD
ENDBRANCH  27  28
ENDBRANCH  22  27
ENDBRANCH   1  20
BRANCH  13  32
ATOM     30  O   UNL     1      37.176 -21.575 -20.008  0.00  0.00    -0.270 OA
ATOM     31  N   UNL     1      36.059 -19.655 -20.625  0.00  0.00    -0.299 N 
ATOM     32  C   UNL     1      36.109 -20.920 -20.013  0.00  0.00    +0.249 C 
ATOM     33  C   UNL     1      37.193 -19.036 -21.273  0.00  0.00    +0.111 C 
ATOM     34  H   UNL     1      35.205 -19.165 -20.612  0.00  0.00    +0.150 HD
ENDBRANCH  13  32
TORSDOF 6
ENDMDL
MODEL 3
REMARK VINA RESULT:      -8.9      4.090      7.920
REMARK  Name = 219024
REMARK  6 active torsions:
REMARK  status: ('A' for Active; 'I' for Inactive)
REMARK    1  A    between atoms: N_1  and  C1*_17
REMARK    2  A    between atoms: C_13  and  C_29
REMARK    3  A    between atoms: C2*_16  and  O2*_20
REMARK    4  A    between atoms: C3*_18  and  O3*_22
REMARK    5  A    between atoms: C4*_19  and  C5*_24
REMARK    6  A    between atoms: C5*_24  and  O5*_25
REMARK                            x       y       z     vdW  Elec       q    Type
REMARK                         _______ _______ _______ _____ _____    ______ ____
ROOT
ATOM      1  N   UNL     1      35.190 -21.522 -19.468  0.00  0.00    -0.236 N 
ATOM      2  N   UNL     1      36.957 -22.005 -18.194  0.00  0.00    -0.240 NA
ATOM      3  N   UNL     1      33.408 -22.313 -18.019  0.00  0.00    -0.309 NA
ATOM      4  N   UNL     1      34.295 -23.229 -15.938  0.00  0.00    -0.310 NA
ATOM      5  N   UNL     1      32.014 -23.169 -16.373  0.00  0.00    -0.111 N 
ATOM      6  N   UNL     1      31.798 -23.742 -15.175  0.00  0.00    -0.162 NA
ATOM      7  C   UNL     1      34.694 -22.087 -18.326  0.00  0.00    +0.221 C 
ATOM      8  C   UNL     1      36.554 -21.495 -19.340  0.00  0.00    +0.224 C 
ATOM      9  C   UNL     1      35.804 -22.378 -17.551  0.00  0.00    +0.167 C 
ATOM     10  C   UNL     1      35.571 -22.971 -16.315  0.00  0.00    +0.212 C 
ATOM     11  C   UNL     1      33.307 -22.889 -16.801  0.00  0.00    +0.229 C 
ATOM     12  C   UNL     1      30.869 -22.914 -17.072  0.00  0.00    +0.109 C 
ATOM     13  C   UNL     1      29.837 -23.349 -16.277  0.00  0.00    +0.092 C 
ATOM     14  C   UNL     1      30.468 -23.850 -15.123  0.00  0.00    +0.125 C 
ATOM     15  N   UNL     1      36.639 -23.301 -15.463  0.00  0.00    -0.331 N 
ATOM     16  H   UNL     1      36.461 -23.720 -14.590  0.00  0.00    +0.145 HD
ATOM     17  H   UNL     1      37.565 -23.113 -15.739  0.00  0.00    +0.145 HD
ENDROOT
BRANCH   1  20
ATOM     18  O4* UNL     1      35.325 -20.583 -21.643  0.00  0.00    -0.333 OA
ATOM     19  C2* UNL     1      33.484 -19.874 -20.277  0.00  0.00    +0.187 C 
ATOM     20  C1* UNL     1      34.421 -21.036 -20.614  0.00  0.00    +0.226 C 
ATOM     21  C3* UNL     1      34.224 -18.672 -20.834  0.00  0.00    +0.171 C 
ATOM     22  C4* UNL     1      34.929 -19.261 -22.044  0.00  0.00    +0.175 C 
BRANCH  19  23
ATOM     23  O2* UNL     1      32.237 -20.068 -20.943  0.00  0.00    -0.378 OA
ATOM     24  H2* UNL     1      31.526 -19.661 -20.424  0.00  0.00    +0.211 HD
ENDBRANCH  19  23
BRANCH  21  25
ATOM     25  O3* UNL     1      33.374 -17.601 -21.183  0.00  0.00    -0.379 OA
ATOM     26  H3* UNL     1      33.011 -17.201 -20.376  0.00  0.00    +0.211 HD
ENDBRANCH  21  25
BRANCH  22  27
ATOM     27  C5* UNL     1      36.150 -18.468 -22.476  0.00  0.00    +0.169 C 
BRANCH  27  28
ATOM     28  O5* UNL     1      35.716 -17.263 -23.083  0.00  0.00    -0.379 OA
ATOM     29  H5* UNL     1      34.953 -16.913 -22.597  0.00  0.00    +0.211 HD
ENDBRANCH  27  28
ENDBRANCH  22  27
ENDBRANCH   1  20
BRANCH  13  32
ATOM     30  O   UNL     1      27.874 -24.137 -17.317  0.00  0.00    -0.270 OA
ATOM     31  N   UNL     1      27.707 -22.225 -16.041  0.00  0.00    -0.299 N 
ATOM     32  C   UNL     1      28.444 -23.286 -16.598  0.00  0.00    +0.249 C 
ATOM     33  C   UNL     1      26.288 -22.042 -16.248  0.00  0.00    +0.111 C 
ATOM     34  H   UNL     1      28.184 -21.571 -15.479  0.00  0.00    +0.150 HD
ENDBRANCH  13  32
TORSDOF 6
ENDMDL
MODEL 4
REMARK VINA RESULT:      -8.7      3.318      5.090
REMARK  Name = 219024
REMARK  6 active torsions:
REMARK  status: ('A' for Active; 'I' for Inactive)
REMARK    1  A    between atoms: N_1  and  C1*_17
REMARK    2  A    between atoms: C_13  and  C_29
REMARK    3  A    between atoms: C2*_16  and  O2*_20
REMARK    4  A    between atoms: C3*_18  and  O3*_22
REMARK    5  A    between atoms: C4*_19  and  C5*_24
REMARK    6  A    between atoms: C5*_24  and  O5*_25
REMARK                            x       y       z     vdW  Elec       q    Type
REMARK                         _______ _______ _______ _____ _____    ______ ____
ROOT
ATOM      1  N   UNL     1      32.617 -23.455 -14.800  0.00  0.00    -0.236 N 
ATOM      2  N   UNL     1      34.275 -24.511 -13.745  0.00  0.00    -0.240 NA
ATOM      3  N   UNL     1      33.832 -22.585 -16.715  0.00  0.00    -0.309 NA
ATOM      4  N   UNL     1      36.187 -23.219 -16.635  0.00  0.00    -0.310 NA
ATOM      5  N   UNL     1      35.322 -21.943 -18.373  0.00  0.00    -0.111 N 
ATOM      6  N   UNL     1      36.549 -21.911 -18.924  0.00  0.00    -0.162 NA
ATOM      7  C   UNL     1      33.735 -23.266 -15.563  0.00  0.00    +0.221 C 
ATOM      8  C   UNL     1      32.994 -24.209 -13.719  0.00  0.00    +0.224 C 
ATOM      9  C   UNL     1      34.750 -23.928 -14.893  0.00  0.00    +0.167 C 
ATOM     10  C   UNL     1      36.015 -23.889 -15.470  0.00  0.00    +0.212 C 
ATOM     11  C   UNL     1      35.101 -22.617 -17.177  0.00  0.00    +0.229 C 
ATOM     12  C   UNL     1      34.380 -21.268 -19.096  0.00  0.00    +0.109 C 
ATOM     13  C   UNL     1      35.036 -20.764 -20.192  0.00  0.00    +0.092 C 
ATOM     14  C   UNL     1      36.368 -21.190 -20.033  0.00  0.00    +0.125 C 
ATOM     15  N   UNL     1      37.104 -24.533 -14.859  0.00  0.00    -0.331 N 
ATOM     16  H   UNL     1      37.995 -24.498 -15.277  0.00  0.00    +0.145 HD
ATOM     17  H   UNL     1      36.976 -25.020 -14.012  0.00  0.00    +0.145 HD
ENDROOT
BRANCH   1  20
ATOM     18  O4* UNL     1      30.333 -23.564 -14.162  0.00  0.00    -0.333 OA
ATOM     19  C2* UNL     1      30.785 -23.238 -16.497  0.00  0.00    +0.187 C 
ATOM     20  C1* UNL     1      31.270 -22.952 -15.073  0.00  0.00    +0.226 C 
ATOM     21  C3* UNL     1      29.827 -24.398 -16.299  0.00  0.00    +0.171 C 
ATOM     22  C4* UNL     1      29.243 -24.104 -14.928  0.00  0.00    +0.175 C 
BRANCH  19  23
ATOM     23  O2* UNL     1      30.108 -22.088 -17.002  0.00  0.00    -0.378 OA
ATOM     24  H2* UNL     1      29.875 -22.233 -17.932  0.00  0.00    +0.211 HD
ENDBRANCH  19  23
BRANCH  21  25
ATOM     25  O3* UNL     1      28.831 -24.480 -17.295  0.00  0.00    -0.379 OA
ATOM     26  H3* UNL     1      28.224 -23.728 -17.208  0.00  0.00    +0.211 HD
ENDBRANCH  21  25
BRANCH  22  27
ATOM     27  C5* UNL     1      28.686 -25.333 -14.233  0.00  0.00    +0.169 C 
BRANCH  27  28
ATOM     28  O5* UNL     1      29.542 -26.431 -14.498  0.00  0.00    -0.379 OA
ATOM     29  H5* UNL     1      30.088 -26.612 -13.717  0.00  0.00    +0.211 HD
ENDBRANCH  27  28
ENDBRANCH  22  27
ENDBRANCH   1  20
BRANCH  13  32
ATOM     30  O   UNL     1      33.215 -19.799 -21.337  0.00  0.00    -0.270 OA
ATOM     31  N   UNL     1      35.328 -19.382 -22.156  0.00  0.00    -0.299 N 
ATOM     32  C   UNL     1      34.449 -19.981 -21.236  0.00  0.00    +0.249 C 
ATOM     33  C   UNL     1      34.892 -18.540 -23.247  0.00  0.00    +0.111 C 
ATOM     34  H   UNL     1      36.294 -19.544 -22.051  0.00  0.00    +0.150 HD
ENDBRANCH  13  32
TORSDOF 6
ENDMDL
MODEL 5
REMARK VINA RESULT:      -8.0      2.488      6.795
REMARK  Name = 219024
REMARK  6 active torsions:
REMARK  status: ('A' for Active; 'I' for Inactive)
REMARK    1  A    between atoms: N_1  and  C1*_17
REMARK    2  A    between atoms: C_13  and  C_29
REMARK    3  A    between atoms: C2*_16  and  O2*_20
REMARK    4  A    between atoms: C3*_18  and  O3*_22
REMARK    5  A    between atoms: C4*_19  and  C5*_24
REMARK    6  A    between atoms: C5*_24  and  O5*_25
REMARK                            x       y       z     vdW  Elec       q    Type
REMARK                         _______ _______ _______ _____ _____    ______ ____
ROOT
ATOM      1  N   UNL     1      32.468 -23.060 -17.069  0.00  0.00    -0.236 N 
ATOM      2  N   UNL     1      30.699 -22.741 -15.747  0.00  0.00    -0.240 NA
ATOM      3  N   UNL     1      34.071 -23.859 -15.429  0.00  0.00    -0.309 NA
ATOM      4  N   UNL     1      33.089 -23.951 -13.198  0.00  0.00    -0.310 NA
ATOM      5  N   UNL     1      35.292 -24.574 -13.590  0.00  0.00    -0.111 N 
ATOM      6  N   UNL     1      35.418 -24.851 -12.279  0.00  0.00    -0.162 NA
ATOM      7  C   UNL     1      32.866 -23.412 -15.810  0.00  0.00    +0.221 C 
ATOM      8  C   UNL     1      31.158 -22.664 -16.979  0.00  0.00    +0.224 C 
ATOM      9  C   UNL     1      31.756 -23.208 -15.006  0.00  0.00    +0.167 C 
ATOM     10  C   UNL     1      31.897 -23.495 -13.653  0.00  0.00    +0.212 C 
ATOM     11  C   UNL     1      34.087 -24.102 -14.100  0.00  0.00    +0.229 C 
ATOM     12  C   UNL     1      36.429 -24.804 -14.310  0.00  0.00    +0.109 C 
ATOM     13  C   UNL     1      37.360 -25.261 -13.410  0.00  0.00    +0.092 C 
ATOM     14  C   UNL     1      36.682 -25.268 -12.176  0.00  0.00    +0.125 C 
ATOM     15  N   UNL     1      30.823 -23.317 -12.764  0.00  0.00    -0.331 N 
ATOM     16  H   UNL     1      30.935 -23.524 -11.809  0.00  0.00    +0.145 HD
ATOM     17  H   UNL     1      29.958 -22.986 -13.098  0.00  0.00    +0.145 HD
ENDROOT
BRANCH   1  20
ATOM     18  O4* UNL     1      34.673 -23.185 -17.937  0.00  0.00    -0.333 OA
ATOM     19  C2* UNL     1      33.103 -21.857 -19.175  0.00  0.00    +0.187 C 
ATOM     20  C1* UNL     1      33.277 -23.093 -18.289  0.00  0.00    +0.226 C 
ATOM     21  C3* UNL     1      34.365 -21.063 -18.895  0.00  0.00    +0.171 C 
ATOM     22  C4* UNL     1      35.387 -22.158 -18.645  0.00  0.00    +0.175 C 
BRANCH  19  23
ATOM     23  O2* UNL     1      33.041 -22.264 -20.541  0.00  0.00    -0.378 OA
ATOM     24  H2* UNL     1      33.089 -21.483 -21.113  0.00  0.00    +0.211 HD
ENDBRANCH  19  23
BRANCH  21  25
ATOM     25  O3* UNL     1      34.743 -20.215 -19.958  0.00  0.00    -0.379 OA
ATOM     26  H3* UNL     1      34.215 -19.401 -19.925  0.00  0.00    +0.211 HD
ENDBRANCH  21  25
BRANCH  22  27
ATOM     27  C5* UNL     1      36.576 -21.698 -17.821  0.00  0.00    +0.169 C 
BRANCH  27  28
ATOM     28  O5* UNL     1      36.426 -22.183 -16.498  0.00  0.00    -0.379 OA
ATOM     29  H5* UNL     1      35.483 -22.228 -16.275  0.00  0.00    +0.211 HD
ENDBRANCH  27  28
ENDBRANCH  22  27
ENDBRANCH   1  20
BRANCH  13  32
ATOM     30  O   UNL     1      39.433 -26.266 -12.909  0.00  0.00    -0.270 OA
ATOM     31  N   UNL     1      39.202 -25.279 -14.979  0.00  0.00    -0.299 N 
ATOM     32  C   UNL     1      38.709 -25.633 -13.710  0.00  0.00    +0.249 C 
ATOM     33  C   UNL     1      40.531 -25.608 -15.440  0.00  0.00    +0.111 C 
ATOM     34  H   UNL     1      38.607 -24.780 -15.587  0.00  0.00    +0.150 HD
ENDBRANCH  13  32
TORSDOF 6
ENDMDL
MODEL 6
REMARK VINA RESULT:      -7.5     10.904     14.779
REMARK  Name = 219024
REMARK  6 active torsions:
REMARK  status: ('A' for Active; 'I' for Inactive)
REMARK    1  A    between atoms: N_1  and  C1*_17
REMARK    2  A    between atoms: C_13  and  C_29
REMARK    3  A    between atoms: C2*_16  and  O2*_20
REMARK    4  A    between atoms: C3*_18  and  O3*_22
REMARK    5  A    between atoms: C4*_19  and  C5*_24
REMARK    6  A    between atoms: C5*_24  and  O5*_25
REMARK                            x       y       z     vdW  Elec       q    Type
REMARK                         _______ _______ _______ _____ _____    ______ ____
ROOT
ATOM      1  N   UNL     1      31.968  -8.540 -21.776  0.00  0.00    -0.236 N 
ATOM      2  N   UNL     1      31.458  -8.392 -19.609  0.00  0.00    -0.240 NA
ATOM      3  N   UNL     1      32.319 -10.937 -21.955  0.00  0.00    -0.309 NA
ATOM      4  N   UNL     1      31.977 -12.048 -19.809  0.00  0.00    -0.310 NA
ATOM      5  N   UNL     1      32.562 -13.233 -21.719  0.00  0.00    -0.111 N 
ATOM      6  N   UNL     1      32.543 -14.364 -20.990  0.00  0.00    -0.162 NA
ATOM      7  C   UNL     1      32.021  -9.815 -21.284  0.00  0.00    +0.221 C 
ATOM      8  C   UNL     1      31.625  -7.723 -20.731  0.00  0.00    +0.224 C 
ATOM      9  C   UNL     1      31.702  -9.701 -19.941  0.00  0.00    +0.167 C 
ATOM     10  C   UNL     1      31.686 -10.875 -19.196  0.00  0.00    +0.212 C 
ATOM     11  C   UNL     1      32.272 -12.007 -21.131  0.00  0.00    +0.229 C 
ATOM     12  C   UNL     1      32.884 -13.433 -23.032  0.00  0.00    +0.109 C 
ATOM     13  C   UNL     1      33.088 -14.784 -23.169  0.00  0.00    +0.092 C 
ATOM     14  C   UNL     1      32.865 -15.306 -21.880  0.00  0.00    +0.125 C 
ATOM     15  N   UNL     1      31.373 -10.853 -17.826  0.00  0.00    -0.331 N 
ATOM     16  H   UNL     1      31.365 -11.691 -17.309  0.00  0.00    +0.145 HD
ATOM     17  H   UNL     1      31.161  -9.999 -17.383  0.00  0.00    +0.145 HD
ENDROOT
BRANCH   1  20
ATOM     18  O4* UNL     1      32.890  -9.183 -23.866  0.00  0.00    -0.333 OA
ATOM     19  C2* UNL     1      33.107  -6.871 -23.258  0.00  0.00    +0.187 C 
ATOM     20  C1* UNL     1      32.226  -8.118 -23.154  0.00  0.00    +0.226 C 
ATOM     21  C3* UNL     1      34.455  -7.444 -23.654  0.00  0.00    +0.171 C 
ATOM     22  C4* UNL     1      34.060  -8.641 -24.502  0.00  0.00    +0.175 C 
BRANCH  19  23
ATOM     23  O2* UNL     1      32.590  -6.015 -24.275  0.00  0.00    -0.378 OA
ATOM     24  H2* UNL     1      33.319  -5.689 -24.825  0.00  0.00    +0.211 HD
ENDBRANCH  19  23
BRANCH  21  25
ATOM     25  O3* UNL     1      35.266  -6.533 -24.366  0.00  0.00    -0.379 OA
ATOM     26  H3* UNL     1      35.095  -5.633 -24.047  0.00  0.00    +0.211 HD
ENDBRANCH  21  25
BRANCH  22  27
ATOM     27  C5* UNL     1      35.139  -9.706 -24.584  0.00  0.00    +0.169 C 
BRANCH  27  28
ATOM     28  O5* UNL     1      34.628 -10.912 -24.043  0.00  0.00    -0.379 OA
ATOM     29  H5* UNL     1      35.233 -11.641 -24.249  0.00  0.00    +0.211 HD
ENDBRANCH  27  28
ENDBRANCH  22  27
ENDBRANCH   1  20
BRANCH  13  32
ATOM     30  O   UNL     1      33.137 -15.038 -25.512  0.00  0.00    -0.270 OA
ATOM     31  N   UNL     1      34.208 -16.639 -24.245  0.00  0.00    -0.299 N 
ATOM     32  C   UNL     1      33.448 -15.462 -24.376  0.00  0.00    +0.249 C 
ATOM     33  C   UNL     1      34.672 -17.419 -25.369  0.00  0.00    +0.111 C 
ATOM     34  H   UNL     1      34.436 -16.947 -23.338  0.00  0.00    +0.150 HD
ENDBRANCH  13  32
TORSDOF 6
ENDMDL
MODEL 7
REMARK VINA RESULT:      -7.5      3.322      6.697
REMARK  Name = 219024
REMARK  6 active torsions:
REMARK  status: ('A' for Active; 'I' for Inactive)
REMARK    1  A    between atoms: N_1  and  C1*_17
REMARK    2  A    between atoms: C_13  and  C_29
REMARK    3  A    between atoms: C2*_16  and  O2*_20
REMARK    4  A    between atoms: C3*_18  and  O3*_22
REMARK    5  A    between atoms: C4*_19  and  C5*_24
REMARK    6  A    between atoms: C5*_24  and  O5*_25
REMARK                            x       y       z     vdW  Elec       q    Type
REMARK                         _______ _______ _______ _____ _____    ______ ____
ROOT
ATOM      1  N   UNL     1      36.374 -22.385 -16.314  0.00  0.00    -0.236 N 
ATOM      2  N   UNL     1      37.693 -23.556 -14.948  0.00  0.00    -0.240 NA
ATOM      3  N   UNL     1      34.214 -23.303 -15.690  0.00  0.00    -0.309 NA
ATOM      4  N   UNL     1      34.438 -24.998 -13.950  0.00  0.00    -0.310 NA
ATOM      5  N   UNL     1      32.369 -24.413 -14.827  0.00  0.00    -0.111 N 
ATOM      6  N   UNL     1      31.796 -25.310 -14.003  0.00  0.00    -0.162 NA
ATOM      7  C   UNL     1      35.549 -23.207 -15.600  0.00  0.00    +0.221 C 
ATOM      8  C   UNL     1      37.653 -22.632 -15.886  0.00  0.00    +0.224 C 
ATOM      9  C   UNL     1      36.385 -23.924 -14.759  0.00  0.00    +0.167 C 
ATOM     10  C   UNL     1      35.784 -24.848 -13.912  0.00  0.00    +0.212 C 
ATOM     11  C   UNL     1      33.747 -24.228 -14.824  0.00  0.00    +0.229 C 
ATOM     12  C   UNL     1      31.475 -23.750 -15.619  0.00  0.00    +0.109 C 
ATOM     13  C   UNL     1      30.238 -24.246 -15.289  0.00  0.00    +0.092 C 
ATOM     14  C   UNL     1      30.496 -25.203 -14.290  0.00  0.00    +0.125 C 
ATOM     15  N   UNL     1      36.556 -25.619 -13.026  0.00  0.00    -0.331 N 
ATOM     16  H   UNL     1      36.119 -26.270 -12.431  0.00  0.00    +0.145 HD
ATOM     17  H   UNL     1      37.534 -25.508 -13.001  0.00  0.00    +0.145 HD
ENDROOT
BRANCH   1  20
ATOM     18  O4* UNL     1      34.656 -21.740 -17.818  0.00  0.00    -0.333 OA
ATOM     19  C2* UNL     1      36.915 -21.400 -18.554  0.00  0.00    +0.187 C 
ATOM     20  C1* UNL     1      35.980 -21.421 -17.343  0.00  0.00    +0.226 C 
ATOM     21  C3* UNL     1      36.126 -22.163 -19.601  0.00  0.00    +0.171 C 
ATOM     22  C4* UNL     1      34.692 -21.798 -19.254  0.00  0.00    +0.175 C 
BRANCH  19  23
ATOM     23  O2* UNL     1      37.134 -20.049 -18.955  0.00  0.00    -0.378 OA
ATOM     24  H2* UNL     1      37.982 -19.983 -19.421  0.00  0.00    +0.211 HD
ENDBRANCH  19  23
BRANCH  21  25
ATOM     25  O3* UNL     1      36.459 -21.808 -20.926  0.00  0.00    -0.379 OA
ATOM     26  H3* UNL     1      36.657 -22.610 -21.435  0.00  0.00    +0.211 HD
ENDBRANCH  21  25
BRANCH  22  27
ATOM     27  C5* UNL     1      33.674 -22.807 -19.753  0.00  0.00    +0.169 C 
BRANCH  27  28
ATOM     28  O5* UNL     1      33.692 -23.933 -18.892  0.00  0.00    -0.379 OA
ATOM     29  H5* UNL     1      34.599 -24.094 -18.589  0.00  0.00    +0.211 HD
ENDBRANCH  27  28
ENDBRANCH  22  27
ENDBRANCH   1  20
BRANCH  13  32
ATOM     30  O   UNL     1      28.405 -24.513 -16.748  0.00  0.00    -0.270 OA
ATOM     31  N   UNL     1      28.411 -22.661 -15.376  0.00  0.00    -0.299 N 
ATOM     32  C   UNL     1      28.990 -23.846 -15.866  0.00  0.00    +0.249 C 
ATOM     33  C   UNL     1      27.143 -22.142 -15.836  0.00  0.00    +0.111 C 
ATOM     34  H   UNL     1      28.897 -22.158 -14.682  0.00  0.00    +0.150 HD
ENDBRANCH  13  32
TORSDOF 6
ENDMDL
MODEL 8
REMARK VINA RESULT:      -7.4      8.257     12.127
REMARK  Name = 219024
REMARK  6 active torsions:
REMARK  status: ('A' for Active; 'I' for Inactive)
REMARK    1  A    between atoms: N_1  and  C1*_17
REMARK    2  A    between atoms: C_13  and  C_29
REMARK    3  A    between atoms: C2*_16  and  O2*_20
REMARK    4  A    between atoms: C3*_18  and  O3*_22
REMARK    5  A    between atoms: C4*_19  and  C5*_24
REMARK    6  A    between atoms: C5*_24  and  O5*_25
REMARK                            x       y       z     vdW  Elec       q    Type
REMARK                         _______ _______ _______ _____ _____    ______ ____
ROOT
ATOM      1  N   UNL     1      34.010 -15.623 -23.506  0.00  0.00    -0.236 N 
ATOM      2  N   UNL     1      34.107 -15.878 -25.721  0.00  0.00    -0.240 NA
ATOM      3  N   UNL     1      33.456 -13.261 -23.386  0.00  0.00    -0.309 NA
ATOM      4  N   UNL     1      33.264 -12.280 -25.612  0.00  0.00    -0.310 NA
ATOM      5  N   UNL     1      32.936 -11.020 -23.688  0.00  0.00    -0.111 N 
ATOM      6  N   UNL     1      32.698  -9.947 -24.464  0.00  0.00    -0.162 NA
ATOM      7  C   UNL     1      33.732 -14.397 -24.043  0.00  0.00    +0.221 C 
ATOM      8  C   UNL     1      34.228 -16.479 -24.555  0.00  0.00    +0.224 C 
ATOM      9  C   UNL     1      33.797 -14.577 -25.416  0.00  0.00    +0.167 C 
ATOM     10  C   UNL     1      33.550 -13.462 -26.209  0.00  0.00    +0.212 C 
ATOM     11  C   UNL     1      33.236 -12.253 -24.258  0.00  0.00    +0.229 C 
ATOM     12  C   UNL     1      32.851 -10.758 -22.351  0.00  0.00    +0.109 C 
ATOM     13  C   UNL     1      32.536  -9.425 -22.247  0.00  0.00    +0.092 C 
ATOM     14  C   UNL     1      32.455  -8.977 -23.579  0.00  0.00    +0.125 C 
ATOM     15  N   UNL     1      33.594 -13.553 -27.611  0.00  0.00    -0.331 N 
ATOM     16  H   UNL     1      33.417 -12.757 -28.162  0.00  0.00    +0.145 HD
ATOM     17  H   UNL     1      33.802 -14.414 -28.042  0.00  0.00    +0.145 HD
ENDROOT
BRANCH   1  20
ATOM     18  O4* UNL     1      35.372 -16.502 -21.773  0.00  0.00    -0.333 OA
ATOM     19  C2* UNL     1      33.028 -17.007 -21.662  0.00  0.00    +0.187 C 
ATOM     20  C1* UNL     1      34.069 -15.967 -22.085  0.00  0.00    +0.226 C 
ATOM     21  C3* UNL     1      33.849 -18.277 -21.544  0.00  0.00    +0.171 C 
ATOM     22  C4* UNL     1      35.195 -17.748 -21.078  0.00  0.00    +0.175 C 
BRANCH  19  23
ATOM     23  O2* UNL     1      32.473 -16.631 -20.402  0.00  0.00    -0.378 OA
ATOM     24  H2* UNL     1      33.078 -16.894 -19.692  0.00  0.00    +0.211 HD
ENDBRANCH  19  23
BRANCH  21  25
ATOM     25  O3* UNL     1      33.306 -19.217 -20.642  0.00  0.00    -0.379 OA
ATOM     26  H3* UNL     1      33.942 -19.935 -20.502  0.00  0.00    +0.211 HD
ENDBRANCH  21  25
BRANCH  22  27
ATOM     27  C5* UNL     1      36.352 -18.680 -21.391  0.00  0.00    +0.169 C 
BRANCH  27  28
ATOM     28  O5* UNL     1      36.473 -19.622 -20.339  0.00  0.00    -0.379 OA
ATOM     29  H5* UNL     1      36.970 -19.226 -19.607  0.00  0.00    +0.211 HD
ENDBRANCH  27  28
ENDBRANCH  22  27
ENDBRANCH   1  20
BRANCH  13  32
ATOM     30  O   UNL     1      32.084  -9.257 -19.939  0.00  0.00    -0.270 OA
ATOM     31  N   UNL     1      32.490  -7.301 -21.090  0.00  0.00    -0.299 N 
ATOM     32  C   UNL     1      32.344  -8.699 -21.029  0.00  0.00    +0.249 C 
ATOM     33  C   UNL     1      32.356  -6.433 -19.942  0.00  0.00    +0.111 C 
ATOM     34  H   UNL     1      32.694  -6.891 -21.962  0.00  0.00    +0.150 HD
ENDBRANCH  13  32
TORSDOF 6
ENDMDL
MODEL 9
REMARK VINA RESULT:      -7.3     14.109     20.228
REMARK  Name = 219024
REMARK  6 active torsions:
REMARK  status: ('A' for Active; 'I' for Inactive)
REMARK    1  A    between atoms: N_1  and  C1*_17
REMARK    2  A    between atoms: C_13  and  C_29
REMARK    3  A    between atoms: C2*_16  and  O2*_20
REMARK    4  A    between atoms: C3*_18  and  O3*_22
REMARK    5  A    between atoms: C4*_19  and  C5*_24
REMARK    6  A    between atoms: C5*_24  and  O5*_25
REMARK                            x       y       z     vdW  Elec       q    Type
REMARK                         _______ _______ _______ _____ _____    ______ ____
ROOT
ATOM      1  N   UNL     1      32.458  -4.375 -26.002  0.00  0.00    -0.236 N 
ATOM      2  N   UNL     1      31.407  -2.992 -24.602  0.00  0.00    -0.240 NA
ATOM      3  N   UNL     1      32.388  -6.420 -24.693  0.00  0.00    -0.309 NA
ATOM      4  N   UNL     1      31.265  -6.068 -22.555  0.00  0.00    -0.310 NA
ATOM      5  N   UNL     1      32.121  -8.141 -23.160  0.00  0.00    -0.111 N 
ATOM      6  N   UNL     1      31.690  -8.632 -21.984  0.00  0.00    -0.162 NA
ATOM      7  C   UNL     1      32.133  -5.120 -24.903  0.00  0.00    +0.221 C 
ATOM      8  C   UNL     1      32.001  -3.103 -25.772  0.00  0.00    +0.224 C 
ATOM      9  C   UNL     1      31.483  -4.245 -24.048  0.00  0.00    +0.167 C 
ATOM     10  C   UNL     1      31.042  -4.762 -22.835  0.00  0.00    +0.212 C 
ATOM     11  C   UNL     1      31.915  -6.805 -23.487  0.00  0.00    +0.229 C 
ATOM     12  C   UNL     1      32.749  -9.068 -23.942  0.00  0.00    +0.109 C 
ATOM     13  C   UNL     1      32.725 -10.242 -23.230  0.00  0.00    +0.092 C 
ATOM     14  C   UNL     1      32.062  -9.914 -22.032  0.00  0.00    +0.125 C 
ATOM     15  N   UNL     1      30.372  -3.945 -21.907  0.00  0.00    -0.331 N 
ATOM     16  H   UNL     1      30.065  -4.322 -21.051  0.00  0.00    +0.145 HD
ATOM     17  H   UNL     1      30.211  -2.996 -22.113  0.00  0.00    +0.145 HD
ENDROOT
BRANCH   1  20
ATOM     18  O4* UNL     1      34.585  -4.703 -27.003  0.00  0.00    -0.333 OA
ATOM     19  C2* UNL     1      32.794  -4.056 -28.465  0.00  0.00    +0.187 C 
ATOM     20  C1* UNL     1      33.161  -4.836 -27.200  0.00  0.00    +0.226 C 
ATOM     21  C3* UNL     1      33.992  -3.145 -28.658  0.00  0.00    +0.171 C 
ATOM     22  C4* UNL     1      35.133  -3.996 -28.127  0.00  0.00    +0.175 C 
BRANCH  19  23
ATOM     23  O2* UNL     1      32.657  -4.967 -29.555  0.00  0.00    -0.378 OA
ATOM     24  H2* UNL     1      31.770  -4.883 -29.937  0.00  0.00    +0.211 HD
ENDBRANCH  19  23
BRANCH  21  25
ATOM     25  O3* UNL     1      34.195  -2.759 -30.000  0.00  0.00    -0.379 OA
ATOM     26  H3* UNL     1      34.571  -3.504 -30.496  0.00  0.00    +0.211 HD
ENDBRANCH  21  25
BRANCH  22  27
ATOM     27  C5* UNL     1      36.337  -3.184 -27.685  0.00  0.00    +0.169 C 
BRANCH  27  28
ATOM     28  O5* UNL     1      35.964  -1.818 -27.624  0.00  0.00    -0.379 OA
ATOM     29  H5* UNL     1      35.501  -1.572 -28.439  0.00  0.00    +0.211 HD
ENDBRANCH  27  28
ENDBRANCH  22  27
ENDBRANCH   1  20
BRANCH  13  32
ATOM     30  O   UNL     1      34.131 -11.589 -24.559  0.00  0.00    -0.270 OA
ATOM     31  N   UNL     1      32.818 -12.647 -22.987  0.00  0.00    -0.299 N 
ATOM     32  C   UNL     1      33.270 -11.495 -23.655  0.00  0.00    +0.249 C 
ATOM     33  C   UNL     1      33.294 -13.980 -23.281  0.00  0.00    +0.111 C 
ATOM     34  H   UNL     1      32.140 -12.540 -22.280  0.00  0.00    +0.150 HD
ENDBRANCH  13  32
TORSDOF 6
ENDMDL
