MODEL 1
REMARK VINA RESULT:      -5.7      0.000      0.000
REMARK  Name = 7504
REMARK  2 active torsions:
REMARK  status: ('A' for Active; 'I' for Inactive)
REMARK    1  A    between atoms: C_1  and  C_7
REMARK    2  A    between atoms: C_7  and  N_8
REMARK                            x       y       z     vdW  Elec       q    Type
REMARK                         _______ _______ _______ _____ _____    ______ ____
ROOT
ATOM      1  C   UNL     1      35.266 -19.472 -20.981  0.00  0.00    -0.044 C 
ATOM      2  C   UNL     1      35.657 -20.578 -20.226  0.00  0.00    -0.006 C 
ATOM      3  C   UNL     1      33.911 -19.185 -21.149  0.00  0.00    -0.006 C 
ATOM      4  C   UNL     1      34.692 -21.397 -19.638  0.00  0.00    -0.000 C 
ATOM      5  C   UNL     1      32.947 -20.004 -20.561  0.00  0.00    -0.000 C 
ATOM      6  C   UNL     1      33.337 -21.110 -19.805  0.00  0.00    -0.000 C 
ENDROOT
BRANCH   1   7
ATOM      7  C   UNL     1      36.297 -18.597 -21.610  0.00  0.00    -0.059 C 
BRANCH   7   8
ATOM      8  N   UNL     1      35.965 -18.249 -22.993  0.00  0.00    +0.383 N 
ATOM      9  H   UNL     1      35.924 -17.235 -23.088  0.00  0.00    -0.089 HD
ATOM     10  H   UNL     1      35.059 -18.650 -23.237  0.00  0.00    -0.089 HD
ATOM     11  H   UNL     1      36.680 -18.621 -23.618  0.00  0.00    -0.089 HD
ENDBRANCH   7   8
ENDBRANCH   1   7
TORSDOF 2
ENDMDL
MODEL 2
REMARK VINA RESULT:      -5.7      0.001      1.708
REMARK  Name = 7504
REMARK  2 active torsions:
REMARK  status: ('A' for Active; 'I' for Inactive)
REMARK    1  A    between atoms: C_1  and  C_7
REMARK    2  A    between atoms: C_7  and  N_8
REMARK                            x       y       z     vdW  Elec       q    Type
REMARK                         _______ _______ _______ _____ _____    ______ ____
ROOT
ATOM      1  C   UNL     1      35.266 -19.473 -20.981  0.00  0.00    -0.044 C 
ATOM      2  C   UNL     1      33.912 -19.185 -21.149  0.00  0.00    -0.006 C 
ATOM      3  C   UNL     1      35.656 -20.578 -20.226  0.00  0.00    -0.006 C 
ATOM      4  C   UNL     1      32.947 -20.003 -20.561  0.00  0.00    -0.000 C 
ATOM      5  C   UNL     1      34.692 -21.396 -19.638  0.00  0.00    -0.000 C 
ATOM      6  C   UNL     1      33.337 -21.109 -19.805  0.00  0.00    -0.000 C 
ENDROOT
BRANCH   1   7
ATOM      7  C   UNL     1      36.297 -18.598 -21.610  0.00  0.00    -0.059 C 
BRANCH   7   8
ATOM      8  N   UNL     1      35.966 -18.250 -22.993  0.00  0.00    +0.383 N 
ATOM      9  H   UNL     1      36.281 -18.992 -23.616  0.00  0.00    -0.089 HD
ATOM     10  H   UNL     1      36.428 -17.375 -23.244  0.00  0.00    -0.089 HD
ATOM     11  H   UNL     1      34.955 -18.136 -23.082  0.00  0.00    -0.089 HD
ENDBRANCH   7   8
ENDBRANCH   1   7
TORSDOF 2
ENDMDL
MODEL 3
REMARK VINA RESULT:      -5.7      2.680      3.942
REMARK  Name = 7504
REMARK  2 active torsions:
REMARK  status: ('A' for Active; 'I' for Inactive)
REMARK    1  A    between atoms: C_1  and  C_7
REMARK    2  A    between atoms: C_7  and  N_8
REMARK                            x       y       z     vdW  Elec       q    Type
REMARK                         _______ _______ _______ _____ _____    ______ ____
ROOT
ATOM      1  C   UNL     1      34.230 -21.366 -19.651  0.00  0.00    -0.044 C 
ATOM      2  C   UNL     1      33.155 -20.621 -20.135  0.00  0.00    -0.006 C 
ATOM      3  C   UNL     1      35.536 -21.003 -19.982  0.00  0.00    -0.006 C 
ATOM      4  C   UNL     1      33.386 -19.512 -20.950  0.00  0.00    -0.000 C 
ATOM      5  C   UNL     1      35.767 -19.895 -20.796  0.00  0.00    -0.000 C 
ATOM      6  C   UNL     1      34.692 -19.149 -21.281  0.00  0.00    -0.000 C 
ENDROOT
BRANCH   1   7
ATOM      7  C   UNL     1      33.984 -22.551 -18.780  0.00  0.00    -0.059 C 
BRANCH   7   8
ATOM      8  N   UNL     1      32.637 -22.551 -18.206  0.00  0.00    +0.383 N 
ATOM      9  H   UNL     1      32.123 -21.737 -18.543  0.00  0.00    -0.089 HD
ATOM     10  H   UNL     1      32.702 -22.515 -17.188  0.00  0.00    -0.089 HD
ATOM     11  H   UNL     1      32.148 -23.402 -18.484  0.00  0.00    -0.089 HD
ENDBRANCH   7   8
ENDBRANCH   1   7
TORSDOF 2
ENDMDL
MODEL 4
REMARK VINA RESULT:      -5.7      2.683      3.626
REMARK  Name = 7504
REMARK  2 active torsions:
REMARK  status: ('A' for Active; 'I' for Inactive)
REMARK    1  A    between atoms: C_1  and  C_7
REMARK    2  A    between atoms: C_7  and  N_8
REMARK                            x       y       z     vdW  Elec       q    Type
REMARK                         _______ _______ _______ _____ _____    ______ ____
ROOT
ATOM      1  C   UNL     1      34.222 -21.371 -19.652  0.00  0.00    -0.044 C 
ATOM      2  C   UNL     1      35.531 -21.028 -19.990  0.00  0.00    -0.006 C 
ATOM      3  C   UNL     1      33.156 -20.605 -20.125  0.00  0.00    -0.006 C 
ATOM      4  C   UNL     1      35.775 -19.919 -20.800  0.00  0.00    -0.000 C 
ATOM      5  C   UNL     1      33.400 -19.497 -20.936  0.00  0.00    -0.000 C 
ATOM      6  C   UNL     1      34.709 -19.153 -21.273  0.00  0.00    -0.000 C 
ENDROOT
BRANCH   1   7
ATOM      7  C   UNL     1      33.962 -22.556 -18.786  0.00  0.00    -0.059 C 
BRANCH   7   8
ATOM      8  N   UNL     1      32.623 -22.530 -18.193  0.00  0.00    +0.383 N 
ATOM      9  H   UNL     1      32.532 -21.710 -17.594  0.00  0.00    -0.089 HD
ATOM     10  H   UNL     1      32.481 -23.375 -17.637  0.00  0.00    -0.089 HD
ATOM     11  H   UNL     1      31.923 -22.491 -18.934  0.00  0.00    -0.089 HD
ENDBRANCH   7   8
ENDBRANCH   1   7
TORSDOF 2
ENDMDL
MODEL 5
REMARK VINA RESULT:      -5.6      1.249      1.630
REMARK  Name = 7504
REMARK  2 active torsions:
REMARK  status: ('A' for Active; 'I' for Inactive)
REMARK    1  A    between atoms: C_1  and  C_7
REMARK    2  A    between atoms: C_7  and  N_8
REMARK                            x       y       z     vdW  Elec       q    Type
REMARK                         _______ _______ _______ _____ _____    ______ ____
ROOT
ATOM      1  C   UNL     1      34.456 -19.856 -20.629  0.00  0.00    -0.044 C 
ATOM      2  C   UNL     1      35.685 -20.444 -20.330  0.00  0.00    -0.006 C 
ATOM      3  C   UNL     1      33.274 -20.444 -20.180  0.00  0.00    -0.006 C 
ATOM      4  C   UNL     1      35.732 -21.621 -19.583  0.00  0.00    -0.000 C 
ATOM      5  C   UNL     1      33.321 -21.621 -19.432  0.00  0.00    -0.000 C 
ATOM      6  C   UNL     1      34.550 -22.209 -19.133  0.00  0.00    -0.000 C 
ENDROOT
BRANCH   1   7
ATOM      7  C   UNL     1      34.406 -18.598 -21.428  0.00  0.00    -0.059 C 
BRANCH   7   8
ATOM      8  N   UNL     1      35.267 -17.551 -20.875  0.00  0.00    +0.383 N 
ATOM      9  H   UNL     1      36.028 -17.357 -21.524  0.00  0.00    -0.089 HD
ATOM     10  H   UNL     1      35.652 -17.863 -19.982  0.00  0.00    -0.089 HD
ATOM     11  H   UNL     1      34.719 -16.702 -20.729  0.00  0.00    -0.089 HD
ENDBRANCH   7   8
ENDBRANCH   1   7
TORSDOF 2
ENDMDL
MODEL 6
REMARK VINA RESULT:      -5.4      2.189      3.374
REMARK  Name = 7504
REMARK  2 active torsions:
REMARK  status: ('A' for Active; 'I' for Inactive)
REMARK    1  A    between atoms: C_1  and  C_7
REMARK    2  A    between atoms: C_7  and  N_8
REMARK                            x       y       z     vdW  Elec       q    Type
REMARK                         _______ _______ _______ _____ _____    ______ ____
ROOT
ATOM      1  C   UNL     1      34.810 -21.124 -19.703  0.00  0.00    -0.044 C 
ATOM      2  C   UNL     1      33.433 -20.955 -19.844  0.00  0.00    -0.006 C 
ATOM      3  C   UNL     1      35.689 -20.358 -20.468  0.00  0.00    -0.006 C 
ATOM      4  C   UNL     1      32.934 -20.020 -20.751  0.00  0.00    -0.000 C 
ATOM      5  C   UNL     1      35.190 -19.422 -21.375  0.00  0.00    -0.000 C 
ATOM      6  C   UNL     1      33.813 -19.253 -21.517  0.00  0.00    -0.000 C 
ENDROOT
BRANCH   1   7
ATOM      7  C   UNL     1      35.343 -22.124 -18.733  0.00  0.00    -0.059 C 
BRANCH   7   8
ATOM      8  N   UNL     1      36.630 -21.719 -18.165  0.00  0.00    +0.383 N 
ATOM      9  H   UNL     1      37.361 -21.823 -18.868  0.00  0.00    -0.089 HD
ATOM     10  H   UNL     1      36.847 -22.307 -17.360  0.00  0.00    -0.089 HD
ATOM     11  H   UNL     1      36.580 -20.743 -17.869  0.00  0.00    -0.089 HD
ENDBRANCH   7   8
ENDBRANCH   1   7
TORSDOF 2
ENDMDL
MODEL 7
REMARK VINA RESULT:      -5.2      2.902      4.422
REMARK  Name = 7504
REMARK  2 active torsions:
REMARK  status: ('A' for Active; 'I' for Inactive)
REMARK    1  A    between atoms: C_1  and  C_7
REMARK    2  A    between atoms: C_7  and  N_8
REMARK                            x       y       z     vdW  Elec       q    Type
REMARK                         _______ _______ _______ _____ _____    ______ ____
ROOT
ATOM      1  C   UNL     1      35.000 -18.472 -22.784  0.00  0.00    -0.044 C 
ATOM      2  C   UNL     1      35.161 -17.098 -22.605  0.00  0.00    -0.006 C 
ATOM      3  C   UNL     1      34.670 -18.978 -24.041  0.00  0.00    -0.006 C 
ATOM      4  C   UNL     1      34.993 -16.230 -23.683  0.00  0.00    -0.000 C 
ATOM      5  C   UNL     1      34.502 -18.110 -25.120  0.00  0.00    -0.000 C 
ATOM      6  C   UNL     1      34.663 -16.735 -24.941  0.00  0.00    -0.000 C 
ENDROOT
BRANCH   1   7
ATOM      7  C   UNL     1      35.180 -19.400 -21.631  0.00  0.00    -0.059 C 
BRANCH   7   8
ATOM      8  N   UNL     1      36.088 -18.861 -20.617  0.00  0.00    +0.383 N 
ATOM      9  H   UNL     1      35.565 -18.652 -19.768  0.00  0.00    -0.089 HD
ATOM     10  H   UNL     1      36.523 -18.008 -20.969  0.00  0.00    -0.089 HD
ATOM     11  H   UNL     1      36.813 -19.550 -20.409  0.00  0.00    -0.089 HD
ENDBRANCH   7   8
ENDBRANCH   1   7
TORSDOF 2
ENDMDL
MODEL 8
REMARK VINA RESULT:      -5.2      2.897      4.376
REMARK  Name = 7504
REMARK  2 active torsions:
REMARK  status: ('A' for Active; 'I' for Inactive)
REMARK    1  A    between atoms: C_1  and  C_7
REMARK    2  A    between atoms: C_7  and  N_8
REMARK                            x       y       z     vdW  Elec       q    Type
REMARK                         _______ _______ _______ _____ _____    ______ ____
ROOT
ATOM      1  C   UNL     1      34.941 -18.501 -22.763  0.00  0.00    -0.044 C 
ATOM      2  C   UNL     1      34.685 -19.027 -24.029  0.00  0.00    -0.006 C 
ATOM      3  C   UNL     1      35.071 -17.123 -22.592  0.00  0.00    -0.006 C 
ATOM      4  C   UNL     1      34.558 -18.173 -25.126  0.00  0.00    -0.000 C 
ATOM      5  C   UNL     1      34.944 -16.270 -23.689  0.00  0.00    -0.000 C 
ATOM      6  C   UNL     1      34.687 -16.795 -24.955  0.00  0.00    -0.000 C 
ENDROOT
BRANCH   1   7
ATOM      7  C   UNL     1      35.077 -19.413 -21.591  0.00  0.00    -0.059 C 
BRANCH   7   8
ATOM      8  N   UNL     1      36.069 -18.937 -20.625  0.00  0.00    +0.383 N 
ATOM      9  H   UNL     1      37.002 -19.210 -20.933  0.00  0.00    -0.089 HD
ATOM     10  H   UNL     1      35.878 -19.349 -19.711  0.00  0.00    -0.089 HD
ATOM     11  H   UNL     1      36.017 -17.920 -20.557  0.00  0.00    -0.089 HD
ENDBRANCH   7   8
ENDBRANCH   1   7
TORSDOF 2
ENDMDL
MODEL 9
REMARK VINA RESULT:      -5.1     12.463     13.378
REMARK  Name = 7504
REMARK  2 active torsions:
REMARK  status: ('A' for Active; 'I' for Inactive)
REMARK    1  A    between atoms: C_1  and  C_7
REMARK    2  A    between atoms: C_7  and  N_8
REMARK                            x       y       z     vdW  Elec       q    Type
REMARK                         _______ _______ _______ _____ _____    ______ ____
ROOT
ATOM      1  C   UNL     1      32.859  -7.095 -22.316  0.00  0.00    -0.044 C 
ATOM      2  C   UNL     1      34.097  -7.709 -22.504  0.00  0.00    -0.006 C 
ATOM      3  C   UNL     1      32.313  -6.300 -23.323  0.00  0.00    -0.006 C 
ATOM      4  C   UNL     1      34.790  -7.528 -23.701  0.00  0.00    -0.000 C 
ATOM      5  C   UNL     1      33.006  -6.118 -24.520  0.00  0.00    -0.000 C 
ATOM      6  C   UNL     1      34.245  -6.732 -24.709  0.00  0.00    -0.000 C 
ENDROOT
BRANCH   1   7
ATOM      7  C   UNL     1      32.118  -7.290 -21.036  0.00  0.00    -0.059 C 
BRANCH   7   8
ATOM      8  N   UNL     1      33.000  -7.678 -19.934  0.00  0.00    +0.383 N 
ATOM      9  H   UNL     1      32.883  -8.671 -19.737  0.00  0.00    -0.089 HD
ATOM     10  H   UNL     1      32.763  -7.136 -19.102  0.00  0.00    -0.089 HD
ATOM     11  H   UNL     1      33.970  -7.494 -20.193  0.00  0.00    -0.089 HD
ENDBRANCH   7   8
ENDBRANCH   1   7
TORSDOF 2
ENDMDL
