MODEL 1
REMARK VINA RESULT:      -9.0      0.000      0.000
REMARK  Name = 5318517
REMARK  6 active torsions:
REMARK  status: ('A' for Active; 'I' for Inactive)
REMARK    1  A    between atoms: C_3  and  C_16
REMARK    2  A    between atoms: C_4  and  C_19
REMARK    3  A    between atoms: C_6  and  O_14
REMARK    4  A    between atoms: C_16  and  O_17
REMARK    5  A    between atoms: C_19  and  C_22
REMARK    6  A    between atoms: C_24  and  O_27
REMARK                            x       y       z     vdW  Elec       q    Type
REMARK                         _______ _______ _______ _____ _____    ______ ____
ROOT
ATOM      1  C   UNL     1      32.454 -23.869 -14.717  0.00  0.00    +0.004 C 
ATOM      2  C   UNL     1      31.501 -23.930 -15.980  0.00  0.00    +0.005 C 
ATOM      3  C   UNL     1      29.951 -23.961 -15.696  0.00  0.00    +0.052 C 
ATOM      4  C   UNL     1      33.926 -24.167 -15.228  0.00  0.00    +0.023 C 
ATOM      5  C   UNL     1      32.014 -24.959 -13.706  0.00  0.00    +0.003 C 
ATOM      6  C   UNL     1      29.661 -25.047 -14.618  0.00  0.00    +0.113 C 
ATOM      7  C   UNL     1      31.935 -22.908 -17.056  0.00  0.00    +0.005 C 
ATOM      8  C   UNL     1      30.527 -24.922 -13.369  0.00  0.00    +0.029 C 
ATOM      9  C   UNL     1      32.437 -22.495 -13.997  0.00  0.00    +0.000 C 
ATOM     10  C   UNL     1      33.387 -23.124 -17.488  0.00  0.00    +0.022 C 
ATOM     11  C   UNL     1      34.321 -23.158 -16.306  0.00  0.00    -0.044 C 
ATOM     12  C   UNL     1      29.199 -24.391 -16.988  0.00  0.00    +0.005 C 
ATOM     13  C   UNL     1      35.385 -22.338 -16.259  0.00  0.00    -0.009 C 
ENDROOT
BRANCH   6  14
ATOM     14  O   UNL     1      28.288 -25.053 -14.232  0.00  0.00    -0.384 OA
ATOM     15  H   UNL     1      28.223 -25.106 -13.265  0.00  0.00    +0.210 HD
ENDBRANCH   6  14
BRANCH   3  16
ATOM     16  C   UNL     1      29.353 -22.594 -15.301  0.00  0.00    +0.139 C 
BRANCH  16  17
ATOM     17  O   UNL     1      28.635 -22.099 -16.410  0.00  0.00    -0.382 OA
ATOM     18  H   UNL     1      27.861 -22.661 -16.571  0.00  0.00    +0.210 HD
ENDBRANCH  16  17
ENDBRANCH   3  16
BRANCH   4  19
ATOM     19  C   UNL     1      34.968 -24.338 -14.110  0.00  0.00    +0.030 C 
BRANCH  19  22
ATOM     20  O   UNL     1      39.286 -26.334 -14.144  0.00  0.00    -0.443 OA
ATOM     21  O   UNL     1      37.700 -27.678 -15.134  0.00  0.00    -0.245 OA
ATOM     22  C   UNL     1      35.850 -25.511 -14.382  0.00  0.00    -0.021 C 
ATOM     23  C   UNL     1      37.182 -25.471 -14.305  0.00  0.00    +0.079 C 
ATOM     24  C   UNL     1      38.045 -24.346 -13.877  0.00  0.00    +0.182 C 
ATOM     25  C   UNL     1      38.033 -26.641 -14.591  0.00  0.00    +0.339 C 
ATOM     26  C   UNL     1      39.264 -25.103 -13.398  0.00  0.00    +0.242 C 
BRANCH  24  27
ATOM     27  O   UNL     1      38.400 -23.557 -15.005  0.00  0.00    -0.376 OA
ATOM     28  H   UNL     1      38.551 -24.135 -15.770  0.00  0.00    +0.211 HD
ENDBRANCH  24  27
ENDBRANCH  19  22
ENDBRANCH   4  19
TORSDOF 6
ENDMDL
MODEL 2
REMARK VINA RESULT:      -7.8      1.778      2.206
REMARK  Name = 5318517
REMARK  6 active torsions:
REMARK  status: ('A' for Active; 'I' for Inactive)
REMARK    1  A    between atoms: C_3  and  C_16
REMARK    2  A    between atoms: C_4  and  C_19
REMARK    3  A    between atoms: C_6  and  O_14
REMARK    4  A    between atoms: C_16  and  O_17
REMARK    5  A    between atoms: C_19  and  C_22
REMARK    6  A    between atoms: C_24  and  O_27
REMARK                            x       y       z     vdW  Elec       q    Type
REMARK                         _______ _______ _______ _____ _____    ______ ____
ROOT
ATOM      1  C   UNL     1      32.639 -23.965 -15.243  0.00  0.00    +0.004 C 
ATOM      2  C   UNL     1      31.463 -23.701 -16.270  0.00  0.00    +0.005 C 
ATOM      3  C   UNL     1      30.001 -23.681 -15.682  0.00  0.00    +0.052 C 
ATOM      4  C   UNL     1      33.946 -24.255 -16.096  0.00  0.00    +0.023 C 
ATOM      5  C   UNL     1      32.282 -25.205 -14.384  0.00  0.00    +0.003 C 
ATOM      6  C   UNL     1      29.804 -24.941 -14.789  0.00  0.00    +0.113 C 
ATOM      7  C   UNL     1      31.794 -22.513 -17.204  0.00  0.00    +0.005 C 
ATOM      8  C   UNL     1      30.899 -25.135 -13.745  0.00  0.00    +0.029 C 
ATOM      9  C   UNL     1      32.909 -22.770 -14.293  0.00  0.00    +0.000 C 
ATOM     10  C   UNL     1      33.106 -22.737 -17.960  0.00  0.00    +0.022 C 
ATOM     11  C   UNL     1      34.237 -23.077 -17.024  0.00  0.00    -0.044 C 
ATOM     12  C   UNL     1      28.976 -23.784 -16.847  0.00  0.00    +0.005 C 
ATOM     13  C   UNL     1      35.374 -22.361 -17.047  0.00  0.00    -0.009 C 
ENDROOT
BRANCH   6  14
ATOM     14  O   UNL     1      28.536 -24.930 -14.134  0.00  0.00    -0.384 OA
ATOM     15  H   UNL     1      27.973 -25.627 -14.506  0.00  0.00    +0.210 HD
ENDBRANCH   6  14
BRANCH   3  16
ATOM     16  C   UNL     1      29.641 -22.385 -14.925  0.00  0.00    +0.139 C 
BRANCH  16  17
ATOM     17  O   UNL     1      28.343 -22.000 -15.317  0.00  0.00    -0.382 OA
ATOM     18  H   UNL     1      27.697 -22.632 -14.964  0.00  0.00    +0.210 HD
ENDBRANCH  16  17
ENDBRANCH   3  16
BRANCH   4  19
ATOM     19  C   UNL     1      35.156 -24.723 -15.269  0.00  0.00    +0.030 C 
BRANCH  19  22
ATOM     20  O   UNL     1      36.998 -24.320 -10.901  0.00  0.00    -0.443 OA
ATOM     21  O   UNL     1      34.830 -23.551 -11.004  0.00  0.00    -0.245 OA
ATOM     22  C   UNL     1      35.055 -24.237 -13.861  0.00  0.00    -0.021 C 
ATOM     23  C   UNL     1      35.935 -24.546 -12.906  0.00  0.00    +0.079 C 
ATOM     24  C   UNL     1      37.188 -25.325 -13.027  0.00  0.00    +0.182 C 
ATOM     25  C   UNL     1      35.806 -24.064 -11.518  0.00  0.00    +0.339 C 
ATOM     26  C   UNL     1      37.974 -24.763 -11.863  0.00  0.00    +0.242 C 
BRANCH  24  27
ATOM     27  O   UNL     1      36.923 -26.701 -12.789  0.00  0.00    -0.376 OA
ATOM     28  H   UNL     1      36.605 -27.116 -13.606  0.00  0.00    +0.211 HD
ENDBRANCH  24  27
ENDBRANCH  19  22
ENDBRANCH   4  19
TORSDOF 6
ENDMDL
MODEL 3
REMARK VINA RESULT:      -7.7      1.785      7.037
REMARK  Name = 5318517
REMARK  6 active torsions:
REMARK  status: ('A' for Active; 'I' for Inactive)
REMARK    1  A    between atoms: C_3  and  C_16
REMARK    2  A    between atoms: C_4  and  C_19
REMARK    3  A    between atoms: C_6  and  O_14
REMARK    4  A    between atoms: C_16  and  O_17
REMARK    5  A    between atoms: C_19  and  C_22
REMARK    6  A    between atoms: C_24  and  O_27
REMARK                            x       y       z     vdW  Elec       q    Type
REMARK                         _______ _______ _______ _____ _____    ______ ____
ROOT
ATOM      1  C   UNL     1      35.219 -23.729 -14.730  0.00  0.00    +0.004 C 
ATOM      2  C   UNL     1      36.501 -22.991 -14.165  0.00  0.00    +0.005 C 
ATOM      3  C   UNL     1      37.167 -23.615 -12.880  0.00  0.00    +0.052 C 
ATOM      4  C   UNL     1      34.556 -22.759 -15.798  0.00  0.00    +0.023 C 
ATOM      5  C   UNL     1      34.233 -23.982 -13.561  0.00  0.00    +0.003 C 
ATOM      6  C   UNL     1      36.058 -23.880 -11.820  0.00  0.00    +0.113 C 
ATOM      7  C   UNL     1      37.494 -22.650 -15.300  0.00  0.00    +0.005 C 
ATOM      8  C   UNL     1      34.868 -24.668 -12.357  0.00  0.00    +0.029 C 
ATOM      9  C   UNL     1      35.536 -25.087 -15.408  0.00  0.00    +0.000 C 
ATOM     10  C   UNL     1      36.839 -21.796 -16.387  0.00  0.00    +0.022 C 
ATOM     11  C   UNL     1      35.565 -22.421 -16.895  0.00  0.00    -0.044 C 
ATOM     12  C   UNL     1      38.153 -22.585 -12.259  0.00  0.00    +0.005 C 
ATOM     13  C   UNL     1      35.397 -22.645 -18.209  0.00  0.00    -0.009 C 
ENDROOT
BRANCH   6  14
ATOM     14  O   UNL     1      36.576 -24.549 -10.671  0.00  0.00    -0.384 OA
ATOM     15  H   UNL     1      35.843 -24.831 -10.102  0.00  0.00    +0.210 HD
ENDBRANCH   6  14
BRANCH   3  16
ATOM     16  C   UNL     1      38.006 -24.881 -13.154  0.00  0.00    +0.139 C 
BRANCH  16  17
ATOM     17  O   UNL     1      39.368 -24.526 -13.066  0.00  0.00    -0.382 OA
ATOM     18  H   UNL     1      39.454 -23.690 -12.582  0.00  0.00    +0.210 HD
ENDBRANCH  16  17
ENDBRANCH   3  16
BRANCH   4  19
ATOM     19  C   UNL     1      33.187 -23.226 -16.320  0.00  0.00    +0.030 C 
BRANCH  19  22
ATOM     20  O   UNL     1      28.892 -24.473 -14.696  0.00  0.00    -0.443 OA
ATOM     21  O   UNL     1      30.399 -24.124 -12.990  0.00  0.00    -0.245 OA
ATOM     22  C   UNL     1      32.293 -23.613 -15.189  0.00  0.00    -0.021 C 
ATOM     23  C   UNL     1      30.971 -23.761 -15.307  0.00  0.00    +0.079 C 
ATOM     24  C   UNL     1      30.140 -23.667 -16.529  0.00  0.00    +0.182 C 
ATOM     25  C   UNL     1      30.106 -24.132 -14.171  0.00  0.00    +0.339 C 
ATOM     26  C   UNL     1      28.970 -24.539 -16.133  0.00  0.00    +0.242 C 
BRANCH  24  27
ATOM     27  O   UNL     1      29.688 -22.331 -16.700  0.00  0.00    -0.376 OA
ATOM     28  H   UNL     1      28.729 -22.293 -16.556  0.00  0.00    +0.211 HD
ENDBRANCH  24  27
ENDBRANCH  19  22
ENDBRANCH   4  19
TORSDOF 6
ENDMDL
MODEL 4
REMARK VINA RESULT:      -7.5      8.509     10.660
REMARK  Name = 5318517
REMARK  6 active torsions:
REMARK  status: ('A' for Active; 'I' for Inactive)
REMARK    1  A    between atoms: C_3  and  C_16
REMARK    2  A    between atoms: C_4  and  C_19
REMARK    3  A    between atoms: C_6  and  O_14
REMARK    4  A    between atoms: C_16  and  O_17
REMARK    5  A    between atoms: C_19  and  C_22
REMARK    6  A    between atoms: C_24  and  O_27
REMARK                            x       y       z     vdW  Elec       q    Type
REMARK                         _______ _______ _______ _____ _____    ______ ____
ROOT
ATOM      1  C   UNL     1      34.132 -16.010 -22.049  0.00  0.00    +0.004 C 
ATOM      2  C   UNL     1      33.572 -15.574 -23.464  0.00  0.00    +0.005 C 
ATOM      3  C   UNL     1      33.033 -14.099 -23.587  0.00  0.00    +0.052 C 
ATOM      4  C   UNL     1      34.308 -17.588 -22.083  0.00  0.00    +0.023 C 
ATOM      5  C   UNL     1      33.100 -15.617 -20.961  0.00  0.00    +0.003 C 
ATOM      6  C   UNL     1      32.067 -13.818 -22.399  0.00  0.00    +0.113 C 
ATOM      7  C   UNL     1      34.530 -16.004 -24.599  0.00  0.00    +0.005 C 
ATOM      8  C   UNL     1      32.653 -14.161 -21.034  0.00  0.00    +0.029 C 
ATOM      9  C   UNL     1      35.493 -15.357 -21.695  0.00  0.00    +0.000 C 
ATOM     10  C   UNL     1      34.786 -17.512 -24.583  0.00  0.00    +0.022 C 
ATOM     11  C   UNL     1      35.241 -17.986 -23.227  0.00  0.00    -0.044 C 
ATOM     12  C   UNL     1      32.200 -13.962 -24.893  0.00  0.00    +0.005 C 
ATOM     13  C   UNL     1      36.382 -18.684 -23.099  0.00  0.00    -0.009 C 
ENDROOT
BRANCH   6  14
ATOM     14  O   UNL     1      31.627 -12.460 -22.387  0.00  0.00    -0.384 OA
ATOM     15  H   UNL     1      31.493 -12.171 -21.470  0.00  0.00    +0.210 HD
ENDBRANCH   6  14
BRANCH   3  16
ATOM     16  C   UNL     1      34.140 -13.027 -23.686  0.00  0.00    +0.139 C 
BRANCH  16  17
ATOM     17  O   UNL     1      33.669 -11.993 -24.522  0.00  0.00    -0.382 OA
ATOM     18  H   UNL     1      34.424 -11.513 -24.897  0.00  0.00    +0.210 HD
ENDBRANCH  16  17
ENDBRANCH   3  16
BRANCH   4  19
ATOM     19  C   UNL     1      34.666 -18.219 -20.727  0.00  0.00    +0.030 C 
BRANCH  19  22
ATOM     20  O   UNL     1      34.483 -22.676 -19.072  0.00  0.00    -0.443 OA
ATOM     21  O   UNL     1      32.620 -22.132 -20.310  0.00  0.00    -0.245 OA
ATOM     22  C   UNL     1      33.918 -19.495 -20.523  0.00  0.00    -0.021 C 
ATOM     23  C   UNL     1      34.469 -20.606 -20.029  0.00  0.00    +0.079 C 
ATOM     24  C   UNL     1      35.844 -20.801 -19.516  0.00  0.00    +0.182 C 
ATOM     25  C   UNL     1      33.712 -21.859 -19.849  0.00  0.00    +0.339 C 
ATOM     26  C   UNL     1      35.621 -21.954 -18.563  0.00  0.00    +0.242 C 
BRANCH  24  27
ATOM     27  O   UNL     1      36.694 -21.227 -20.572  0.00  0.00    -0.376 OA
ATOM     28  H   UNL     1      36.734 -22.197 -20.584  0.00  0.00    +0.211 HD
ENDBRANCH  24  27
ENDBRANCH  19  22
ENDBRANCH   4  19
TORSDOF 6
ENDMDL
MODEL 5
REMARK VINA RESULT:      -7.2      4.522      7.516
REMARK  Name = 5318517
REMARK  6 active torsions:
REMARK  status: ('A' for Active; 'I' for Inactive)
REMARK    1  A    between atoms: C_3  and  C_16
REMARK    2  A    between atoms: C_4  and  C_19
REMARK    3  A    between atoms: C_6  and  O_14
REMARK    4  A    between atoms: C_16  and  O_17
REMARK    5  A    between atoms: C_19  and  C_22
REMARK    6  A    between atoms: C_24  and  O_27
REMARK                            x       y       z     vdW  Elec       q    Type
REMARK                         _______ _______ _______ _____ _____    ______ ____
ROOT
ATOM      1  C   UNL     1      33.976 -22.610 -18.041  0.00  0.00    +0.004 C 
ATOM      2  C   UNL     1      34.756 -22.546 -16.665  0.00  0.00    +0.005 C 
ATOM      3  C   UNL     1      34.187 -23.425 -15.488  0.00  0.00    +0.052 C 
ATOM      4  C   UNL     1      34.528 -21.428 -18.946  0.00  0.00    +0.023 C 
ATOM      5  C   UNL     1      32.464 -22.404 -17.767  0.00  0.00    +0.003 C 
ATOM      6  C   UNL     1      32.655 -23.173 -15.370  0.00  0.00    +0.113 C 
ATOM      7  C   UNL     1      36.282 -22.677 -16.883  0.00  0.00    +0.005 C 
ATOM      8  C   UNL     1      31.903 -23.323 -16.688  0.00  0.00    +0.029 C 
ATOM      9  C   UNL     1      34.160 -23.952 -18.795  0.00  0.00    +0.000 C 
ATOM     10  C   UNL     1      36.812 -21.601 -17.832  0.00  0.00    +0.022 C 
ATOM     11  C   UNL     1      36.039 -21.569 -19.126  0.00  0.00    -0.044 C 
ATOM     12  C   UNL     1      34.828 -22.967 -14.147  0.00  0.00    +0.005 C 
ATOM     13  C   UNL     1      36.681 -21.670 -20.302  0.00  0.00    -0.009 C 
ENDROOT
BRANCH   6  14
ATOM     14  O   UNL     1      32.054 -24.022 -14.394  0.00  0.00    -0.384 OA
ATOM     15  H   UNL     1      31.847 -23.506 -13.599  0.00  0.00    +0.210 HD
ENDBRANCH   6  14
BRANCH   3  16
ATOM     16  C   UNL     1      34.508 -24.930 -15.610  0.00  0.00    +0.139 C 
BRANCH  16  17
ATOM     17  O   UNL     1      34.862 -25.403 -14.329  0.00  0.00    -0.382 OA
ATOM     18  H   UNL     1      35.042 -24.650 -13.745  0.00  0.00    +0.210 HD
ENDBRANCH  16  17
ENDBRANCH   3  16
BRANCH   4  19
ATOM     19  C   UNL     1      33.753 -21.211 -20.256  0.00  0.00    +0.030 C 
BRANCH  19  22
ATOM     20  O   UNL     1      34.262 -16.988 -22.388  0.00  0.00    -0.443 OA
ATOM     21  O   UNL     1      32.824 -16.888 -20.593  0.00  0.00    -0.245 OA
ATOM     22  C   UNL     1      33.355 -19.780 -20.406  0.00  0.00    -0.021 C 
ATOM     23  C   UNL     1      33.996 -18.911 -21.191  0.00  0.00    +0.079 C 
ATOM     24  C   UNL     1      35.131 -19.164 -22.108  0.00  0.00    +0.182 C 
ATOM     25  C   UNL     1      33.592 -17.498 -21.313  0.00  0.00    +0.339 C 
ATOM     26  C   UNL     1      34.934 -18.042 -23.104  0.00  0.00    +0.242 C 
BRANCH  24  27
ATOM     27  O   UNL     1      36.358 -18.965 -21.419  0.00  0.00    -0.376 OA
ATOM     28  H   UNL     1      37.098 -19.201 -22.001  0.00  0.00    +0.211 HD
ENDBRANCH  24  27
ENDBRANCH  19  22
ENDBRANCH   4  19
TORSDOF 6
ENDMDL
MODEL 6
REMARK VINA RESULT:      -6.8     11.005     14.149
REMARK  Name = 5318517
REMARK  6 active torsions:
REMARK  status: ('A' for Active; 'I' for Inactive)
REMARK    1  A    between atoms: C_3  and  C_16
REMARK    2  A    between atoms: C_4  and  C_19
REMARK    3  A    between atoms: C_6  and  O_14
REMARK    4  A    between atoms: C_16  and  O_17
REMARK    5  A    between atoms: C_19  and  C_22
REMARK    6  A    between atoms: C_24  and  O_27
REMARK                            x       y       z     vdW  Elec       q    Type
REMARK                         _______ _______ _______ _____ _____    ______ ____
ROOT
ATOM      1  C   UNL     1      33.742 -15.303 -22.700  0.00  0.00    +0.004 C 
ATOM      2  C   UNL     1      33.501 -16.645 -21.895  0.00  0.00    +0.005 C 
ATOM      3  C   UNL     1      34.465 -17.848 -22.219  0.00  0.00    +0.052 C 
ATOM      4  C   UNL     1      32.481 -14.373 -22.444  0.00  0.00    +0.023 C 
ATOM      5  C   UNL     1      33.852 -15.641 -24.209  0.00  0.00    +0.003 C 
ATOM      6  C   UNL     1      34.536 -18.029 -23.764  0.00  0.00    +0.113 C 
ATOM      7  C   UNL     1      33.313 -16.363 -20.385  0.00  0.00    +0.005 C 
ATOM      8  C   UNL     1      34.855 -16.745 -24.522  0.00  0.00    +0.029 C 
ATOM      9  C   UNL     1      35.025 -14.547 -22.271  0.00  0.00    +0.000 C 
ATOM     10  C   UNL     1      32.161 -15.389 -20.131  0.00  0.00    +0.022 C 
ATOM     11  C   UNL     1      32.306 -14.129 -20.945  0.00  0.00    -0.044 C 
ATOM     12  C   UNL     1      33.867 -19.159 -21.634  0.00  0.00    +0.005 C 
ATOM     13  C   UNL     1      32.286 -12.927 -20.345  0.00  0.00    -0.009 C 
ENDROOT
BRANCH   6  14
ATOM     14  O   UNL     1      35.480 -19.033 -24.134  0.00  0.00    -0.384 OA
ATOM     15  H   UNL     1      36.003 -18.723 -24.890  0.00  0.00    +0.210 HD
ENDBRANCH   6  14
BRANCH   3  16
ATOM     16  C   UNL     1      35.871 -17.717 -21.597  0.00  0.00    +0.139 C 
BRANCH  16  17
ATOM     17  O   UNL     1      36.009 -18.726 -20.621  0.00  0.00    -0.382 OA
ATOM     18  H   UNL     1      35.678 -19.566 -20.976  0.00  0.00    +0.210 HD
ENDBRANCH  16  17
ENDBRANCH   3  16
BRANCH   4  19
ATOM     19  C   UNL     1      32.446 -13.095 -23.301  0.00  0.00    +0.030 C 
BRANCH  19  22
ATOM     20  O   UNL     1      32.479  -8.386 -22.627  0.00  0.00    -0.443 OA
ATOM     21  O   UNL     1      31.740  -9.524 -20.768  0.00  0.00    -0.245 OA
ATOM     22  C   UNL     1      32.115 -11.905 -22.463  0.00  0.00    -0.021 C 
ATOM     23  C   UNL     1      32.509 -10.663 -22.752  0.00  0.00    +0.079 C 
ATOM     24  C   UNL     1      33.250 -10.187 -23.942  0.00  0.00    +0.182 C 
ATOM     25  C   UNL     1      32.179  -9.504 -21.902  0.00  0.00    +0.339 C 
ATOM     26  C   UNL     1      32.801  -8.743 -23.985  0.00  0.00    +0.242 C 
BRANCH  24  27
ATOM     27  O   UNL     1      34.647 -10.233 -23.688  0.00  0.00    -0.376 OA
ATOM     28  H   UNL     1      34.802 -10.240 -22.730  0.00  0.00    +0.211 HD
ENDBRANCH  24  27
ENDBRANCH  19  22
ENDBRANCH   4  19
TORSDOF 6
ENDMDL
MODEL 7
REMARK VINA RESULT:      -6.8      2.709      4.562
REMARK  Name = 5318517
REMARK  6 active torsions:
REMARK  status: ('A' for Active; 'I' for Inactive)
REMARK    1  A    between atoms: C_3  and  C_16
REMARK    2  A    between atoms: C_4  and  C_19
REMARK    3  A    between atoms: C_6  and  O_14
REMARK    4  A    between atoms: C_16  and  O_17
REMARK    5  A    between atoms: C_19  and  C_22
REMARK    6  A    between atoms: C_24  and  O_27
REMARK                            x       y       z     vdW  Elec       q    Type
REMARK                         _______ _______ _______ _____ _____    ______ ____
ROOT
ATOM      1  C   UNL     1      34.180 -23.804 -15.298  0.00  0.00    +0.004 C 
ATOM      2  C   UNL     1      33.359 -22.995 -16.383  0.00  0.00    +0.005 C 
ATOM      3  C   UNL     1      34.071 -22.741 -17.766  0.00  0.00    +0.052 C 
ATOM      4  C   UNL     1      33.406 -23.654 -13.920  0.00  0.00    +0.023 C 
ATOM      5  C   UNL     1      35.596 -23.184 -15.180  0.00  0.00    +0.003 C 
ATOM      6  C   UNL     1      35.502 -22.187 -17.497  0.00  0.00    +0.113 C 
ATOM      7  C   UNL     1      31.911 -23.526 -16.497  0.00  0.00    +0.005 C 
ATOM      8  C   UNL     1      36.313 -23.026 -16.516  0.00  0.00    +0.029 C 
ATOM      9  C   UNL     1      34.330 -25.310 -15.633  0.00  0.00    +0.000 C 
ATOM     10  C   UNL     1      31.184 -23.478 -15.151  0.00  0.00    +0.022 C 
ATOM     11  C   UNL     1      31.973 -24.164 -14.066  0.00  0.00    -0.044 C 
ATOM     12  C   UNL     1      33.298 -21.643 -18.550  0.00  0.00    +0.005 C 
ATOM     13  C   UNL     1      31.412 -25.141 -13.333  0.00  0.00    -0.009 C 
ENDROOT
BRANCH   6  14
ATOM     14  O   UNL     1      36.245 -22.040 -18.706  0.00  0.00    -0.384 OA
ATOM     15  H   UNL     1      35.969 -21.227 -19.159  0.00  0.00    +0.210 HD
ENDBRANCH   6  14
BRANCH   3  16
ATOM     16  C   UNL     1      34.104 -23.973 -18.696  0.00  0.00    +0.139 C 
BRANCH  16  17
ATOM     17  O   UNL     1      34.111 -23.510 -20.028  0.00  0.00    -0.382 OA
ATOM     18  H   UNL     1      35.025 -23.468 -20.351  0.00  0.00    +0.210 HD
ENDBRANCH  16  17
ENDBRANCH   3  16
BRANCH   4  19
ATOM     19  C   UNL     1      34.157 -24.217 -12.702  0.00  0.00    +0.030 C 
BRANCH  19  22
ATOM     20  O   UNL     1      38.914 -24.279 -12.733  0.00  0.00    -0.443 OA
ATOM     21  O   UNL     1      38.076 -22.297 -11.913  0.00  0.00    -0.245 OA
ATOM     22  C   UNL     1      35.462 -23.517 -12.514  0.00  0.00    -0.021 C 
ATOM     23  C   UNL     1      36.646 -24.134 -12.551  0.00  0.00    +0.079 C 
ATOM     24  C   UNL     1      36.933 -25.554 -12.851  0.00  0.00    +0.182 C 
ATOM     25  C   UNL     1      37.922 -23.422 -12.350  0.00  0.00    +0.339 C 
ATOM     26  C   UNL     1      38.352 -25.445 -13.365  0.00  0.00    +0.242 C 
BRANCH  24  27
ATOM     27  O   UNL     1      36.931 -26.310 -11.648  0.00  0.00    -0.376 OA
ATOM     28  H   UNL     1      36.180 -26.924 -11.652  0.00  0.00    +0.211 HD
ENDBRANCH  24  27
ENDBRANCH  19  22
ENDBRANCH   4  19
TORSDOF 6
ENDMDL
MODEL 8
REMARK VINA RESULT:      -6.7     11.713     14.608
REMARK  Name = 5318517
REMARK  6 active torsions:
REMARK  status: ('A' for Active; 'I' for Inactive)
REMARK    1  A    between atoms: C_3  and  C_16
REMARK    2  A    between atoms: C_4  and  C_19
REMARK    3  A    between atoms: C_6  and  O_14
REMARK    4  A    between atoms: C_16  and  O_17
REMARK    5  A    between atoms: C_19  and  C_22
REMARK    6  A    between atoms: C_24  and  O_27
REMARK                            x       y       z     vdW  Elec       q    Type
REMARK                         _______ _______ _______ _____ _____    ______ ____
ROOT
ATOM      1  C   UNL     1      33.932 -15.192 -22.885  0.00  0.00    +0.004 C 
ATOM      2  C   UNL     1      34.594 -16.473 -23.540  0.00  0.00    +0.005 C 
ATOM      3  C   UNL     1      34.881 -17.690 -22.581  0.00  0.00    +0.052 C 
ATOM      4  C   UNL     1      34.037 -14.017 -23.947  0.00  0.00    +0.023 C 
ATOM      5  C   UNL     1      34.723 -14.821 -21.605  0.00  0.00    +0.003 C 
ATOM      6  C   UNL     1      35.614 -17.165 -21.312  0.00  0.00    +0.113 C 
ATOM      7  C   UNL     1      33.886 -16.851 -24.863  0.00  0.00    +0.005 C 
ATOM      8  C   UNL     1      34.917 -15.986 -20.641  0.00  0.00    +0.029 C 
ATOM      9  C   UNL     1      32.443 -15.395 -22.501  0.00  0.00    +0.000 C 
ATOM     10  C   UNL     1      33.895 -15.692 -25.861  0.00  0.00    +0.022 C 
ATOM     11  C   UNL     1      33.351 -14.426 -25.250  0.00  0.00    -0.044 C 
ATOM     12  C   UNL     1      35.847 -18.684 -23.286  0.00  0.00    +0.005 C 
ATOM     13  C   UNL     1      32.341 -13.767 -25.843  0.00  0.00    -0.009 C 
ENDROOT
BRANCH   6  14
ATOM     14  O   UNL     1      35.806 -18.199 -20.349  0.00  0.00    -0.384 OA
ATOM     15  H   UNL     1      36.715 -18.163 -20.010  0.00  0.00    +0.210 HD
ENDBRANCH   6  14
BRANCH   3  16
ATOM     16  C   UNL     1      33.629 -18.515 -22.215  0.00  0.00    +0.139 C 
BRANCH  16  17
ATOM     17  O   UNL     1      34.061 -19.765 -21.725  0.00  0.00    -0.382 OA
ATOM     18  H   UNL     1      34.410 -20.296 -22.459  0.00  0.00    +0.210 HD
ENDBRANCH  16  17
ENDBRANCH   3  16
BRANCH   4  19
ATOM     19  C   UNL     1      33.615 -12.637 -23.416  0.00  0.00    +0.030 C 
BRANCH  19  22
ATOM     20  O   UNL     1      34.481  -8.009 -24.102  0.00  0.00    -0.443 OA
ATOM     21  O   UNL     1      35.508  -9.330 -25.684  0.00  0.00    -0.245 OA
ATOM     22  C   UNL     1      34.335 -11.548 -24.140  0.00  0.00    -0.021 C 
ATOM     23  C   UNL     1      34.072 -10.250 -23.976  0.00  0.00    +0.079 C 
ATOM     24  C   UNL     1      33.122  -9.615 -23.034  0.00  0.00    +0.182 C 
ATOM     25  C   UNL     1      34.790  -9.192 -24.712  0.00  0.00    +0.339 C 
ATOM     26  C   UNL     1      33.757  -8.251 -22.880  0.00  0.00    +0.242 C 
BRANCH  24  27
ATOM     27  O   UNL     1      31.853  -9.470 -23.657  0.00  0.00    -0.376 OA
ATOM     28  H   UNL     1      31.169  -9.867 -23.094  0.00  0.00    +0.211 HD
ENDBRANCH  24  27
ENDBRANCH  19  22
ENDBRANCH   4  19
TORSDOF 6
ENDMDL
MODEL 9
REMARK VINA RESULT:      -6.6     17.304     19.699
REMARK  Name = 5318517
REMARK  6 active torsions:
REMARK  status: ('A' for Active; 'I' for Inactive)
REMARK    1  A    between atoms: C_3  and  C_16
REMARK    2  A    between atoms: C_4  and  C_19
REMARK    3  A    between atoms: C_6  and  O_14
REMARK    4  A    between atoms: C_16  and  O_17
REMARK    5  A    between atoms: C_19  and  C_22
REMARK    6  A    between atoms: C_24  and  O_27
REMARK                            x       y       z     vdW  Elec       q    Type
REMARK                         _______ _______ _______ _____ _____    ______ ____
ROOT
ATOM      1  C   UNL     1      32.527  -6.335 -24.024  0.00  0.00    +0.004 C 
ATOM      2  C   UNL     1      32.205  -4.902 -23.435  0.00  0.00    +0.005 C 
ATOM      3  C   UNL     1      31.777  -3.792 -24.468  0.00  0.00    +0.052 C 
ATOM      4  C   UNL     1      33.228  -7.168 -22.868  0.00  0.00    +0.023 C 
ATOM      5  C   UNL     1      33.496  -6.175 -25.223  0.00  0.00    +0.003 C 
ATOM      6  C   UNL     1      32.793  -3.788 -25.648  0.00  0.00    +0.113 C 
ATOM      7  C   UNL     1      31.293  -5.003 -22.189  0.00  0.00    +0.005 C 
ATOM      8  C   UNL     1      33.028  -5.163 -26.263  0.00  0.00    +0.029 C 
ATOM      9  C   UNL     1      31.269  -7.102 -24.508  0.00  0.00    +0.000 C 
ATOM     10  C   UNL     1      31.915  -5.885 -21.104  0.00  0.00    +0.022 C 
ATOM     11  C   UNL     1      32.316  -7.233 -21.643  0.00  0.00    -0.044 C 
ATOM     12  C   UNL     1      31.863  -2.395 -23.789  0.00  0.00    +0.005 C 
ATOM     13  C   UNL     1      31.870  -8.358 -21.060  0.00  0.00    -0.009 C 
ENDROOT
BRANCH   6  14
ATOM     14  O   UNL     1      32.403  -2.880 -26.677  0.00  0.00    -0.384 OA
ATOM     15  H   UNL     1      32.014  -2.085 -26.278  0.00  0.00    +0.210 HD
ENDBRANCH   6  14
BRANCH   3  16
ATOM     16  C   UNL     1      30.323  -3.921 -24.970  0.00  0.00    +0.139 C 
BRANCH  16  17
ATOM     17  O   UNL     1      29.825  -2.621 -25.197  0.00  0.00    -0.382 OA
ATOM     18  H   UNL     1      29.779  -2.141 -24.356  0.00  0.00    +0.210 HD
ENDBRANCH  16  17
ENDBRANCH   3  16
BRANCH   4  19
ATOM     19  C   UNL     1      33.788  -8.530 -23.313  0.00  0.00    +0.030 C 
BRANCH  19  22
ATOM     20  O   UNL     1      32.684 -13.156 -23.212  0.00  0.00    -0.443 OA
ATOM     21  O   UNL     1      31.112 -11.864 -22.134  0.00  0.00    -0.245 OA
ATOM     22  C   UNL     1      32.921  -9.643 -22.827  0.00  0.00    -0.021 C 
ATOM     23  C   UNL     1      33.013 -10.900 -23.267  0.00  0.00    +0.079 C 
ATOM     24  C   UNL     1      33.992 -11.472 -24.220  0.00  0.00    +0.182 C 
ATOM     25  C   UNL     1      32.136 -11.982 -22.780  0.00  0.00    +0.339 C 
ATOM     26  C   UNL     1      33.983 -12.921 -23.786  0.00  0.00    +0.242 C 
BRANCH  24  27
ATOM     27  O   UNL     1      33.484 -11.379 -25.544  0.00  0.00    -0.376 OA
ATOM     28  H   UNL     1      32.605 -10.967 -25.526  0.00  0.00    +0.211 HD
ENDBRANCH  24  27
ENDBRANCH  19  22
ENDBRANCH   4  19
TORSDOF 6
ENDMDL
