MODEL 1
REMARK VINA RESULT:      -9.2      0.000      0.000
REMARK  Name = 656629
REMARK  7 active torsions:
REMARK  status: ('A' for Active; 'I' for Inactive)
REMARK    1  A    between atoms: CA_5  and  C_28
REMARK    2  A    between atoms: CA_9  and  N_14
REMARK    3  A    between atoms: C_15  and  C_17
REMARK    4  A    between atoms: C_17  and  S_18
REMARK    5  A    between atoms: C_17  and  C_20
REMARK    6  A    between atoms: C_20  and  C_21
REMARK    7  A    between atoms: C_28  and  O_29
REMARK                            x       y       z     vdW  Elec       q    Type
REMARK                         _______ _______ _______ _____ _____    ______ ____
ROOT
ATOM      1  SD  MET A   1      37.569 -23.137 -15.435  0.00  0.00    -0.121 S 
ATOM      2  O   MET A   1      34.428 -24.532 -12.482  0.00  0.00    -0.273 OA
ATOM      3  N   MET A   1      36.440 -24.806 -13.608  0.00  0.00    -0.262 N 
ATOM      4  CE  MET A   1      37.188 -24.837 -14.880  0.00  0.00    +0.124 C 
ATOM      5  CA  MET A   1      37.181 -24.877 -12.337  0.00  0.00    +0.175 C 
ATOM      6  C   MET A   1      38.448 -25.707 -14.842  0.00  0.00    +0.031 C 
ATOM      7  C   MET A   1      38.436 -25.743 -12.362  0.00  0.00    +0.031 C 
ATOM      8  C   MET A   1      39.292 -25.499 -13.596  0.00  0.00    +0.005 C 
ATOM      9  CA  MET A   1      34.370 -24.184 -14.863  0.00  0.00    +0.150 C 
ATOM     10  C   MET A   1      35.058 -24.544 -13.545  0.00  0.00    +0.244 C 
ATOM     11  CB  MET A   1      34.765 -22.783 -15.347  0.00  0.00    +0.041 C 
ATOM     12  CG  MET A   1      35.994 -22.738 -16.255  0.00  0.00    +0.061 C 
ENDROOT
BRANCH   9  14
ATOM     13  O   UNK A   0      32.270 -23.564 -16.720  0.00  0.00    -0.274 OA
ATOM     14  N   MET A   1      32.947 -24.239 -14.606  0.00  0.00    -0.298 N 
ATOM     15  C   UNK A   0      32.006 -23.919 -15.572  0.00  0.00    +0.232 C 
ATOM     16  H   MET A   1      32.635 -24.514 -13.713  0.00  0.00    +0.150 HD
BRANCH  15  17
ATOM     17  C   UNK A   0      30.576 -24.028 -15.053  0.00  0.00    +0.124 C 
BRANCH  17  18
ATOM     18  S   UNK A   0      30.654 -24.958 -13.481  0.00  0.00    -0.159 S 
ATOM     19  H   UNK A   0      31.660 -24.464 -12.712  0.00  0.00    +0.103 HD
ENDBRANCH  17  18
BRANCH  17  20
ATOM     20  C   UNK A   0      29.942 -22.652 -14.806  0.00  0.00    +0.046 C 
BRANCH  20  21
ATOM     21  C   UNK A   0      28.664 -22.462 -15.592  0.00  0.00    -0.021 C 
ATOM     22  C   UNK A   0      27.521 -22.044 -14.932  0.00  0.00    -0.004 C 
ATOM     23  C   UNK A   0      28.664 -22.710 -16.954  0.00  0.00    -0.004 C 
ATOM     24  C   UNK A   0      26.341 -21.869 -15.656  0.00  0.00    -0.000 C 
ATOM     25  C   UNK A   0      27.484 -22.535 -17.678  0.00  0.00    -0.000 C 
ATOM     26  C   UNK A   0      26.323 -22.114 -17.029  0.00  0.00    -0.000 C 
ENDBRANCH  20  21
ENDBRANCH  17  20
ENDBRANCH  15  17
ENDBRANCH   9  14
BRANCH   5  28
ATOM     27  OXT MET A   1      38.610 -23.056 -11.626  0.00  0.00    -0.248 OA
ATOM     28  C   MET A   1      37.501 -23.465 -11.935  0.00  0.00    +0.332 C 
BRANCH  28  29
ATOM     29  O   MET A   1      36.383 -22.697 -11.957  0.00  0.00    -0.479 OA
ATOM     30  H   MET A   1      36.110 -22.245 -11.184  0.00  0.00    +0.295 HD
ENDBRANCH  28  29
ENDBRANCH   5  28
TORSDOF 7
ENDMDL
MODEL 2
REMARK VINA RESULT:      -8.0     13.637     16.103
REMARK  Name = 656629
REMARK  7 active torsions:
REMARK  status: ('A' for Active; 'I' for Inactive)
REMARK    1  A    between atoms: CA_5  and  C_28
REMARK    2  A    between atoms: CA_9  and  N_14
REMARK    3  A    between atoms: C_15  and  C_17
REMARK    4  A    between atoms: C_17  and  S_18
REMARK    5  A    between atoms: C_17  and  C_20
REMARK    6  A    between atoms: C_20  and  C_21
REMARK    7  A    between atoms: C_28  and  O_29
REMARK                            x       y       z     vdW  Elec       q    Type
REMARK                         _______ _______ _______ _____ _____    ______ ____
ROOT
ATOM      1  SD  MET A   1      31.565  -9.048 -21.031  0.00  0.00    -0.121 S 
ATOM      2  O   MET A   1      34.074 -10.610 -24.466  0.00  0.00    -0.273 OA
ATOM      3  N   MET A   1      32.482  -9.166 -23.590  0.00  0.00    -0.262 N 
ATOM      4  CE  MET A   1      31.234  -8.965 -22.827  0.00  0.00    +0.124 C 
ATOM      5  CA  MET A   1      33.278  -7.992 -23.985  0.00  0.00    +0.175 C 
ATOM      6  C   MET A   1      30.476  -7.685 -23.196  0.00  0.00    +0.031 C 
ATOM      7  C   MET A   1      32.474  -6.742 -24.324  0.00  0.00    +0.031 C 
ATOM      8  C   MET A   1      31.371  -6.462 -23.314  0.00  0.00    +0.005 C 
ATOM      9  CA  MET A   1      32.338 -11.621 -23.139  0.00  0.00    +0.150 C 
ATOM     10  C   MET A   1      33.038 -10.439 -23.815  0.00  0.00    +0.244 C 
ATOM     11  CB  MET A   1      32.568 -11.625 -21.622  0.00  0.00    +0.041 C 
ATOM     12  CG  MET A   1      31.527 -10.854 -20.811  0.00  0.00    +0.061 C 
ENDROOT
BRANCH   9  14
ATOM     13  O   UNK A   0      32.041 -14.308 -22.174  0.00  0.00    -0.274 OA
ATOM     14  N   MET A   1      32.897 -12.816 -23.730  0.00  0.00    -0.298 N 
ATOM     15  C   UNK A   0      32.697 -14.076 -23.188  0.00  0.00    +0.232 C 
ATOM     16  H   MET A   1      33.439 -12.733 -24.549  0.00  0.00    +0.150 HD
BRANCH  15  17
ATOM     17  C   UNK A   0      33.408 -15.171 -23.976  0.00  0.00    +0.124 C 
BRANCH  17  18
ATOM     18  S   UNK A   0      33.551 -14.575 -25.698  0.00  0.00    -0.159 S 
ATOM     19  H   UNK A   0      32.793 -15.357 -26.513  0.00  0.00    +0.103 HD
ENDBRANCH  17  18
BRANCH  17  20
ATOM     20  C   UNK A   0      34.806 -15.472 -23.418  0.00  0.00    +0.046 C 
BRANCH  20  21
ATOM     21  C   UNK A   0      34.921 -16.887 -22.898  0.00  0.00    -0.021 C 
ATOM     22  C   UNK A   0      35.081 -17.097 -21.538  0.00  0.00    -0.004 C 
ATOM     23  C   UNK A   0      34.865 -17.944 -23.791  0.00  0.00    -0.004 C 
ATOM     24  C   UNK A   0      35.188 -18.402 -21.058  0.00  0.00    -0.000 C 
ATOM     25  C   UNK A   0      34.971 -19.249 -23.311  0.00  0.00    -0.000 C 
ATOM     26  C   UNK A   0      35.133 -19.478 -21.944  0.00  0.00    -0.000 C 
ENDBRANCH  20  21
ENDBRANCH  17  20
ENDBRANCH  15  17
ENDBRANCH   9  14
BRANCH   5  28
ATOM     27  OXT MET A   1      33.952  -7.373 -21.743  0.00  0.00    -0.248 OA
ATOM     28  C   MET A   1      34.254  -7.727 -22.873  0.00  0.00    +0.332 C 
BRANCH  28  29
ATOM     29  O   MET A   1      35.527  -7.933 -23.294  0.00  0.00    -0.479 OA
ATOM     30  H   MET A   1      35.783  -8.774 -23.617  0.00  0.00    +0.295 HD
ENDBRANCH  28  29
ENDBRANCH   5  28
TORSDOF 7
ENDMDL
MODEL 3
REMARK VINA RESULT:      -8.0     12.040     14.462
REMARK  Name = 656629
REMARK  7 active torsions:
REMARK  status: ('A' for Active; 'I' for Inactive)
REMARK    1  A    between atoms: CA_5  and  C_28
REMARK    2  A    between atoms: CA_9  and  N_14
REMARK    3  A    between atoms: C_15  and  C_17
REMARK    4  A    between atoms: C_17  and  S_18
REMARK    5  A    between atoms: C_17  and  C_20
REMARK    6  A    between atoms: C_20  and  C_21
REMARK    7  A    between atoms: C_28  and  O_29
REMARK                            x       y       z     vdW  Elec       q    Type
REMARK                         _______ _______ _______ _____ _____    ______ ____
ROOT
ATOM      1  SD  MET A   1      33.261 -10.973 -25.571  0.00  0.00    -0.121 S 
ATOM      2  O   MET A   1      32.470 -12.427 -21.353  0.00  0.00    -0.273 OA
ATOM      3  N   MET A   1      33.390 -10.915 -22.855  0.00  0.00    -0.262 N 
ATOM      4  CE  MET A   1      34.220 -10.657 -24.047  0.00  0.00    +0.124 C 
ATOM      5  CA  MET A   1      32.634  -9.803 -22.252  0.00  0.00    +0.175 C 
ATOM      6  C   MET A   1      34.863  -9.266 -24.071  0.00  0.00    +0.031 C 
ATOM      7  C   MET A   1      33.312  -8.440 -22.320  0.00  0.00    +0.031 C 
ATOM      8  C   MET A   1      33.906  -8.148 -23.691  0.00  0.00    +0.005 C 
ATOM      9  CA  MET A   1      33.716 -13.371 -23.183  0.00  0.00    +0.150 C 
ATOM     10  C   MET A   1      33.152 -12.211 -22.360  0.00  0.00    +0.244 C 
ATOM     11  CB  MET A   1      32.942 -13.568 -24.493  0.00  0.00    +0.041 C 
ATOM     12  CG  MET A   1      33.480 -12.776 -25.685  0.00  0.00    +0.061 C 
ENDROOT
BRANCH   9  14
ATOM     13  O   UNK A   0      35.395 -15.698 -23.273  0.00  0.00    -0.274 OA
ATOM     14  N   MET A   1      33.600 -14.551 -22.355  0.00  0.00    -0.298 N 
ATOM     15  C   UNK A   0      34.463 -15.629 -22.473  0.00  0.00    +0.232 C 
ATOM     16  H   MET A   1      32.883 -14.590 -21.681  0.00  0.00    +0.150 HD
BRANCH  15  17
ATOM     17  C   UNK A   0      34.121 -16.761 -21.510  0.00  0.00    +0.124 C 
BRANCH  17  18
ATOM     18  S   UNK A   0      32.507 -16.344 -20.757  0.00  0.00    -0.159 S 
ATOM     19  H   UNK A   0      31.517 -16.551 -21.665  0.00  0.00    +0.103 HD
ENDBRANCH  17  18
BRANCH  17  20
ATOM     20  C   UNK A   0      34.022 -18.117 -22.220  0.00  0.00    +0.046 C 
BRANCH  20  21
ATOM     21  C   UNK A   0      34.250 -19.275 -21.274  0.00  0.00    -0.021 C 
ATOM     22  C   UNK A   0      35.547 -19.634 -20.945  0.00  0.00    -0.004 C 
ATOM     23  C   UNK A   0      33.159 -19.952 -20.757  0.00  0.00    -0.004 C 
ATOM     24  C   UNK A   0      35.757 -20.702 -20.073  0.00  0.00    -0.000 C 
ATOM     25  C   UNK A   0      33.370 -21.020 -19.885  0.00  0.00    -0.000 C 
ATOM     26  C   UNK A   0      34.669 -21.395 -19.543  0.00  0.00    -0.000 C 
ENDBRANCH  20  21
ENDBRANCH  17  20
ENDBRANCH  15  17
ENDBRANCH   9  14
BRANCH   5  28
ATOM     27  OXT MET A   1      30.887  -8.888 -23.657  0.00  0.00    -0.248 OA
ATOM     28  C   MET A   1      31.287  -9.776 -22.919  0.00  0.00    +0.332 C 
BRANCH  28  29
ATOM     29  O   MET A   1      30.567 -10.876 -22.586  0.00  0.00    -0.479 OA
ATOM     30  H   MET A   1      30.059 -11.317 -23.237  0.00  0.00    +0.295 HD
ENDBRANCH  28  29
ENDBRANCH   5  28
TORSDOF 7
ENDMDL
MODEL 4
REMARK VINA RESULT:      -7.9     12.050     14.555
REMARK  Name = 656629
REMARK  7 active torsions:
REMARK  status: ('A' for Active; 'I' for Inactive)
REMARK    1  A    between atoms: CA_5  and  C_28
REMARK    2  A    between atoms: CA_9  and  N_14
REMARK    3  A    between atoms: C_15  and  C_17
REMARK    4  A    between atoms: C_17  and  S_18
REMARK    5  A    between atoms: C_17  and  C_20
REMARK    6  A    between atoms: C_20  and  C_21
REMARK    7  A    between atoms: C_28  and  O_29
REMARK                            x       y       z     vdW  Elec       q    Type
REMARK                         _______ _______ _______ _____ _____    ______ ____
ROOT
ATOM      1  SD  MET A   1      33.027 -11.708 -26.736  0.00  0.00    -0.121 S 
ATOM      2  O   MET A   1      33.653 -13.510 -22.627  0.00  0.00    -0.273 OA
ATOM      3  N   MET A   1      34.191 -11.988 -24.294  0.00  0.00    -0.262 N 
ATOM      4  CE  MET A   1      34.535 -11.720 -25.705  0.00  0.00    +0.124 C 
ATOM      5  CA  MET A   1      33.941 -10.854 -23.388  0.00  0.00    +0.175 C 
ATOM      6  C   MET A   1      35.365 -10.449 -25.914  0.00  0.00    +0.031 C 
ATOM      7  C   MET A   1      34.781  -9.610 -23.654  0.00  0.00    +0.031 C 
ATOM      8  C   MET A   1      34.849  -9.252 -25.131  0.00  0.00    +0.005 C 
ATOM      9  CA  MET A   1      33.909 -14.410 -24.845  0.00  0.00    +0.150 C 
ATOM     10  C   MET A   1      33.926 -13.283 -23.810  0.00  0.00    +0.244 C 
ATOM     11  CB  MET A   1      32.671 -14.333 -25.748  0.00  0.00    +0.041 C 
ATOM     12  CG  MET A   1      32.849 -13.497 -27.015  0.00  0.00    +0.061 C 
ENDROOT
BRANCH   9  14
ATOM     13  O   UNK A   0      34.890 -16.955 -25.738  0.00  0.00    -0.274 OA
ATOM     14  N   MET A   1      33.902 -15.648 -24.097  0.00  0.00    -0.298 N 
ATOM     15  C   UNK A   0      34.402 -16.831 -24.616  0.00  0.00    +0.232 C 
ATOM     16  H   MET A   1      33.531 -15.650 -23.184  0.00  0.00    +0.150 HD
BRANCH  15  17
ATOM     17  C   UNK A   0      34.260 -18.001 -23.648  0.00  0.00    +0.124 C 
BRANCH  17  18
ATOM     18  S   UNK A   0      34.863 -19.488 -24.524  0.00  0.00    -0.159 S 
ATOM     19  H   UNK A   0      34.516 -19.413 -25.836  0.00  0.00    +0.103 HD
ENDBRANCH  17  18
BRANCH  17  20
ATOM     20  C   UNK A   0      35.075 -17.794 -22.365  0.00  0.00    +0.046 C 
BRANCH  20  21
ATOM     21  C   UNK A   0      34.959 -18.968 -21.418  0.00  0.00    -0.021 C 
ATOM     22  C   UNK A   0      36.111 -19.565 -20.936  0.00  0.00    -0.004 C 
ATOM     23  C   UNK A   0      33.702 -19.421 -21.053  0.00  0.00    -0.004 C 
ATOM     24  C   UNK A   0      36.004 -20.648 -20.063  0.00  0.00    -0.000 C 
ATOM     25  C   UNK A   0      33.595 -20.504 -20.181  0.00  0.00    -0.000 C 
ATOM     26  C   UNK A   0      34.746 -21.117 -19.686  0.00  0.00    -0.000 C 
ENDBRANCH  20  21
ENDBRANCH  17  20
ENDBRANCH  15  17
ENDBRANCH   9  14
BRANCH   5  28
ATOM     27  OXT MET A   1      31.987  -9.559 -23.997  0.00  0.00    -0.248 OA
ATOM     28  C   MET A   1      32.472 -10.546 -23.464  0.00  0.00    +0.332 C 
BRANCH  28  29
ATOM     29  O   MET A   1      31.748 -11.517 -22.854  0.00  0.00    -0.479 OA
ATOM     30  H   MET A   1      31.790 -11.618 -21.924  0.00  0.00    +0.295 HD
ENDBRANCH  28  29
ENDBRANCH   5  28
TORSDOF 7
ENDMDL
MODEL 5
REMARK VINA RESULT:      -7.3      3.245      7.634
REMARK  Name = 656629
REMARK  7 active torsions:
REMARK  status: ('A' for Active; 'I' for Inactive)
REMARK    1  A    between atoms: CA_5  and  C_28
REMARK    2  A    between atoms: CA_9  and  N_14
REMARK    3  A    between atoms: C_15  and  C_17
REMARK    4  A    between atoms: C_17  and  S_18
REMARK    5  A    between atoms: C_17  and  C_20
REMARK    6  A    between atoms: C_20  and  C_21
REMARK    7  A    between atoms: C_28  and  O_29
REMARK                            x       y       z     vdW  Elec       q    Type
REMARK                         _______ _______ _______ _____ _____    ______ ____
ROOT
ATOM      1  SD  MET A   1      30.684 -24.360 -13.484  0.00  0.00    -0.121 S 
ATOM      2  O   MET A   1      31.422 -22.115 -17.350  0.00  0.00    -0.273 OA
ATOM      3  N   MET A   1      30.475 -23.862 -16.150  0.00  0.00    -0.262 N 
ATOM      4  CE  MET A   1      30.633 -24.982 -15.202  0.00  0.00    +0.124 C 
ATOM      5  CA  MET A   1      29.120 -23.463 -16.571  0.00  0.00    +0.175 C 
ATOM      6  C   MET A   1      29.586 -26.089 -15.364  0.00  0.00    +0.031 C 
ATOM      7  C   MET A   1      28.115 -24.602 -16.698  0.00  0.00    +0.031 C 
ATOM      8  C   MET A   1      28.168 -25.565 -15.521  0.00  0.00    +0.005 C 
ATOM      9  CA  MET A   1      32.894 -23.303 -15.862  0.00  0.00    +0.150 C 
ATOM     10  C   MET A   1      31.550 -23.043 -16.546  0.00  0.00    +0.244 C 
ATOM     11  CB  MET A   1      32.887 -22.842 -14.400  0.00  0.00    +0.041 C 
ATOM     12  CG  MET A   1      32.443 -23.902 -13.392  0.00  0.00    +0.061 C 
ENDROOT
BRANCH   9  14
ATOM     13  O   UNK A   0      35.725 -23.779 -15.909  0.00  0.00    -0.274 OA
ATOM     14  N   MET A   1      33.882 -22.560 -16.614  0.00  0.00    -0.298 N 
ATOM     15  C   UNK A   0      35.232 -22.867 -16.571  0.00  0.00    +0.232 C 
ATOM     16  H   MET A   1      33.584 -21.808 -17.177  0.00  0.00    +0.150 HD
BRANCH  15  17
ATOM     17  C   UNK A   0      36.073 -21.925 -17.427  0.00  0.00    +0.124 C 
BRANCH  17  18
ATOM     18  S   UNK A   0      37.804 -22.105 -16.865  0.00  0.00    -0.159 S 
ATOM     19  H   UNK A   0      38.045 -21.233 -15.850  0.00  0.00    +0.103 HD
ENDBRANCH  17  18
BRANCH  17  20
ATOM     20  C   UNK A   0      35.981 -22.260 -18.921  0.00  0.00    +0.046 C 
BRANCH  20  21
ATOM     21  C   UNK A   0      35.208 -21.214 -19.694  0.00  0.00    -0.021 C 
ATOM     22  C   UNK A   0      35.901 -20.234 -20.384  0.00  0.00    -0.004 C 
ATOM     23  C   UNK A   0      33.824 -21.258 -19.695  0.00  0.00    -0.004 C 
ATOM     24  C   UNK A   0      35.188 -19.269 -21.097  0.00  0.00    -0.000 C 
ATOM     25  C   UNK A   0      33.112 -20.294 -20.408  0.00  0.00    -0.000 C 
ATOM     26  C   UNK A   0      33.794 -19.299 -21.108  0.00  0.00    -0.000 C 
ENDBRANCH  20  21
ENDBRANCH  17  20
ENDBRANCH  15  17
ENDBRANCH   9  14
BRANCH   5  28
ATOM     27  OXT MET A   1      29.319 -21.944 -14.696  0.00  0.00    -0.248 OA
ATOM     28  C   MET A   1      28.646 -22.423 -15.596  0.00  0.00    +0.332 C 
BRANCH  28  29
ATOM     29  O   MET A   1      27.357 -22.085 -15.847  0.00  0.00    -0.479 OA
ATOM     30  H   MET A   1      26.881 -22.523 -16.525  0.00  0.00    +0.295 HD
ENDBRANCH  28  29
ENDBRANCH   5  28
TORSDOF 7
ENDMDL
MODEL 6
REMARK VINA RESULT:      -7.2     14.273     16.614
REMARK  Name = 656629
REMARK  7 active torsions:
REMARK  status: ('A' for Active; 'I' for Inactive)
REMARK    1  A    between atoms: CA_5  and  C_28
REMARK    2  A    between atoms: CA_9  and  N_14
REMARK    3  A    between atoms: C_15  and  C_17
REMARK    4  A    between atoms: C_17  and  S_18
REMARK    5  A    between atoms: C_17  and  C_20
REMARK    6  A    between atoms: C_20  and  C_21
REMARK    7  A    between atoms: C_28  and  O_29
REMARK                            x       y       z     vdW  Elec       q    Type
REMARK                         _______ _______ _______ _____ _____    ______ ____
ROOT
ATOM      1  SD  MET A   1      32.136  -7.079 -20.978  0.00  0.00    -0.121 S 
ATOM      2  O   MET A   1      33.210 -10.228 -24.054  0.00  0.00    -0.273 OA
ATOM      3  N   MET A   1      32.129  -8.273 -23.422  0.00  0.00    -0.262 N 
ATOM      4  CE  MET A   1      31.230  -7.565 -22.490  0.00  0.00    +0.124 C 
ATOM      5  CA  MET A   1      32.842  -7.504 -24.456  0.00  0.00    +0.175 C 
ATOM      6  C   MET A   1      30.501  -6.370 -23.112  0.00  0.00    +0.031 C 
ATOM      7  C   MET A   1      32.077  -6.315 -25.028  0.00  0.00    +0.031 C 
ATOM      8  C   MET A   1      31.403  -5.479 -23.950  0.00  0.00    +0.005 C 
ATOM      9  CA  MET A   1      31.942 -10.328 -22.010  0.00  0.00    +0.150 C 
ATOM     10  C   MET A   1      32.470  -9.630 -23.266  0.00  0.00    +0.244 C 
ATOM     11  CB  MET A   1      32.666  -9.847 -20.746  0.00  0.00    +0.041 C 
ATOM     12  CG  MET A   1      32.025  -8.643 -20.055  0.00  0.00    +0.061 C 
ENDROOT
BRANCH   9  14
ATOM     13  O   UNK A   0      31.884 -12.366 -19.990  0.00  0.00    -0.274 OA
ATOM     14  N   MET A   1      32.170 -11.743 -22.206  0.00  0.00    -0.298 N 
ATOM     15  C   UNK A   0      32.120 -12.654 -21.162  0.00  0.00    +0.232 C 
ATOM     16  H   MET A   1      32.366 -12.072 -23.113  0.00  0.00    +0.150 HD
BRANCH  15  17
ATOM     17  C   UNK A   0      32.420 -14.079 -21.615  0.00  0.00    +0.124 C 
BRANCH  17  18
ATOM     18  S   UNK A   0      32.606 -14.026 -23.434  0.00  0.00    -0.159 S 
ATOM     19  H   UNK A   0      33.050 -15.232 -23.879  0.00  0.00    +0.103 HD
ENDBRANCH  17  18
BRANCH  17  20
ATOM     20  C   UNK A   0      33.704 -14.630 -20.983  0.00  0.00    +0.046 C 
BRANCH  20  21
ATOM     21  C   UNK A   0      34.077 -15.987 -21.537  0.00  0.00    -0.021 C 
ATOM     22  C   UNK A   0      33.588 -17.127 -20.922  0.00  0.00    -0.004 C 
ATOM     23  C   UNK A   0      34.900 -16.061 -22.648  0.00  0.00    -0.004 C 
ATOM     24  C   UNK A   0      33.932 -18.378 -21.433  0.00  0.00    -0.000 C 
ATOM     25  C   UNK A   0      35.244 -17.313 -23.160  0.00  0.00    -0.000 C 
ATOM     26  C   UNK A   0      34.760 -18.471 -22.552  0.00  0.00    -0.000 C 
ENDBRANCH  20  21
ENDBRANCH  17  20
ENDBRANCH  15  17
ENDBRANCH   9  14
BRANCH   5  28
ATOM     27  OXT MET A   1      34.565  -7.405 -22.759  0.00  0.00    -0.248 OA
ATOM     28  C   MET A   1      34.152  -7.073 -23.859  0.00  0.00    +0.332 C 
BRANCH  28  29
ATOM     29  O   MET A   1      34.819  -6.256 -24.711  0.00  0.00    -0.479 OA
ATOM     30  H   MET A   1      35.752  -6.307 -24.775  0.00  0.00    +0.295 HD
ENDBRANCH  28  29
ENDBRANCH   5  28
TORSDOF 7
ENDMDL
MODEL 7
REMARK VINA RESULT:      -7.1     10.799     12.253
REMARK  Name = 656629
REMARK  7 active torsions:
REMARK  status: ('A' for Active; 'I' for Inactive)
REMARK    1  A    between atoms: CA_5  and  C_28
REMARK    2  A    between atoms: CA_9  and  N_14
REMARK    3  A    between atoms: C_15  and  C_17
REMARK    4  A    between atoms: C_17  and  S_18
REMARK    5  A    between atoms: C_17  and  C_20
REMARK    6  A    between atoms: C_20  and  C_21
REMARK    7  A    between atoms: C_28  and  O_29
REMARK                            x       y       z     vdW  Elec       q    Type
REMARK                         _______ _______ _______ _____ _____    ______ ____
ROOT
ATOM      1  SD  MET A   1      34.701 -19.405 -24.091  0.00  0.00    -0.121 S 
ATOM      2  O   MET A   1      35.437 -15.727 -21.549  0.00  0.00    -0.273 OA
ATOM      3  N   MET A   1      34.723 -17.920 -21.812  0.00  0.00    -0.262 N 
ATOM      4  CE  MET A   1      33.891 -18.906 -22.530  0.00  0.00    +0.124 C 
ATOM      5  CA  MET A   1      35.693 -18.393 -20.809  0.00  0.00    +0.175 C 
ATOM      6  C   MET A   1      33.503 -20.126 -21.688  0.00  0.00    +0.031 C 
ATOM      7  C   MET A   1      35.262 -19.620 -20.014  0.00  0.00    +0.031 C 
ATOM      8  C   MET A   1      34.660 -20.707 -20.892  0.00  0.00    +0.005 C 
ATOM      9  CA  MET A   1      33.952 -16.147 -23.397  0.00  0.00    +0.150 C 
ATOM     10  C   MET A   1      34.753 -16.556 -22.158  0.00  0.00    +0.244 C 
ATOM     11  CB  MET A   1      34.612 -16.643 -24.690  0.00  0.00    +0.041 C 
ATOM     12  CG  MET A   1      34.162 -18.028 -25.152  0.00  0.00    +0.061 C 
ENDROOT
BRANCH   9  14
ATOM     13  O   UNK A   0      32.089 -14.510 -21.950  0.00  0.00    -0.274 OA
ATOM     14  N   MET A   1      33.901 -14.701 -23.387  0.00  0.00    -0.298 N 
ATOM     15  C   UNK A   0      32.959 -13.997 -22.653  0.00  0.00    +0.232 C 
ATOM     16  H   MET A   1      34.559 -14.198 -23.920  0.00  0.00    +0.150 HD
BRANCH  15  17
ATOM     17  C   UNK A   0      33.092 -12.488 -22.826  0.00  0.00    +0.124 C 
BRANCH  17  18
ATOM     18  S   UNK A   0      33.714 -12.203 -24.522  0.00  0.00    -0.159 S 
ATOM     19  H   UNK A   0      33.228 -11.023 -24.990  0.00  0.00    +0.103 HD
ENDBRANCH  17  18
BRANCH  17  20
ATOM     20  C   UNK A   0      31.752 -11.762 -22.641  0.00  0.00    +0.046 C 
BRANCH  20  21
ATOM     21  C   UNK A   0      31.801 -10.751 -21.517  0.00  0.00    -0.021 C 
ATOM     22  C   UNK A   0      32.172  -9.447 -21.797  0.00  0.00    -0.004 C 
ATOM     23  C   UNK A   0      31.474 -11.151 -20.232  0.00  0.00    -0.004 C 
ATOM     24  C   UNK A   0      32.216  -8.514 -20.761  0.00  0.00    -0.000 C 
ATOM     25  C   UNK A   0      31.519 -10.218 -19.196  0.00  0.00    -0.000 C 
ATOM     26  C   UNK A   0      31.890  -8.899 -19.461  0.00  0.00    -0.000 C 
ENDBRANCH  20  21
ENDBRANCH  17  20
ENDBRANCH  15  17
ENDBRANCH   9  14
BRANCH   5  28
ATOM     27  OXT MET A   1      37.931 -19.276 -21.087  0.00  0.00    -0.248 OA
ATOM     28  C   MET A   1      36.988 -18.639 -21.532  0.00  0.00    +0.332 C 
BRANCH  28  29
ATOM     29  O   MET A   1      36.972 -18.051 -22.754  0.00  0.00    -0.479 OA
ATOM     30  H   MET A   1      37.693 -18.168 -23.340  0.00  0.00    +0.295 HD
ENDBRANCH  28  29
ENDBRANCH   5  28
TORSDOF 7
ENDMDL
MODEL 8
REMARK VINA RESULT:      -7.1     11.446     13.204
REMARK  Name = 656629
REMARK  7 active torsions:
REMARK  status: ('A' for Active; 'I' for Inactive)
REMARK    1  A    between atoms: CA_5  and  C_28
REMARK    2  A    between atoms: CA_9  and  N_14
REMARK    3  A    between atoms: C_15  and  C_17
REMARK    4  A    between atoms: C_17  and  S_18
REMARK    5  A    between atoms: C_17  and  C_20
REMARK    6  A    between atoms: C_20  and  C_21
REMARK    7  A    between atoms: C_28  and  O_29
REMARK                            x       y       z     vdW  Elec       q    Type
REMARK                         _______ _______ _______ _____ _____    ______ ____
ROOT
ATOM      1  SD  MET A   1      33.070 -17.731 -21.054  0.00  0.00    -0.121 S 
ATOM      2  O   MET A   1      35.165 -15.047 -24.044  0.00  0.00    -0.273 OA
ATOM      3  N   MET A   1      35.166 -16.787 -22.508  0.00  0.00    -0.262 N 
ATOM      4  CE  MET A   1      34.840 -17.288 -21.158  0.00  0.00    +0.124 C 
ATOM      5  CA  MET A   1      35.650 -17.734 -23.528  0.00  0.00    +0.175 C 
ATOM      6  C   MET A   1      35.732 -18.443 -20.689  0.00  0.00    +0.031 C 
ATOM      7  C   MET A   1      36.518 -18.872 -23.003  0.00  0.00    +0.031 C 
ATOM      8  C   MET A   1      35.946 -19.513 -21.747  0.00  0.00    +0.005 C 
ATOM      9  CA  MET A   1      34.108 -14.598 -21.928  0.00  0.00    +0.150 C 
ATOM     10  C   MET A   1      34.879 -15.472 -22.920  0.00  0.00    +0.244 C 
ATOM     11  CB  MET A   1      32.644 -15.037 -21.802  0.00  0.00    +0.041 C 
ATOM     12  CG  MET A   1      32.376 -16.082 -20.719  0.00  0.00    +0.061 C 
ENDROOT
BRANCH   9  14
ATOM     13  O   UNK A   0      32.333 -13.392 -23.835  0.00  0.00    -0.274 OA
ATOM     14  N   MET A   1      34.180 -13.246 -22.438  0.00  0.00    -0.298 N 
ATOM     15  C   UNK A   0      33.272 -12.752 -23.362  0.00  0.00    +0.232 C 
ATOM     16  H   MET A   1      34.899 -12.654 -22.118  0.00  0.00    +0.150 HD
BRANCH  15  17
ATOM     17  C   UNK A   0      33.572 -11.312 -23.764  0.00  0.00    +0.124 C 
BRANCH  17  18
ATOM     18  S   UNK A   0      34.032 -11.344 -25.534  0.00  0.00    -0.159 S 
ATOM     19  H   UNK A   0      33.373 -10.353 -26.191  0.00  0.00    +0.103 HD
ENDBRANCH  17  18
BRANCH  17  20
ATOM     20  C   UNK A   0      32.362 -10.390 -23.564  0.00  0.00    +0.046 C 
BRANCH  20  21
ATOM     21  C   UNK A   0      32.068 -10.144 -22.101  0.00  0.00    -0.021 C 
ATOM     22  C   UNK A   0      31.373 -11.102 -21.381  0.00  0.00    -0.004 C 
ATOM     23  C   UNK A   0      32.497  -8.967 -21.512  0.00  0.00    -0.004 C 
ATOM     24  C   UNK A   0      31.101 -10.876 -20.032  0.00  0.00    -0.000 C 
ATOM     25  C   UNK A   0      32.225  -8.741 -20.163  0.00  0.00    -0.000 C 
ATOM     26  C   UNK A   0      31.527  -9.695 -19.423  0.00  0.00    -0.000 C 
ENDBRANCH  20  21
ENDBRANCH  17  20
ENDBRANCH  15  17
ENDBRANCH   9  14
BRANCH   5  28
ATOM     27  OXT MET A   1      33.807 -19.253 -23.928  0.00  0.00    -0.248 OA
ATOM     28  C   MET A   1      34.440 -18.259 -24.249  0.00  0.00    +0.332 C 
BRANCH  28  29
ATOM     29  O   MET A   1      34.144 -17.477 -25.317  0.00  0.00    -0.479 OA
ATOM     30  H   MET A   1      34.436 -16.587 -25.342  0.00  0.00    +0.295 HD
ENDBRANCH  28  29
ENDBRANCH   5  28
TORSDOF 7
ENDMDL
MODEL 9
REMARK VINA RESULT:      -6.7     15.289     17.062
REMARK  Name = 656629
REMARK  7 active torsions:
REMARK  status: ('A' for Active; 'I' for Inactive)
REMARK    1  A    between atoms: CA_5  and  C_28
REMARK    2  A    between atoms: CA_9  and  N_14
REMARK    3  A    between atoms: C_15  and  C_17
REMARK    4  A    between atoms: C_17  and  S_18
REMARK    5  A    between atoms: C_17  and  C_20
REMARK    6  A    between atoms: C_20  and  C_21
REMARK    7  A    between atoms: C_28  and  O_29
REMARK                            x       y       z     vdW  Elec       q    Type
REMARK                         _______ _______ _______ _____ _____    ______ ____
ROOT
ATOM      1  SD  MET A   1      32.183 -14.371 -22.008  0.00  0.00    -0.121 S 
ATOM      2  O   MET A   1      34.017 -11.631 -25.115  0.00  0.00    -0.273 OA
ATOM      3  N   MET A   1      34.110 -13.471 -23.703  0.00  0.00    -0.262 N 
ATOM      4  CE  MET A   1      33.948 -14.043 -22.352  0.00  0.00    +0.124 C 
ATOM      5  CA  MET A   1      34.365 -14.374 -24.839  0.00  0.00    +0.175 C 
ATOM      6  C   MET A   1      34.807 -15.284 -22.093  0.00  0.00    +0.031 C 
ATOM      7  C   MET A   1      35.210 -15.601 -24.520  0.00  0.00    +0.031 C 
ATOM      8  C   MET A   1      34.781 -16.290 -23.232  0.00  0.00    +0.005 C 
ATOM      9  CA  MET A   1      33.320 -11.262 -22.841  0.00  0.00    +0.150 C 
ATOM     10  C   MET A   1      33.868 -12.114 -23.989  0.00  0.00    +0.244 C 
ATOM     11  CB  MET A   1      31.861 -11.609 -22.521  0.00  0.00    +0.041 C 
ATOM     12  CG  MET A   1      31.675 -12.708 -21.474  0.00  0.00    +0.061 C 
ENDROOT
BRANCH   9  14
ATOM     13  O   UNK A   0      32.516  -8.938 -21.360  0.00  0.00    -0.274 OA
ATOM     14  N   MET A   1      33.420  -9.885 -23.275  0.00  0.00    -0.298 N 
ATOM     15  C   UNK A   0      33.003  -8.826 -22.484  0.00  0.00    +0.232 C 
ATOM     16  H   MET A   1      33.799  -9.693 -24.164  0.00  0.00    +0.150 HD
BRANCH  15  17
ATOM     17  C   UNK A   0      33.187  -7.476 -23.171  0.00  0.00    +0.124 C 
BRANCH  17  18
ATOM     18  S   UNK A   0      34.639  -7.636 -24.270  0.00  0.00    -0.159 S 
ATOM     19  H   UNK A   0      35.760  -7.800 -23.519  0.00  0.00    +0.103 HD
ENDBRANCH  17  18
BRANCH  17  20
ATOM     20  C   UNK A   0      31.958  -7.074 -23.998  0.00  0.00    +0.046 C 
BRANCH  20  21
ATOM     21  C   UNK A   0      31.842  -5.575 -24.156  0.00  0.00    -0.021 C 
ATOM     22  C   UNK A   0      32.150  -4.998 -25.377  0.00  0.00    -0.004 C 
ATOM     23  C   UNK A   0      31.430  -4.810 -23.078  0.00  0.00    -0.004 C 
ATOM     24  C   UNK A   0      32.043  -3.615 -25.523  0.00  0.00    -0.000 C 
ATOM     25  C   UNK A   0      31.323  -3.427 -23.224  0.00  0.00    -0.000 C 
ATOM     26  C   UNK A   0      31.630  -2.830 -24.447  0.00  0.00    -0.000 C 
ENDBRANCH  20  21
ENDBRANCH  17  20
ENDBRANCH  15  17
ENDBRANCH   9  14
BRANCH   5  28
ATOM     27  OXT MET A   1      31.999 -14.112 -25.284  0.00  0.00    -0.248 OA
ATOM     28  C   MET A   1      33.026 -14.764 -25.399  0.00  0.00    +0.332 C 
BRANCH  28  29
ATOM     29  O   MET A   1      33.109 -15.949 -26.053  0.00  0.00    -0.479 OA
ATOM     30  H   MET A   1      33.946 -16.321 -26.245  0.00  0.00    +0.295 HD
ENDBRANCH  28  29
ENDBRANCH   5  28
TORSDOF 7
ENDMDL
