MODEL 1
REMARK VINA RESULT:      -9.0      0.000      0.000
REMARK  Name = 5391
REMARK  2 active torsions:
REMARK  status: ('A' for Active; 'I' for Inactive)
REMARK    1  A    between atoms: C_7  and  C_15
REMARK    2  A    between atoms: C_8  and  O_21
REMARK                            x       y       z     vdW  Elec       q    Type
REMARK                         _______ _______ _______ _____ _____    ______ ____
ROOT
ATOM      1 CL   UNL     1      35.822 -21.949 -18.706  0.00  0.00    -0.082 Cl
ATOM      2  O   UNL     1      30.547 -24.308 -13.031  0.00  0.00    -0.270 OA
ATOM      3  N   UNL     1      31.468 -23.996 -15.144  0.00  0.00    -0.253 N 
ATOM      4  N   UNL     1      33.713 -23.809 -13.120  0.00  0.00    -0.235 NA
ATOM      5  C   UNL     1      32.545 -23.541 -15.980  0.00  0.00    +0.055 C 
ATOM      6  C   UNL     1      33.886 -23.501 -15.550  0.00  0.00    +0.032 C 
ATOM      7  C   UNL     1      34.319 -24.047 -14.232  0.00  0.00    +0.080 C 
ATOM      8  C   UNL     1      32.528 -22.969 -13.147  0.00  0.00    +0.296 C 
ATOM      9  C   UNL     1      31.433 -23.837 -13.751  0.00  0.00    +0.281 C 
ATOM     10  C   UNL     1      34.892 -22.991 -16.392  0.00  0.00    +0.014 C 
ATOM     11  C   UNL     1      32.270 -23.129 -17.299  0.00  0.00    +0.016 C 
ATOM     12  C   UNL     1      30.307 -24.604 -15.794  0.00  0.00    +0.120 C 
ATOM     13  C   UNL     1      34.585 -22.561 -17.680  0.00  0.00    +0.058 C 
ATOM     14  C   UNL     1      33.276 -22.642 -18.137  0.00  0.00    +0.013 C 
ENDROOT
BRANCH   7  15
ATOM     15  C   UNL     1      35.514 -24.939 -14.178  0.00  0.00    +0.017 C 
ATOM     16  C   UNL     1      35.804 -25.766 -15.258  0.00  0.00    +0.001 C 
ATOM     17  C   UNL     1      36.324 -24.936 -13.048  0.00  0.00    +0.001 C 
ATOM     18  C   UNL     1      36.921 -26.600 -15.207  0.00  0.00    +0.000 C 
ATOM     19  C   UNL     1      37.441 -25.769 -12.998  0.00  0.00    +0.000 C 
ATOM     20  C   UNL     1      37.740 -26.602 -14.077  0.00  0.00    +0.000 C 
ENDBRANCH   7  15
BRANCH   8  21
ATOM     21  O   UNL     1      32.072 -22.539 -11.866  0.00  0.00    -0.357 OA
ATOM     22  H   UNL     1      31.166 -22.857 -11.721  0.00  0.00    +0.213 HD
ENDBRANCH   8  21
TORSDOF 2
ENDMDL
MODEL 2
REMARK VINA RESULT:      -8.9     12.710     14.969
REMARK  Name = 5391
REMARK  2 active torsions:
REMARK  status: ('A' for Active; 'I' for Inactive)
REMARK    1  A    between atoms: C_7  and  C_15
REMARK    2  A    between atoms: C_8  and  O_21
REMARK                            x       y       z     vdW  Elec       q    Type
REMARK                         _______ _______ _______ _____ _____    ______ ____
ROOT
ATOM      1 CL   UNL     1      30.480 -11.285 -20.438  0.00  0.00    -0.082 Cl
ATOM      2  O   UNL     1      35.248 -11.521 -26.981  0.00  0.00    -0.270 OA
ATOM      3  N   UNL     1      34.353 -10.762 -24.973  0.00  0.00    -0.253 N 
ATOM      4  N   UNL     1      33.698 -13.709 -25.223  0.00  0.00    -0.235 NA
ATOM      5  C   UNL     1      33.449 -10.930 -23.868  0.00  0.00    +0.055 C 
ATOM      6  C   UNL     1      33.016 -12.192 -23.415  0.00  0.00    +0.032 C 
ATOM      7  C   UNL     1      33.561 -13.467 -23.964  0.00  0.00    +0.080 C 
ATOM      8  C   UNL     1      33.314 -12.674 -26.169  0.00  0.00    +0.296 C 
ATOM      9  C   UNL     1      34.409 -11.621 -26.080  0.00  0.00    +0.281 C 
ATOM     10  C   UNL     1      32.085 -12.294 -22.365  0.00  0.00    +0.014 C 
ATOM     11  C   UNL     1      32.976  -9.793 -23.182  0.00  0.00    +0.016 C 
ATOM     12  C   UNL     1      35.223  -9.586 -24.973  0.00  0.00    +0.120 C 
ATOM     13  C   UNL     1      31.611 -11.152 -21.727  0.00  0.00    +0.058 C 
ATOM     14  C   UNL     1      32.067  -9.902 -22.128  0.00  0.00    +0.013 C 
ENDROOT
BRANCH   7  15
ATOM     15  C   UNL     1      33.993 -14.534 -23.015  0.00  0.00    +0.017 C 
ATOM     16  C   UNL     1      34.123 -14.241 -21.663  0.00  0.00    +0.001 C 
ATOM     17  C   UNL     1      34.263 -15.812 -23.494  0.00  0.00    +0.001 C 
ATOM     18  C   UNL     1      34.528 -15.239 -20.777  0.00  0.00    +0.000 C 
ATOM     19  C   UNL     1      34.667 -16.809 -22.608  0.00  0.00    +0.000 C 
ATOM     20  C   UNL     1      34.800 -16.523 -21.249  0.00  0.00    +0.000 C 
ENDBRANCH   7  15
BRANCH   8  21
ATOM     21  O   UNL     1      33.245 -13.104 -27.527  0.00  0.00    -0.357 OA
ATOM     22  H   UNL     1      33.029 -12.347 -28.095  0.00  0.00    +0.213 HD
ENDBRANCH   8  21
TORSDOF 2
ENDMDL
MODEL 3
REMARK VINA RESULT:      -8.5      2.569      5.092
REMARK  Name = 5391
REMARK  2 active torsions:
REMARK  status: ('A' for Active; 'I' for Inactive)
REMARK    1  A    between atoms: C_7  and  C_15
REMARK    2  A    between atoms: C_8  and  O_21
REMARK                            x       y       z     vdW  Elec       q    Type
REMARK                         _______ _______ _______ _____ _____    ______ ____
ROOT
ATOM      1 CL   UNL     1      35.608 -20.963 -19.419  0.00  0.00    -0.082 Cl
ATOM      2  O   UNL     1      36.990 -25.523 -12.870  0.00  0.00    -0.270 OA
ATOM      3  N   UNL     1      37.084 -23.690 -14.298  0.00  0.00    -0.253 N 
ATOM      4  N   UNL     1      34.627 -25.306 -15.026  0.00  0.00    -0.235 NA
ATOM      5  C   UNL     1      36.680 -23.032 -15.510  0.00  0.00    +0.055 C 
ATOM      6  C   UNL     1      35.444 -23.276 -16.142  0.00  0.00    +0.032 C 
ATOM      7  C   UNL     1      34.395 -24.144 -15.534  0.00  0.00    +0.080 C 
ATOM      8  C   UNL     1      35.994 -25.798 -15.029  0.00  0.00    +0.296 C 
ATOM      9  C   UNL     1      36.714 -24.998 -13.953  0.00  0.00    +0.281 C 
ATOM     10  C   UNL     1      35.126 -22.646 -17.359  0.00  0.00    +0.014 C 
ATOM     11  C   UNL     1      37.538 -22.084 -16.101  0.00  0.00    +0.016 C 
ATOM     12  C   UNL     1      37.989 -22.974 -13.399  0.00  0.00    +0.120 C 
ATOM     13  C   UNL     1      36.008 -21.737 -17.936  0.00  0.00    +0.058 C 
ATOM     14  C   UNL     1      37.209 -21.447 -17.300  0.00  0.00    +0.013 C 
ENDROOT
BRANCH   7  15
ATOM     15  C   UNL     1      32.988 -23.650 -15.488  0.00  0.00    +0.017 C 
ATOM     16  C   UNL     1      32.314 -23.381 -16.673  0.00  0.00    +0.001 C 
ATOM     17  C   UNL     1      32.365 -23.464 -14.259  0.00  0.00    +0.001 C 
ATOM     18  C   UNL     1      30.999 -22.919 -16.629  0.00  0.00    +0.000 C 
ATOM     19  C   UNL     1      31.050 -23.003 -14.215  0.00  0.00    +0.000 C 
ATOM     20  C   UNL     1      30.366 -22.729 -15.400  0.00  0.00    +0.000 C 
ENDBRANCH   7  15
BRANCH   8  21
ATOM     21  O   UNL     1      36.132 -27.178 -14.697  0.00  0.00    -0.357 OA
ATOM     22  H   UNL     1      35.286 -27.631 -14.841  0.00  0.00    +0.213 HD
ENDBRANCH   8  21
TORSDOF 2
ENDMDL
MODEL 4
REMARK VINA RESULT:      -8.1      2.530      5.546
REMARK  Name = 5391
REMARK  2 active torsions:
REMARK  status: ('A' for Active; 'I' for Inactive)
REMARK    1  A    between atoms: C_7  and  C_15
REMARK    2  A    between atoms: C_8  and  O_21
REMARK                            x       y       z     vdW  Elec       q    Type
REMARK                         _______ _______ _______ _____ _____    ______ ____
ROOT
ATOM      1 CL   UNL     1      36.867 -27.723 -16.592  0.00  0.00    -0.082 Cl
ATOM      2  O   UNL     1      36.894 -22.763 -10.190  0.00  0.00    -0.270 OA
ATOM      3  N   UNL     1      37.620 -23.780 -12.151  0.00  0.00    -0.253 N 
ATOM      4  N   UNL     1      34.621 -24.163 -11.967  0.00  0.00    -0.235 NA
ATOM      5  C   UNL     1      37.400 -24.698 -13.236  0.00  0.00    +0.055 C 
ATOM      6  C   UNL     1      36.116 -25.030 -13.712  0.00  0.00    +0.032 C 
ATOM      7  C   UNL     1      34.881 -24.359 -13.214  0.00  0.00    +0.080 C 
ATOM      8  C   UNL     1      35.593 -24.609 -10.982  0.00  0.00    +0.296 C 
ATOM      9  C   UNL     1      36.742 -23.615 -11.071  0.00  0.00    +0.281 C 
ATOM     10  C   UNL     1      35.958 -25.979 -14.738  0.00  0.00    +0.014 C 
ATOM     11  C   UNL     1      38.507 -25.289 -13.877  0.00  0.00    +0.016 C 
ATOM     12  C   UNL     1      38.869 -23.018 -12.142  0.00  0.00    +0.120 C 
ATOM     13  C   UNL     1      37.069 -26.571 -15.331  0.00  0.00    +0.058 C 
ATOM     14  C   UNL     1      38.344 -26.217 -14.908  0.00  0.00    +0.013 C 
ENDROOT
BRANCH   7  15
ATOM     15  C   UNL     1      33.881 -23.861 -14.203  0.00  0.00    +0.017 C 
ATOM     16  C   UNL     1      32.554 -23.707 -13.822  0.00  0.00    +0.001 C 
ATOM     17  C   UNL     1      34.288 -23.558 -15.498  0.00  0.00    +0.001 C 
ATOM     18  C   UNL     1      31.620 -23.243 -14.747  0.00  0.00    +0.000 C 
ATOM     19  C   UNL     1      33.354 -23.092 -16.422  0.00  0.00    +0.000 C 
ATOM     20  C   UNL     1      32.019 -22.935 -16.048  0.00  0.00    +0.000 C 
ENDBRANCH   7  15
BRANCH   8  21
ATOM     21  O   UNL     1      35.124 -24.600  -9.635  0.00  0.00    -0.357 OA
ATOM     22  H   UNL     1      34.446 -25.286  -9.524  0.00  0.00    +0.213 HD
ENDBRANCH   8  21
TORSDOF 2
ENDMDL
MODEL 5
REMARK VINA RESULT:      -8.0     12.632     15.017
REMARK  Name = 5391
REMARK  2 active torsions:
REMARK  status: ('A' for Active; 'I' for Inactive)
REMARK    1  A    between atoms: C_7  and  C_15
REMARK    2  A    between atoms: C_8  and  O_21
REMARK                            x       y       z     vdW  Elec       q    Type
REMARK                         _______ _______ _______ _____ _____    ______ ____
ROOT
ATOM      1 CL   UNL     1      35.025 -16.027 -20.567  0.00  0.00    -0.082 Cl
ATOM      2  O   UNL     1      33.046 -12.528 -27.599  0.00  0.00    -0.270 OA
ATOM      3  N   UNL     1      33.177 -14.160 -25.946  0.00  0.00    -0.253 N 
ATOM      4  N   UNL     1      33.668 -11.474 -24.635  0.00  0.00    -0.235 NA
ATOM      5  C   UNL     1      33.587 -14.574 -24.633  0.00  0.00    +0.055 C 
ATOM      6  C   UNL     1      33.729 -13.678 -23.554  0.00  0.00    +0.032 C 
ATOM      7  C   UNL     1      33.341 -12.242 -23.653  0.00  0.00    +0.080 C 
ATOM      8  C   UNL     1      34.449 -12.040 -25.722  0.00  0.00    +0.296 C 
ATOM      9  C   UNL     1      33.478 -12.910 -26.506  0.00  0.00    +0.281 C 
ATOM     10  C   UNL     1      34.191 -14.132 -22.305  0.00  0.00    +0.014 C 
ATOM     11  C   UNL     1      33.848 -15.937 -24.387  0.00  0.00    +0.016 C 
ATOM     12  C   UNL     1      32.455 -15.126 -26.775  0.00  0.00    +0.120 C 
ATOM     13  C   UNL     1      34.471 -15.480 -22.101  0.00  0.00    +0.058 C 
ATOM     14  C   UNL     1      34.287 -16.384 -23.139  0.00  0.00    +0.013 C 
ENDROOT
BRANCH   7  15
ATOM     15  C   UNL     1      32.512 -11.643 -22.567  0.00  0.00    +0.017 C 
ATOM     16  C   UNL     1      31.888 -12.471 -21.641  0.00  0.00    +0.001 C 
ATOM     17  C   UNL     1      32.369 -10.261 -22.494  0.00  0.00    +0.001 C 
ATOM     18  C   UNL     1      31.112 -11.910 -20.627  0.00  0.00    +0.000 C 
ATOM     19  C   UNL     1      31.594  -9.701 -21.479  0.00  0.00    +0.000 C 
ATOM     20  C   UNL     1      30.964 -10.525 -20.546  0.00  0.00    +0.000 C 
ENDBRANCH   7  15
BRANCH   8  21
ATOM     21  O   UNL     1      34.991 -11.081 -26.629  0.00  0.00    -0.357 OA
ATOM     22  H   UNL     1      34.267 -10.615 -27.077  0.00  0.00    +0.213 HD
ENDBRANCH   8  21
TORSDOF 2
ENDMDL
MODEL 6
REMARK VINA RESULT:      -7.5     16.408     18.894
REMARK  Name = 5391
REMARK  2 active torsions:
REMARK  status: ('A' for Active; 'I' for Inactive)
REMARK    1  A    between atoms: C_7  and  C_15
REMARK    2  A    between atoms: C_8  and  O_21
REMARK                            x       y       z     vdW  Elec       q    Type
REMARK                         _______ _______ _______ _____ _____    ______ ____
ROOT
ATOM      1 CL   UNL     1      32.388  -5.987 -19.133  0.00  0.00    -0.082 Cl
ATOM      2  O   UNL     1      33.648 -11.588 -24.846  0.00  0.00    -0.270 OA
ATOM      3  N   UNL     1      32.656 -10.520 -23.034  0.00  0.00    -0.253 N 
ATOM      4  N   UNL     1      34.231  -8.446 -24.580  0.00  0.00    -0.235 NA
ATOM      5  C   UNL     1      32.577  -9.400 -22.137  0.00  0.00    +0.055 C 
ATOM      6  C   UNL     1      32.980  -8.098 -22.495  0.00  0.00    +0.032 C 
ATOM      7  C   UNL     1      33.403  -7.747 -23.882  0.00  0.00    +0.080 C 
ATOM      8  C   UNL     1      34.777  -9.657 -23.993  0.00  0.00    +0.296 C 
ATOM      9  C   UNL     1      33.640 -10.668 -24.021  0.00  0.00    +0.281 C 
ATOM     10  C   UNL     1      32.935  -7.051 -21.556  0.00  0.00    +0.014 C 
ATOM     11  C   UNL     1      32.060  -9.588 -20.839  0.00  0.00    +0.016 C 
ATOM     12  C   UNL     1      31.687 -11.603 -22.863  0.00  0.00    +0.120 C 
ATOM     13  C   UNL     1      32.449  -7.274 -20.272  0.00  0.00    +0.058 C 
ATOM     14  C   UNL     1      32.000  -8.540 -19.917  0.00  0.00    +0.013 C 
ENDROOT
BRANCH   7  15
ATOM     15  C   UNL     1      32.833  -6.527 -24.523  0.00  0.00    +0.017 C 
ATOM     16  C   UNL     1      33.582  -5.830 -25.463  0.00  0.00    +0.001 C 
ATOM     17  C   UNL     1      31.558  -6.098 -24.171  0.00  0.00    +0.001 C 
ATOM     18  C   UNL     1      33.049  -4.689 -26.062  0.00  0.00    +0.000 C 
ATOM     19  C   UNL     1      31.025  -4.957 -24.771  0.00  0.00    +0.000 C 
ATOM     20  C   UNL     1      31.770  -4.252 -25.716  0.00  0.00    +0.000 C 
ENDBRANCH   7  15
BRANCH   8  21
ATOM     21  O   UNL     1      35.871 -10.227 -24.709  0.00  0.00    -0.357 OA
ATOM     22  H   UNL     1      36.701  -9.824 -24.405  0.00  0.00    +0.213 HD
ENDBRANCH   8  21
TORSDOF 2
ENDMDL
MODEL 7
REMARK VINA RESULT:      -7.4      2.643      5.281
REMARK  Name = 5391
REMARK  2 active torsions:
REMARK  status: ('A' for Active; 'I' for Inactive)
REMARK    1  A    between atoms: C_7  and  C_15
REMARK    2  A    between atoms: C_8  and  O_21
REMARK                            x       y       z     vdW  Elec       q    Type
REMARK                         _______ _______ _______ _____ _____    ______ ____
ROOT
ATOM      1 CL   UNL     1      40.430 -25.863 -15.505  0.00  0.00    -0.082 Cl
ATOM      2  O   UNL     1      33.535 -23.491 -11.978  0.00  0.00    -0.270 OA
ATOM      3  N   UNL     1      35.817 -23.831 -12.275  0.00  0.00    -0.253 N 
ATOM      4  N   UNL     1      34.505 -23.924 -15.004  0.00  0.00    -0.235 NA
ATOM      5  C   UNL     1      36.916 -24.281 -13.086  0.00  0.00    +0.055 C 
ATOM      6  C   UNL     1      36.881 -24.283 -14.494  0.00  0.00    +0.032 C 
ATOM      7  C   UNL     1      35.747 -23.698 -15.266  0.00  0.00    +0.080 C 
ATOM      8  C   UNL     1      34.184 -24.789 -13.881  0.00  0.00    +0.296 C 
ATOM      9  C   UNL     1      34.469 -23.959 -12.638  0.00  0.00    +0.281 C 
ATOM     10  C   UNL     1      37.964 -24.790 -15.235  0.00  0.00    +0.014 C 
ATOM     11  C   UNL     1      38.098 -24.728 -12.462  0.00  0.00    +0.016 C 
ATOM     12  C   UNL     1      36.123 -23.261 -10.963  0.00  0.00    +0.120 C 
ATOM     13  C   UNL     1      39.106 -25.255 -14.591  0.00  0.00    +0.058 C 
ATOM     14  C   UNL     1      39.177 -25.212 -13.204  0.00  0.00    +0.013 C 
ENDROOT
BRANCH   7  15
ATOM     15  C   UNL     1      36.046 -22.780 -16.403  0.00  0.00    +0.017 C 
ATOM     16  C   UNL     1      37.137 -21.923 -16.327  0.00  0.00    +0.001 C 
ATOM     17  C   UNL     1      35.228 -22.790 -17.528  0.00  0.00    +0.001 C 
ATOM     18  C   UNL     1      37.416 -21.064 -17.390  0.00  0.00    +0.000 C 
ATOM     19  C   UNL     1      35.508 -21.932 -18.591  0.00  0.00    +0.000 C 
ATOM     20  C   UNL     1      36.601 -21.068 -18.522  0.00  0.00    +0.000 C 
ENDBRANCH   7  15
BRANCH   8  21
ATOM     21  O   UNL     1      32.820 -25.201 -13.816  0.00  0.00    -0.357 OA
ATOM     22  H   UNL     1      32.281 -24.622 -14.379  0.00  0.00    +0.213 HD
ENDBRANCH   8  21
TORSDOF 2
ENDMDL
MODEL 8
REMARK VINA RESULT:      -7.2     11.544     13.875
REMARK  Name = 5391
REMARK  2 active torsions:
REMARK  status: ('A' for Active; 'I' for Inactive)
REMARK    1  A    between atoms: C_7  and  C_15
REMARK    2  A    between atoms: C_8  and  O_21
REMARK                            x       y       z     vdW  Elec       q    Type
REMARK                         _______ _______ _______ _____ _____    ______ ____
ROOT
ATOM      1 CL   UNL     1      31.963 -13.612 -19.867  0.00  0.00    -0.082 Cl
ATOM      2  O   UNL     1      33.873 -13.006 -27.715  0.00  0.00    -0.270 OA
ATOM      3  N   UNL     1      33.783 -12.466 -25.454  0.00  0.00    -0.253 N 
ATOM      4  N   UNL     1      33.205 -15.428 -25.722  0.00  0.00    -0.235 NA
ATOM      5  C   UNL     1      33.378 -12.783 -24.112  0.00  0.00    +0.055 C 
ATOM      6  C   UNL     1      33.204 -14.104 -23.653  0.00  0.00    +0.032 C 
ATOM      7  C   UNL     1      33.549 -15.291 -24.488  0.00  0.00    +0.080 C 
ATOM      8  C   UNL     1      32.447 -14.358 -26.349  0.00  0.00    +0.296 C 
ATOM      9  C   UNL     1      33.447 -13.235 -26.578  0.00  0.00    +0.281 C 
ATOM     10  C   UNL     1      32.749 -14.352 -22.345  0.00  0.00    +0.014 C 
ATOM     11  C   UNL     1      33.157 -11.739 -23.192  0.00  0.00    +0.016 C 
ATOM     12  C   UNL     1      34.538 -11.232 -25.668  0.00  0.00    +0.120 C 
ATOM     13  C   UNL     1      32.509 -13.299 -21.468  0.00  0.00    +0.058 C 
ATOM     14  C   UNL     1      32.724 -11.993 -21.888  0.00  0.00    +0.013 C 
ENDROOT
BRANCH   7  15
ATOM     15  C   UNL     1      34.355 -16.389 -23.880  0.00  0.00    +0.017 C 
ATOM     16  C   UNL     1      34.957 -16.197 -22.643  0.00  0.00    +0.001 C 
ATOM     17  C   UNL     1      34.495 -17.595 -24.559  0.00  0.00    +0.001 C 
ATOM     18  C   UNL     1      35.711 -17.225 -22.075  0.00  0.00    +0.000 C 
ATOM     19  C   UNL     1      35.248 -18.622 -23.991  0.00  0.00    +0.000 C 
ATOM     20  C   UNL     1      35.857 -18.437 -22.749  0.00  0.00    +0.000 C 
ENDBRANCH   7  15
BRANCH   8  21
ATOM     21  O   UNL     1      31.881 -14.690 -27.615  0.00  0.00    -0.357 OA
ATOM     22  H   UNL     1      31.349 -15.497 -27.530  0.00  0.00    +0.213 HD
ENDBRANCH   8  21
TORSDOF 2
ENDMDL
MODEL 9
REMARK VINA RESULT:      -7.2      2.072      4.638
REMARK  Name = 5391
REMARK  2 active torsions:
REMARK  status: ('A' for Active; 'I' for Inactive)
REMARK    1  A    between atoms: C_7  and  C_15
REMARK    2  A    between atoms: C_8  and  O_21
REMARK                            x       y       z     vdW  Elec       q    Type
REMARK                         _______ _______ _______ _____ _____    ______ ____
ROOT
ATOM      1 CL   UNL     1      37.571 -25.877 -14.395  0.00  0.00    -0.082 Cl
ATOM      2  O   UNL     1      30.139 -22.670 -14.677  0.00  0.00    -0.270 OA
ATOM      3  N   UNL     1      32.254 -23.180 -13.854  0.00  0.00    -0.253 N 
ATOM      4  N   UNL     1      32.319 -23.543 -16.861  0.00  0.00    -0.235 NA
ATOM      5  C   UNL     1      33.543 -23.794 -14.022  0.00  0.00    +0.055 C 
ATOM      6  C   UNL     1      34.150 -23.974 -15.281  0.00  0.00    +0.032 C 
ATOM      7  C   UNL     1      33.561 -23.426 -16.537  0.00  0.00    +0.080 C 
ATOM      8  C   UNL     1      31.430 -24.237 -15.944  0.00  0.00    +0.296 C 
ATOM      9  C   UNL     1      31.211 -23.274 -14.787  0.00  0.00    +0.281 C 
ATOM     10  C   UNL     1      35.387 -24.634 -15.390  0.00  0.00    +0.014 C 
ATOM     11  C   UNL     1      34.256 -24.227 -12.887  0.00  0.00    +0.016 C 
ATOM     12  C   UNL     1      31.993 -22.467 -12.603  0.00  0.00    +0.120 C 
ATOM     13  C   UNL     1      36.054 -25.080 -14.253  0.00  0.00    +0.058 C 
ATOM     14  C   UNL     1      35.493 -24.865 -13.000  0.00  0.00    +0.013 C 
ENDROOT
BRANCH   7  15
ATOM     15  C   UNL     1      34.443 -22.679 -17.481  0.00  0.00    +0.017 C 
ATOM     16  C   UNL     1      35.745 -22.369 -17.107  0.00  0.00    +0.001 C 
ATOM     17  C   UNL     1      33.952 -22.301 -18.726  0.00  0.00    +0.001 C 
ATOM     18  C   UNL     1      36.568 -21.671 -17.989  0.00  0.00    +0.000 C 
ATOM     19  C   UNL     1      34.776 -21.603 -19.608  0.00  0.00    +0.000 C 
ATOM     20  C   UNL     1      36.084 -21.288 -19.240  0.00  0.00    +0.000 C 
ENDBRANCH   7  15
BRANCH   8  21
ATOM     21  O   UNL     1      30.148 -24.556 -16.482  0.00  0.00    -0.357 OA
ATOM     22  H   UNL     1      29.778 -25.317 -16.007  0.00  0.00    +0.213 HD
ENDBRANCH   8  21
TORSDOF 2
ENDMDL
