MODEL 1
REMARK VINA RESULT:      -9.9      0.000      0.000
REMARK  Name = 23653503
REMARK  14 active torsions:
REMARK  status: ('A' for Active; 'I' for Inactive)
REMARK    1  A    between atoms: P_1  and  O_3
REMARK    2  A    between atoms: P_1  and  C_5
REMARK    3  A    between atoms: P_1  and  C_21
REMARK    4  A    between atoms: C_5  and  N_7
REMARK    5  A    between atoms: C_5  and  C_18
REMARK    6  A    between atoms: C_8  and  O_10
REMARK    7  A    between atoms: O_10  and  C_11
REMARK    8  A    between atoms: C_11  and  C_12
REMARK    9  A    between atoms: C_21  and  C_22
REMARK   10  A    between atoms: C_22  and  C_23
REMARK   11  A    between atoms: C_22  and  C_35
REMARK   12  A    between atoms: C_26  and  C_29
REMARK   13  A    between atoms: C_29  and  N_30
REMARK   14  A    between atoms: C_35  and  O_36
REMARK                            x       y       z     vdW  Elec       q    Type
REMARK                         _______ _______ _______ _____ _____    ______ ____
ROOT
ATOM      1  P   UNL     1      34.141 -16.061 -21.251  0.00  0.00    +0.238 P 
ATOM      2  O   UNL     1      32.707 -16.432 -21.013  0.00  0.00    -0.288 OA
ENDROOT
BRANCH   1   3
ATOM      3  O   UNL     1      34.989 -15.814 -19.894  0.00  0.00    -0.342 OA
ATOM      4  H   UNL     1      35.709 -15.190 -20.073  0.00  0.00    +0.218 HD
ENDBRANCH   1   3
BRANCH   1   5
ATOM      5  C   UNL     1      35.114 -17.280 -22.137  0.00  0.00    +0.152 C 
BRANCH   5   7
ATOM      6  O   UNL     1      37.596 -18.742 -21.674  0.00  0.00    -0.226 OA
ATOM      7  N   UNL     1      35.374 -18.323 -21.155  0.00  0.00    -0.264 N 
ATOM      8  C   UNL     1      36.589 -18.960 -21.009  0.00  0.00    +0.402 C 
ATOM      9  H   UNL     1      34.638 -18.589 -20.557  0.00  0.00    +0.153 HD
BRANCH   8  10
ATOM     10  O   UNL     1      36.507 -19.882 -20.006  0.00  0.00    -0.430 OA
BRANCH  10  11
ATOM     11  C   UNL     1      35.635 -20.992 -20.248  0.00  0.00    +0.237 C 
BRANCH  11  12
ATOM     12  C   UNL     1      35.382 -21.708 -18.953  0.00  0.00    +0.021 C 
ATOM     13  C   UNL     1      36.378 -21.751 -17.983  0.00  0.00    -0.001 C 
ATOM     14  C   UNL     1      34.153 -22.322 -18.735  0.00  0.00    -0.001 C 
ATOM     15  C   UNL     1      36.142 -22.416 -16.781  0.00  0.00    -0.000 C 
ATOM     16  C   UNL     1      33.917 -22.986 -17.531  0.00  0.00    -0.000 C 
ATOM     17  C   UNL     1      34.912 -23.033 -16.555  0.00  0.00    -0.000 C 
ENDBRANCH  11  12
ENDBRANCH  10  11
ENDBRANCH   8  10
ENDBRANCH   5   7
BRANCH   5  18
ATOM     18  C   UNL     1      34.493 -17.829 -23.439  0.00  0.00    +0.028 C 
ATOM     19  C   UNL     1      34.871 -17.025 -24.685  0.00  0.00    +0.002 C 
ATOM     20  C   UNL     1      34.843 -19.305 -23.648  0.00  0.00    +0.002 C 
ENDBRANCH   5  18
ENDBRANCH   1   5
BRANCH   1  21
ATOM     21  C   UNL     1      34.340 -14.516 -22.119  0.00  0.00    +0.104 C 
BRANCH  21  22
ATOM     22  C   UNL     1      33.039 -14.015 -22.760  0.00  0.00    +0.131 C 
BRANCH  22  23
ATOM     23  C   UNL     1      32.430 -12.837 -22.015  0.00  0.00    -0.012 C 
ATOM     24  C   UNL     1      32.144 -11.680 -22.713  0.00  0.00    -0.010 C 
ATOM     25  C   UNL     1      32.182 -12.957 -20.663  0.00  0.00    -0.004 C 
ATOM     26  C   UNL     1      31.587 -10.600 -22.031  0.00  0.00    -0.045 C 
ATOM     27  C   UNL     1      31.623 -11.877 -19.979  0.00  0.00    -0.001 C 
ATOM     28  C   UNL     1      31.326 -10.698 -20.664  0.00  0.00    -0.006 C 
BRANCH  26  29
ATOM     29  C   UNL     1      31.269  -9.339 -22.761  0.00  0.00    -0.059 C 
BRANCH  29  30
ATOM     30  N   UNL     1      32.317  -8.965 -23.712  0.00  0.00    +0.383 N 
ATOM     31  H   UNL     1      33.224  -8.990 -23.246  0.00  0.00    -0.089 HD
ATOM     32  H   UNL     1      32.139  -8.023 -24.061  0.00  0.00    -0.089 HD
ATOM     33  H   UNL     1      32.317  -9.621 -24.493  0.00  0.00    -0.089 HD
ENDBRANCH  29  30
ENDBRANCH  26  29
ENDBRANCH  22  23
BRANCH  22  35
ATOM     34  O   UNL     1      32.674 -14.206 -25.169  0.00  0.00    -0.250 OA
ATOM     35  C   UNL     1      33.267 -13.692 -24.230  0.00  0.00    +0.318 C 
BRANCH  35  36
ATOM     36  O   UNL     1      34.226 -12.743 -24.403  0.00  0.00    -0.480 OA
ATOM     37  H   UNL     1      35.127 -12.956 -24.254  0.00  0.00    +0.295 HD
ENDBRANCH  35  36
ENDBRANCH  22  35
ENDBRANCH  21  22
ENDBRANCH   1  21
TORSDOF 14
ENDMDL
MODEL 2
REMARK VINA RESULT:      -9.7      2.637      9.976
REMARK  Name = 23653503
REMARK  14 active torsions:
REMARK  status: ('A' for Active; 'I' for Inactive)
REMARK    1  A    between atoms: P_1  and  O_3
REMARK    2  A    between atoms: P_1  and  C_5
REMARK    3  A    between atoms: P_1  and  C_21
REMARK    4  A    between atoms: C_5  and  N_7
REMARK    5  A    between atoms: C_5  and  C_18
REMARK    6  A    between atoms: C_8  and  O_10
REMARK    7  A    between atoms: O_10  and  C_11
REMARK    8  A    between atoms: C_11  and  C_12
REMARK    9  A    between atoms: C_21  and  C_22
REMARK   10  A    between atoms: C_22  and  C_23
REMARK   11  A    between atoms: C_22  and  C_35
REMARK   12  A    between atoms: C_26  and  C_29
REMARK   13  A    between atoms: C_29  and  N_30
REMARK   14  A    between atoms: C_35  and  O_36
REMARK                            x       y       z     vdW  Elec       q    Type
REMARK                         _______ _______ _______ _____ _____    ______ ____
ROOT
ATOM      1  P   UNL     1      33.558 -14.405 -21.624  0.00  0.00    +0.238 P 
ATOM      2  O   UNL     1      35.006 -14.135 -21.342  0.00  0.00    -0.288 OA
ENDROOT
BRANCH   1   3
ATOM      3  O   UNL     1      32.570 -14.033 -20.396  0.00  0.00    -0.342 OA
ATOM      4  H   UNL     1      31.847 -13.475 -20.721  0.00  0.00    +0.218 HD
ENDBRANCH   1   3
BRANCH   1   5
ATOM      5  C   UNL     1      32.863 -13.501 -23.009  0.00  0.00    +0.152 C 
BRANCH   5   7
ATOM      6  O   UNL     1      30.687 -11.922 -21.875  0.00  0.00    -0.226 OA
ATOM      7  N   UNL     1      32.889 -12.108 -22.585  0.00  0.00    -0.264 N 
ATOM      8  C   UNL     1      31.802 -11.443 -22.056  0.00  0.00    +0.402 C 
ATOM      9  H   UNL     1      33.733 -11.611 -22.680  0.00  0.00    +0.153 HD
BRANCH   8  10
ATOM     10  O   UNL     1      32.151 -10.156 -21.760  0.00  0.00    -0.430 OA
BRANCH  10  11
ATOM     11  C   UNL     1      31.474  -9.139 -22.506  0.00  0.00    +0.237 C 
BRANCH  11  12
ATOM     12  C   UNL     1      32.490  -8.294 -23.216  0.00  0.00    +0.021 C 
ATOM     13  C   UNL     1      33.827  -8.678 -23.216  0.00  0.00    -0.001 C 
ATOM     14  C   UNL     1      32.087  -7.133 -23.868  0.00  0.00    -0.001 C 
ATOM     15  C   UNL     1      34.771  -7.892 -23.876  0.00  0.00    -0.000 C 
ATOM     16  C   UNL     1      33.031  -6.348 -24.529  0.00  0.00    -0.000 C 
ATOM     17  C   UNL     1      34.373  -6.727 -24.532  0.00  0.00    -0.000 C 
ENDBRANCH  11  12
ENDBRANCH  10  11
ENDBRANCH   8  10
ENDBRANCH   5   7
BRANCH   5  18
ATOM     18  C   UNL     1      33.546 -13.721 -24.374  0.00  0.00    +0.028 C 
ATOM     19  C   UNL     1      32.776 -14.662 -25.302  0.00  0.00    +0.002 C 
ATOM     20  C   UNL     1      33.812 -12.392 -25.089  0.00  0.00    +0.002 C 
ENDBRANCH   5  18
ENDBRANCH   1   5
BRANCH   1  21
ATOM     21  C   UNL     1      33.197 -16.128 -21.903  0.00  0.00    +0.104 C 
BRANCH  21  22
ATOM     22  C   UNL     1      34.454 -17.007 -21.944  0.00  0.00    +0.131 C 
BRANCH  22  23
ATOM     23  C   UNL     1      34.248 -18.364 -21.288  0.00  0.00    -0.012 C 
ATOM     24  C   UNL     1      35.353 -19.125 -20.965  0.00  0.00    -0.010 C 
ATOM     25  C   UNL     1      32.961 -18.795 -21.036  0.00  0.00    -0.004 C 
ATOM     26  C   UNL     1      35.165 -20.369 -20.364  0.00  0.00    -0.045 C 
ATOM     27  C   UNL     1      32.771 -20.040 -20.435  0.00  0.00    -0.001 C 
ATOM     28  C   UNL     1      33.873 -20.827 -20.099  0.00  0.00    -0.006 C 
BRANCH  26  29
ATOM     29  C   UNL     1      36.342 -21.212 -20.006  0.00  0.00    -0.059 C 
BRANCH  29  30
ATOM     30  N   UNL     1      36.324 -21.626 -18.602  0.00  0.00    +0.383 N 
ATOM     31  H   UNL     1      37.052 -21.127 -18.090  0.00  0.00    -0.089 HD
ATOM     32  H   UNL     1      36.494 -22.630 -18.542  0.00  0.00    -0.089 HD
ATOM     33  H   UNL     1      35.414 -21.411 -18.195  0.00  0.00    -0.089 HD
ENDBRANCH  29  30
ENDBRANCH  26  29
ENDBRANCH  22  23
BRANCH  22  35
ATOM     34  O   UNL     1      34.642 -18.040 -24.151  0.00  0.00    -0.250 OA
ATOM     35  C   UNL     1      34.953 -17.146 -23.375  0.00  0.00    +0.318 C 
BRANCH  35  36
ATOM     36  O   UNL     1      35.808 -16.145 -23.719  0.00  0.00    -0.480 OA
ATOM     37  H   UNL     1      36.632 -16.349 -24.117  0.00  0.00    +0.295 HD
ENDBRANCH  35  36
ENDBRANCH  22  35
ENDBRANCH  21  22
ENDBRANCH   1  21
TORSDOF 14
ENDMDL
MODEL 3
REMARK VINA RESULT:      -9.7      1.951      2.847
REMARK  Name = 23653503
REMARK  14 active torsions:
REMARK  status: ('A' for Active; 'I' for Inactive)
REMARK    1  A    between atoms: P_1  and  O_3
REMARK    2  A    between atoms: P_1  and  C_5
REMARK    3  A    between atoms: P_1  and  C_21
REMARK    4  A    between atoms: C_5  and  N_7
REMARK    5  A    between atoms: C_5  and  C_18
REMARK    6  A    between atoms: C_8  and  O_10
REMARK    7  A    between atoms: O_10  and  C_11
REMARK    8  A    between atoms: C_11  and  C_12
REMARK    9  A    between atoms: C_21  and  C_22
REMARK   10  A    between atoms: C_22  and  C_23
REMARK   11  A    between atoms: C_22  and  C_35
REMARK   12  A    between atoms: C_26  and  C_29
REMARK   13  A    between atoms: C_29  and  N_30
REMARK   14  A    between atoms: C_35  and  O_36
REMARK                            x       y       z     vdW  Elec       q    Type
REMARK                         _______ _______ _______ _____ _____    ______ ____
ROOT
ATOM      1  P   UNL     1      34.899 -17.053 -23.409  0.00  0.00    +0.238 P 
ATOM      2  O   UNL     1      36.282 -17.635 -23.407  0.00  0.00    -0.288 OA
ENDROOT
BRANCH   1   3
ATOM      3  O   UNL     1      33.902 -17.734 -24.487  0.00  0.00    -0.342 OA
ATOM      4  H   UNL     1      33.027 -17.856 -24.086  0.00  0.00    +0.218 HD
ENDBRANCH   1   3
BRANCH   1   5
ATOM      5  C   UNL     1      34.003 -17.195 -21.861  0.00  0.00    +0.152 C 
BRANCH   5   7
ATOM      6  O   UNL     1      33.765 -20.048 -21.303  0.00  0.00    -0.226 OA
ATOM      7  N   UNL     1      34.857 -18.021 -21.020  0.00  0.00    -0.264 N 
ATOM      8  C   UNL     1      34.664 -19.371 -20.815  0.00  0.00    +0.402 C 
ATOM      9  H   UNL     1      35.619 -17.589 -20.570  0.00  0.00    +0.153 HD
BRANCH   8  10
ATOM     10  O   UNL     1      35.631 -19.852 -19.980  0.00  0.00    -0.430 OA
BRANCH  10  11
ATOM     11  C   UNL     1      35.881 -21.259 -20.060  0.00  0.00    +0.237 C 
BRANCH  11  12
ATOM     12  C   UNL     1      35.485 -21.902 -18.763  0.00  0.00    +0.021 C 
ATOM     13  C   UNL     1      34.218 -22.458 -18.628  0.00  0.00    -0.001 C 
ATOM     14  C   UNL     1      36.389 -21.935 -17.706  0.00  0.00    -0.001 C 
ATOM     15  C   UNL     1      33.850 -23.055 -17.423  0.00  0.00    -0.000 C 
ATOM     16  C   UNL     1      36.021 -22.533 -16.501  0.00  0.00    -0.000 C 
ATOM     17  C   UNL     1      34.752 -23.092 -16.359  0.00  0.00    -0.000 C 
ENDBRANCH  11  12
ENDBRANCH  10  11
ENDBRANCH   8  10
ENDBRANCH   5   7
BRANCH   5  18
ATOM     18  C   UNL     1      33.603 -15.867 -21.184  0.00  0.00    +0.028 C 
ATOM     19  C   UNL     1      32.257 -15.929 -20.459  0.00  0.00    +0.002 C 
ATOM     20  C   UNL     1      34.689 -15.380 -20.221  0.00  0.00    +0.002 C 
ENDBRANCH   5  18
ENDBRANCH   1   5
BRANCH   1  21
ATOM     21  C   UNL     1      34.854 -15.332 -23.872  0.00  0.00    +0.104 C 
BRANCH  21  22
ATOM     22  C   UNL     1      33.449 -14.850 -24.258  0.00  0.00    +0.131 C 
BRANCH  22  23
ATOM     23  C   UNL     1      33.158 -13.436 -23.779  0.00  0.00    -0.012 C 
ATOM     24  C   UNL     1      33.898 -12.390 -24.292  0.00  0.00    -0.010 C 
ATOM     25  C   UNL     1      32.162 -13.240 -22.844  0.00  0.00    -0.004 C 
ATOM     26  C   UNL     1      33.632 -11.094 -23.852  0.00  0.00    -0.045 C 
ATOM     27  C   UNL     1      31.894 -11.943 -22.403  0.00  0.00    -0.001 C 
ATOM     28  C   UNL     1      32.630 -10.870 -22.908  0.00  0.00    -0.006 C 
BRANCH  26  29
ATOM     29  C   UNL     1      34.418  -9.946 -24.390  0.00  0.00    -0.059 C 
BRANCH  29  30
ATOM     30  N   UNL     1      35.572 -10.381 -25.179  0.00  0.00    +0.383 N 
ATOM     31  H   UNL     1      35.412 -11.327 -25.524  0.00  0.00    -0.089 HD
ATOM     32  H   UNL     1      36.408 -10.369 -24.593  0.00  0.00    -0.089 HD
ATOM     33  H   UNL     1      35.702  -9.748 -25.968  0.00  0.00    -0.089 HD
ENDBRANCH  29  30
ENDBRANCH  26  29
ENDBRANCH  22  23
BRANCH  22  35
ATOM     34  O   UNL     1      33.943 -15.643 -26.516  0.00  0.00    -0.250 OA
ATOM     35  C   UNL     1      33.240 -14.987 -25.759  0.00  0.00    +0.318 C 
BRANCH  35  36
ATOM     36  O   UNL     1      32.157 -14.287 -26.191  0.00  0.00    -0.480 OA
ATOM     37  H   UNL     1      31.814 -13.586 -25.671  0.00  0.00    +0.295 HD
ENDBRANCH  35  36
ENDBRANCH  22  35
ENDBRANCH  21  22
ENDBRANCH   1  21
TORSDOF 14
ENDMDL
MODEL 4
REMARK VINA RESULT:      -9.7      2.636      9.911
REMARK  Name = 23653503
REMARK  14 active torsions:
REMARK  status: ('A' for Active; 'I' for Inactive)
REMARK    1  A    between atoms: P_1  and  O_3
REMARK    2  A    between atoms: P_1  and  C_5
REMARK    3  A    between atoms: P_1  and  C_21
REMARK    4  A    between atoms: C_5  and  N_7
REMARK    5  A    between atoms: C_5  and  C_18
REMARK    6  A    between atoms: C_8  and  O_10
REMARK    7  A    between atoms: O_10  and  C_11
REMARK    8  A    between atoms: C_11  and  C_12
REMARK    9  A    between atoms: C_21  and  C_22
REMARK   10  A    between atoms: C_22  and  C_23
REMARK   11  A    between atoms: C_22  and  C_35
REMARK   12  A    between atoms: C_26  and  C_29
REMARK   13  A    between atoms: C_29  and  N_30
REMARK   14  A    between atoms: C_35  and  O_36
REMARK                            x       y       z     vdW  Elec       q    Type
REMARK                         _______ _______ _______ _____ _____    ______ ____
ROOT
ATOM      1  P   UNL     1      33.657 -14.499 -22.033  0.00  0.00    +0.238 P 
ATOM      2  O   UNL     1      35.084 -14.155 -21.725  0.00  0.00    -0.288 OA
ENDROOT
BRANCH   1   3
ATOM      3  O   UNL     1      32.651 -14.305 -20.779  0.00  0.00    -0.342 OA
ATOM      4  H   UNL     1      32.599 -13.365 -20.549  0.00  0.00    +0.218 HD
ENDBRANCH   1   3
BRANCH   1   5
ATOM      5  C   UNL     1      32.895 -13.528 -23.335  0.00  0.00    +0.152 C 
BRANCH   5   7
ATOM      6  O   UNL     1      30.822 -12.055 -21.906  0.00  0.00    -0.226 OA
ATOM      7  N   UNL     1      32.942 -12.159 -22.843  0.00  0.00    -0.264 N 
ATOM      8  C   UNL     1      31.905 -11.544 -22.174  0.00  0.00    +0.402 C 
ATOM      9  H   UNL     1      33.764 -11.640 -22.998  0.00  0.00    +0.153 HD
BRANCH   8  10
ATOM     10  O   UNL     1      32.262 -10.267 -21.847  0.00  0.00    -0.430 OA
BRANCH  10  11
ATOM     11  C   UNL     1      31.552  -9.227 -22.529  0.00  0.00    +0.237 C 
BRANCH  11  12
ATOM     12  C   UNL     1      32.537  -8.344 -23.237  0.00  0.00    +0.021 C 
ATOM     13  C   UNL     1      32.101  -7.167 -23.835  0.00  0.00    -0.001 C 
ATOM     14  C   UNL     1      33.878  -8.710 -23.287  0.00  0.00    -0.001 C 
ATOM     15  C   UNL     1      33.017  -6.346 -24.492  0.00  0.00    -0.000 C 
ATOM     16  C   UNL     1      34.794  -7.888 -23.944  0.00  0.00    -0.000 C 
ATOM     17  C   UNL     1      34.364  -6.707 -24.546  0.00  0.00    -0.000 C 
ENDBRANCH  11  12
ENDBRANCH  10  11
ENDBRANCH   8  10
ENDBRANCH   5   7
BRANCH   5  18
ATOM     18  C   UNL     1      33.511 -13.678 -24.742  0.00  0.00    +0.028 C 
ATOM     19  C   UNL     1      32.664 -14.523 -25.695  0.00  0.00    +0.002 C 
ATOM     20  C   UNL     1      33.801 -12.315 -25.375  0.00  0.00    +0.002 C 
ENDBRANCH   5  18
ENDBRANCH   1   5
BRANCH   1  21
ATOM     21  C   UNL     1      33.415 -16.213 -22.462  0.00  0.00    +0.104 C 
BRANCH  21  22
ATOM     22  C   UNL     1      34.729 -16.950 -22.755  0.00  0.00    +0.131 C 
BRANCH  22  23
ATOM     23  C   UNL     1      34.935 -18.166 -21.866  0.00  0.00    -0.012 C 
ATOM     24  C   UNL     1      33.828 -18.836 -21.383  0.00  0.00    -0.010 C 
ATOM     25  C   UNL     1      36.222 -18.565 -21.567  0.00  0.00    -0.004 C 
ATOM     26  C   UNL     1      34.017 -19.951 -20.567  0.00  0.00    -0.045 C 
ATOM     27  C   UNL     1      36.411 -19.681 -20.751  0.00  0.00    -0.001 C 
ATOM     28  C   UNL     1      35.308 -20.374 -20.251  0.00  0.00    -0.006 C 
BRANCH  26  29
ATOM     29  C   UNL     1      32.839 -20.692 -20.031  0.00  0.00    -0.059 C 
BRANCH  29  30
ATOM     30  N   UNL     1      33.184 -22.044 -19.588  0.00  0.00    +0.383 N 
ATOM     31  H   UNL     1      34.159 -22.239 -19.817  0.00  0.00    -0.089 HD
ATOM     32  H   UNL     1      32.582 -22.720 -20.060  0.00  0.00    -0.089 HD
ATOM     33  H   UNL     1      33.049 -22.116 -18.580  0.00  0.00    -0.089 HD
ENDBRANCH  29  30
ENDBRANCH  26  29
ENDBRANCH  22  23
BRANCH  22  35
ATOM     34  O   UNL     1      34.331 -18.319 -24.741  0.00  0.00    -0.250 OA
ATOM     35  C   UNL     1      34.810 -17.314 -24.231  0.00  0.00    +0.318 C 
BRANCH  35  36
ATOM     36  O   UNL     1      35.488 -16.381 -24.952  0.00  0.00    -0.480 OA
ATOM     37  H   UNL     1      35.433 -15.475 -24.715  0.00  0.00    +0.295 HD
ENDBRANCH  35  36
ENDBRANCH  22  35
ENDBRANCH  21  22
ENDBRANCH   1  21
TORSDOF 14
ENDMDL
MODEL 5
REMARK VINA RESULT:      -9.6      7.122     11.980
REMARK  Name = 23653503
REMARK  14 active torsions:
REMARK  status: ('A' for Active; 'I' for Inactive)
REMARK    1  A    between atoms: P_1  and  O_3
REMARK    2  A    between atoms: P_1  and  C_5
REMARK    3  A    between atoms: P_1  and  C_21
REMARK    4  A    between atoms: C_5  and  N_7
REMARK    5  A    between atoms: C_5  and  C_18
REMARK    6  A    between atoms: C_8  and  O_10
REMARK    7  A    between atoms: O_10  and  C_11
REMARK    8  A    between atoms: C_11  and  C_12
REMARK    9  A    between atoms: C_21  and  C_22
REMARK   10  A    between atoms: C_22  and  C_23
REMARK   11  A    between atoms: C_22  and  C_35
REMARK   12  A    between atoms: C_26  and  C_29
REMARK   13  A    between atoms: C_29  and  N_30
REMARK   14  A    between atoms: C_35  and  O_36
REMARK                            x       y       z     vdW  Elec       q    Type
REMARK                         _______ _______ _______ _____ _____    ______ ____
ROOT
ATOM      1  P   UNL     1      32.116 -23.972 -13.813  0.00  0.00    +0.238 P 
ATOM      2  O   UNL     1      31.207 -23.671 -12.658  0.00  0.00    -0.288 OA
ENDROOT
BRANCH   1   3
ATOM      3  O   UNL     1      32.524 -25.534 -13.936  0.00  0.00    -0.342 OA
ATOM      4  H   UNL     1      33.111 -25.654 -14.699  0.00  0.00    +0.218 HD
ENDBRANCH   1   3
BRANCH   1   5
ATOM      5  C   UNL     1      31.453 -23.583 -15.434  0.00  0.00    +0.152 C 
BRANCH   5   7
ATOM      6  O   UNL     1      31.885 -22.079 -17.896  0.00  0.00    -0.226 OA
ATOM      7  N   UNL     1      32.610 -23.618 -16.318  0.00  0.00    -0.264 N 
ATOM      8  C   UNL     1      32.724 -22.865 -17.468  0.00  0.00    +0.402 C 
ATOM      9  H   UNL     1      33.356 -24.215 -16.080  0.00  0.00    +0.153 HD
BRANCH   8  10
ATOM     10  O   UNL     1      33.922 -23.124 -18.069  0.00  0.00    -0.430 OA
BRANCH  10  11
ATOM     11  C   UNL     1      33.946 -22.993 -19.495  0.00  0.00    +0.237 C 
BRANCH  11  12
ATOM     12  C   UNL     1      34.681 -21.737 -19.859  0.00  0.00    +0.021 C 
ATOM     13  C   UNL     1      36.039 -21.628 -19.580  0.00  0.00    -0.001 C 
ATOM     14  C   UNL     1      33.998 -20.692 -20.474  0.00  0.00    -0.001 C 
ATOM     15  C   UNL     1      36.723 -20.461 -19.919  0.00  0.00    -0.000 C 
ATOM     16  C   UNL     1      34.682 -19.525 -20.813  0.00  0.00    -0.000 C 
ATOM     17  C   UNL     1      36.044 -19.409 -20.536  0.00  0.00    -0.000 C 
ENDBRANCH  11  12
ENDBRANCH  10  11
ENDBRANCH   8  10
ENDBRANCH   5   7
BRANCH   5  18
ATOM     18  C   UNL     1      30.298 -24.478 -15.928  0.00  0.00    +0.028 C 
ATOM     19  C   UNL     1      29.828 -25.500 -14.891  0.00  0.00    +0.002 C 
ATOM     20  C   UNL     1      29.108 -23.642 -16.409  0.00  0.00    +0.002 C 
ENDBRANCH   5  18
ENDBRANCH   1   5
BRANCH   1  21
ATOM     21  C   UNL     1      33.701 -23.165 -13.699  0.00  0.00    +0.104 C 
BRANCH  21  22
ATOM     22  C   UNL     1      34.861 -24.145 -13.476  0.00  0.00    +0.131 C 
BRANCH  22  23
ATOM     23  C   UNL     1      36.065 -23.845 -14.356  0.00  0.00    -0.012 C 
ATOM     24  C   UNL     1      37.198 -24.623 -14.226  0.00  0.00    -0.010 C 
ATOM     25  C   UNL     1      35.990 -22.803 -15.258  0.00  0.00    -0.004 C 
ATOM     26  C   UNL     1      38.302 -24.348 -15.032  0.00  0.00    -0.045 C 
ATOM     27  C   UNL     1      37.095 -22.528 -16.065  0.00  0.00    -0.001 C 
ATOM     28  C   UNL     1      38.250 -23.301 -15.952  0.00  0.00    -0.006 C 
BRANCH  26  29
ATOM     29  C   UNL     1      39.539 -25.173 -14.911  0.00  0.00    -0.059 C 
BRANCH  29  30
ATOM     30  N   UNL     1      39.434 -26.186 -13.859  0.00  0.00    +0.383 N 
ATOM     31  H   UNL     1      39.275 -27.100 -14.281  0.00  0.00    -0.089 HD
ATOM     32  H   UNL     1      38.654 -25.955 -13.242  0.00  0.00    -0.089 HD
ATOM     33  H   UNL     1      40.299 -26.205 -13.319  0.00  0.00    -0.089 HD
ENDBRANCH  29  30
ENDBRANCH  26  29
ENDBRANCH  22  23
BRANCH  22  35
ATOM     34  O   UNL     1      34.953 -25.085 -11.222  0.00  0.00    -0.250 OA
ATOM     35  C   UNL     1      35.239 -24.186 -12.003  0.00  0.00    +0.318 C 
BRANCH  35  36
ATOM     36  O   UNL     1      35.952 -23.091 -11.626  0.00  0.00    -0.480 OA
ATOM     37  H   UNL     1      35.508 -22.335 -11.292  0.00  0.00    +0.295 HD
ENDBRANCH  35  36
ENDBRANCH  22  35
ENDBRANCH  21  22
ENDBRANCH   1  21
TORSDOF 14
ENDMDL
MODEL 6
REMARK VINA RESULT:      -9.6      2.571      3.964
REMARK  Name = 23653503
REMARK  14 active torsions:
REMARK  status: ('A' for Active; 'I' for Inactive)
REMARK    1  A    between atoms: P_1  and  O_3
REMARK    2  A    between atoms: P_1  and  C_5
REMARK    3  A    between atoms: P_1  and  C_21
REMARK    4  A    between atoms: C_5  and  N_7
REMARK    5  A    between atoms: C_5  and  C_18
REMARK    6  A    between atoms: C_8  and  O_10
REMARK    7  A    between atoms: O_10  and  C_11
REMARK    8  A    between atoms: C_11  and  C_12
REMARK    9  A    between atoms: C_21  and  C_22
REMARK   10  A    between atoms: C_22  and  C_23
REMARK   11  A    between atoms: C_22  and  C_35
REMARK   12  A    between atoms: C_26  and  C_29
REMARK   13  A    between atoms: C_29  and  N_30
REMARK   14  A    between atoms: C_35  and  O_36
REMARK                            x       y       z     vdW  Elec       q    Type
REMARK                         _______ _______ _______ _____ _____    ______ ____
ROOT
ATOM      1  P   UNL     1      32.933 -13.922 -22.496  0.00  0.00    +0.238 P 
ATOM      2  O   UNL     1      32.003 -14.888 -21.823  0.00  0.00    -0.288 OA
ENDROOT
BRANCH   1   3
ATOM      3  O   UNL     1      34.214 -13.509 -21.597  0.00  0.00    -0.342 OA
ATOM      4  H   UNL     1      34.952 -13.267 -22.179  0.00  0.00    +0.218 HD
ENDBRANCH   1   3
BRANCH   1   5
ATOM      5  C   UNL     1      33.665 -14.500 -24.029  0.00  0.00    +0.152 C 
BRANCH   5   7
ATOM      6  O   UNL     1      35.637 -16.003 -22.490  0.00  0.00    -0.226 OA
ATOM      7  N   UNL     1      33.766 -15.943 -23.862  0.00  0.00    -0.264 N 
ATOM      8  C   UNL     1      34.740 -16.566 -23.110  0.00  0.00    +0.402 C 
ATOM      9  H   UNL     1      33.098 -16.509 -24.314  0.00  0.00    +0.153 HD
BRANCH   8  10
ATOM     10  O   UNL     1      34.559 -17.919 -23.154  0.00  0.00    -0.430 OA
BRANCH  10  11
ATOM     11  C   UNL     1      35.548 -18.703 -22.478  0.00  0.00    +0.237 C 
BRANCH  11  12
ATOM     12  C   UNL     1      34.873 -19.567 -21.454  0.00  0.00    +0.021 C 
ATOM     13  C   UNL     1      35.635 -20.407 -20.650  0.00  0.00    -0.001 C 
ATOM     14  C   UNL     1      33.489 -19.520 -21.317  0.00  0.00    -0.001 C 
ATOM     15  C   UNL     1      35.008 -21.210 -19.699  0.00  0.00    -0.000 C 
ATOM     16  C   UNL     1      32.861 -20.322 -20.365  0.00  0.00    -0.000 C 
ATOM     17  C   UNL     1      33.620 -21.168 -19.557  0.00  0.00    -0.000 C 
ENDBRANCH  11  12
ENDBRANCH  10  11
ENDBRANCH   8  10
ENDBRANCH   5   7
BRANCH   5  18
ATOM     18  C   UNL     1      32.931 -14.100 -25.325  0.00  0.00    +0.028 C 
ATOM     19  C   UNL     1      33.494 -12.840 -25.985  0.00  0.00    +0.002 C 
ATOM     20  C   UNL     1      32.911 -15.250 -26.336  0.00  0.00    +0.002 C 
ENDBRANCH   5  18
ENDBRANCH   1   5
BRANCH   1  21
ATOM     21  C   UNL     1      32.183 -12.344 -22.850  0.00  0.00    +0.104 C 
BRANCH  21  22
ATOM     22  C   UNL     1      32.353 -11.328 -21.712  0.00  0.00    +0.131 C 
BRANCH  22  23
ATOM     23  C   UNL     1      32.358  -9.888 -22.202  0.00  0.00    -0.012 C 
ATOM     24  C   UNL     1      32.206  -8.869 -21.283  0.00  0.00    -0.010 C 
ATOM     25  C   UNL     1      32.515  -9.642 -23.551  0.00  0.00    -0.004 C 
ATOM     26  C   UNL     1      32.210  -7.549 -21.731  0.00  0.00    -0.045 C 
ATOM     27  C   UNL     1      32.519  -8.321 -24.000  0.00  0.00    -0.001 C 
ATOM     28  C   UNL     1      32.367  -7.275 -23.090  0.00  0.00    -0.006 C 
BRANCH  26  29
ATOM     29  C   UNL     1      32.046  -6.430 -20.759  0.00  0.00    -0.059 C 
BRANCH  29  30
ATOM     30  N   UNL     1      31.273  -5.317 -21.314  0.00  0.00    +0.383 N 
ATOM     31  H   UNL     1      31.587  -5.125 -22.265  0.00  0.00    -0.089 HD
ATOM     32  H   UNL     1      31.409  -4.487 -20.736  0.00  0.00    -0.089 HD
ATOM     33  H   UNL     1      30.283  -5.564 -21.325  0.00  0.00    -0.089 HD
ENDBRANCH  29  30
ENDBRANCH  26  29
ENDBRANCH  22  23
BRANCH  22  35
ATOM     34  O   UNL     1      31.513 -11.693 -19.446  0.00  0.00    -0.250 OA
ATOM     35  C   UNL     1      31.294 -11.553 -20.643  0.00  0.00    +0.318 C 
BRANCH  35  36
ATOM     36  O   UNL     1      30.038 -11.584 -21.164  0.00  0.00    -0.480 OA
ATOM     37  H   UNL     1      29.623 -12.407 -21.335  0.00  0.00    +0.295 HD
ENDBRANCH  35  36
ENDBRANCH  22  35
ENDBRANCH  21  22
ENDBRANCH   1  21
TORSDOF 14
ENDMDL
MODEL 7
REMARK VINA RESULT:      -9.3      3.022     10.681
REMARK  Name = 23653503
REMARK  14 active torsions:
REMARK  status: ('A' for Active; 'I' for Inactive)
REMARK    1  A    between atoms: P_1  and  O_3
REMARK    2  A    between atoms: P_1  and  C_5
REMARK    3  A    between atoms: P_1  and  C_21
REMARK    4  A    between atoms: C_5  and  N_7
REMARK    5  A    between atoms: C_5  and  C_18
REMARK    6  A    between atoms: C_8  and  O_10
REMARK    7  A    between atoms: O_10  and  C_11
REMARK    8  A    between atoms: C_11  and  C_12
REMARK    9  A    between atoms: C_21  and  C_22
REMARK   10  A    between atoms: C_22  and  C_23
REMARK   11  A    between atoms: C_22  and  C_35
REMARK   12  A    between atoms: C_26  and  C_29
REMARK   13  A    between atoms: C_29  and  N_30
REMARK   14  A    between atoms: C_35  and  O_36
REMARK                            x       y       z     vdW  Elec       q    Type
REMARK                         _______ _______ _______ _____ _____    ______ ____
ROOT
ATOM      1  P   UNL     1      32.560 -12.649 -22.936  0.00  0.00    +0.238 P 
ATOM      2  O   UNL     1      32.137 -12.176 -21.577  0.00  0.00    -0.288 OA
ENDROOT
BRANCH   1   3
ATOM      3  O   UNL     1      31.404 -13.445 -23.743  0.00  0.00    -0.342 OA
ATOM      4  H   UNL     1      31.811 -14.001 -24.425  0.00  0.00    +0.218 HD
ENDBRANCH   1   3
BRANCH   1   5
ATOM      5  C   UNL     1      33.056 -11.359 -24.080  0.00  0.00    +0.152 C 
BRANCH   5   7
ATOM      6  O   UNL     1      31.222  -9.235 -23.285  0.00  0.00    -0.226 OA
ATOM      7  N   UNL     1      33.328 -10.207 -23.233  0.00  0.00    -0.264 N 
ATOM      8  C   UNL     1      32.390  -9.249 -22.910  0.00  0.00    +0.402 C 
ATOM      9  H   UNL     1      34.237 -10.105 -22.868  0.00  0.00    +0.153 HD
BRANCH   8  10
ATOM     10  O   UNL     1      32.957  -8.304 -22.103  0.00  0.00    -0.430 OA
BRANCH  10  11
ATOM     11  C   UNL     1      34.112  -7.644 -22.631  0.00  0.00    +0.237 C 
BRANCH  11  12
ATOM     12  C   UNL     1      33.695  -6.758 -23.768  0.00  0.00    +0.021 C 
ATOM     13  C   UNL     1      34.493  -6.671 -24.902  0.00  0.00    -0.001 C 
ATOM     14  C   UNL     1      32.511  -6.033 -23.677  0.00  0.00    -0.001 C 
ATOM     15  C   UNL     1      34.105  -5.847 -25.959  0.00  0.00    -0.000 C 
ATOM     16  C   UNL     1      32.122  -5.210 -24.734  0.00  0.00    -0.000 C 
ATOM     17  C   UNL     1      32.919  -5.117 -25.874  0.00  0.00    -0.000 C 
ENDBRANCH  11  12
ENDBRANCH  10  11
ENDBRANCH   8  10
ENDBRANCH   5   7
BRANCH   5  18
ATOM     18  C   UNL     1      34.232 -11.700 -25.018  0.00  0.00    +0.028 C 
ATOM     19  C   UNL     1      33.798 -12.333 -26.342  0.00  0.00    +0.002 C 
ATOM     20  C   UNL     1      35.105 -10.472 -25.293  0.00  0.00    +0.002 C 
ENDBRANCH   5  18
ENDBRANCH   1   5
BRANCH   1  21
ATOM     21  C   UNL     1      33.890 -13.836 -22.893  0.00  0.00    +0.104 C 
BRANCH  21  22
ATOM     22  C   UNL     1      33.538 -15.105 -22.106  0.00  0.00    +0.131 C 
BRANCH  22  23
ATOM     23  C   UNL     1      34.184 -16.356 -22.681  0.00  0.00    -0.012 C 
ATOM     24  C   UNL     1      34.454 -17.417 -21.840  0.00  0.00    -0.010 C 
ATOM     25  C   UNL     1      34.484 -16.394 -24.028  0.00  0.00    -0.004 C 
ATOM     26  C   UNL     1      35.047 -18.563 -22.367  0.00  0.00    -0.045 C 
ATOM     27  C   UNL     1      35.078 -17.541 -24.556  0.00  0.00    -0.001 C 
ATOM     28  C   UNL     1      35.359 -18.625 -23.725  0.00  0.00    -0.006 C 
BRANCH  26  29
ATOM     29  C   UNL     1      35.350 -19.723 -21.480  0.00  0.00    -0.059 C 
BRANCH  29  30
ATOM     30  N   UNL     1      36.377 -19.412 -20.484  0.00  0.00    +0.383 N 
ATOM     31  H   UNL     1      35.939 -19.283 -19.572  0.00  0.00    -0.089 HD
ATOM     32  H   UNL     1      36.862 -18.556 -20.753  0.00  0.00    -0.089 HD
ATOM     33  H   UNL     1      37.046 -20.180 -20.435  0.00  0.00    -0.089 HD
ENDBRANCH  29  30
ENDBRANCH  26  29
ENDBRANCH  22  23
BRANCH  22  35
ATOM     34  O   UNL     1      35.012 -14.834 -20.175  0.00  0.00    -0.250 OA
ATOM     35  C   UNL     1      33.880 -14.924 -20.634  0.00  0.00    +0.318 C 
BRANCH  35  36
ATOM     36  O   UNL     1      32.769 -14.868 -19.853  0.00  0.00    -0.480 OA
ATOM     37  H   UNL     1      32.702 -15.415 -19.094  0.00  0.00    +0.295 HD
ENDBRANCH  35  36
ENDBRANCH  22  35
ENDBRANCH  21  22
ENDBRANCH   1  21
TORSDOF 14
ENDMDL
MODEL 8
REMARK VINA RESULT:      -9.3      6.983     12.147
REMARK  Name = 23653503
REMARK  14 active torsions:
REMARK  status: ('A' for Active; 'I' for Inactive)
REMARK    1  A    between atoms: P_1  and  O_3
REMARK    2  A    between atoms: P_1  and  C_5
REMARK    3  A    between atoms: P_1  and  C_21
REMARK    4  A    between atoms: C_5  and  N_7
REMARK    5  A    between atoms: C_5  and  C_18
REMARK    6  A    between atoms: C_8  and  O_10
REMARK    7  A    between atoms: O_10  and  C_11
REMARK    8  A    between atoms: C_11  and  C_12
REMARK    9  A    between atoms: C_21  and  C_22
REMARK   10  A    between atoms: C_22  and  C_23
REMARK   11  A    between atoms: C_22  and  C_35
REMARK   12  A    between atoms: C_26  and  C_29
REMARK   13  A    between atoms: C_29  and  N_30
REMARK   14  A    between atoms: C_35  and  O_36
REMARK                            x       y       z     vdW  Elec       q    Type
REMARK                         _______ _______ _______ _____ _____    ______ ____
ROOT
ATOM      1  P   UNL     1      33.145 -24.510 -13.902  0.00  0.00    +0.238 P 
ATOM      2  O   UNL     1      32.182 -25.219 -12.996  0.00  0.00    -0.288 OA
ENDROOT
BRANCH   1   3
ATOM      3  O   UNL     1      33.967 -25.498 -14.887  0.00  0.00    -0.342 OA
ATOM      4  H   UNL     1      34.914 -25.299 -14.826  0.00  0.00    +0.218 HD
ENDBRANCH   1   3
BRANCH   1   5
ATOM      5  C   UNL     1      32.410 -23.318 -15.023  0.00  0.00    +0.152 C 
BRANCH   5   7
ATOM      6  O   UNL     1      31.677 -22.453 -17.711  0.00  0.00    -0.226 OA
ATOM      7  N   UNL     1      33.181 -23.449 -16.251  0.00  0.00    -0.264 N 
ATOM      8  C   UNL     1      32.749 -23.006 -17.484  0.00  0.00    +0.402 C 
ATOM      9  H   UNL     1      34.065 -23.879 -16.199  0.00  0.00    +0.153 HD
BRANCH   8  10
ATOM     10  O   UNL     1      33.698 -23.275 -18.427  0.00  0.00    -0.430 OA
BRANCH  10  11
ATOM     11  C   UNL     1      34.841 -22.413 -18.427  0.00  0.00    +0.237 C 
BRANCH  11  12
ATOM     12  C   UNL     1      34.665 -21.364 -19.485  0.00  0.00    +0.021 C 
ATOM     13  C   UNL     1      33.384 -20.997 -19.884  0.00  0.00    -0.001 C 
ATOM     14  C   UNL     1      35.784 -20.769 -20.058  0.00  0.00    -0.001 C 
ATOM     15  C   UNL     1      33.221 -20.022 -20.868  0.00  0.00    -0.000 C 
ATOM     16  C   UNL     1      35.620 -19.793 -21.041  0.00  0.00    -0.000 C 
ATOM     17  C   UNL     1      34.339 -19.420 -21.446  0.00  0.00    -0.000 C 
ENDBRANCH  11  12
ENDBRANCH  10  11
ENDBRANCH   8  10
ENDBRANCH   5   7
BRANCH   5  18
ATOM     18  C   UNL     1      30.891 -23.452 -15.256  0.00  0.00    +0.028 C 
ATOM     19  C   UNL     1      30.398 -24.900 -15.272  0.00  0.00    +0.002 C 
ATOM     20  C   UNL     1      30.093 -22.644 -14.228  0.00  0.00    +0.002 C 
ENDBRANCH   5  18
ENDBRANCH   1   5
BRANCH   1  21
ATOM     21  C   UNL     1      34.447 -23.661 -13.030  0.00  0.00    +0.104 C 
BRANCH  21  22
ATOM     22  C   UNL     1      35.547 -24.603 -12.524  0.00  0.00    +0.131 C 
BRANCH  22  23
ATOM     23  C   UNL     1      36.770 -24.622 -13.427  0.00  0.00    -0.012 C 
ATOM     24  C   UNL     1      36.865 -23.693 -14.444  0.00  0.00    -0.010 C 
ATOM     25  C   UNL     1      37.751 -25.567 -13.205  0.00  0.00    -0.004 C 
ATOM     26  C   UNL     1      37.986 -23.710 -15.274  0.00  0.00    -0.045 C 
ATOM     27  C   UNL     1      38.874 -25.585 -14.034  0.00  0.00    -0.001 C 
ATOM     28  C   UNL     1      38.990 -24.656 -15.068  0.00  0.00    -0.006 C 
BRANCH  26  29
ATOM     29  C   UNL     1      38.112 -22.718 -16.380  0.00  0.00    -0.059 C 
BRANCH  29  30
ATOM     30  N   UNL     1      37.362 -21.489 -16.116  0.00  0.00    +0.383 N 
ATOM     31  H   UNL     1      38.007 -20.700 -16.066  0.00  0.00    -0.089 HD
ATOM     32  H   UNL     1      36.864 -21.578 -15.229  0.00  0.00    -0.089 HD
ATOM     33  H   UNL     1      36.690 -21.333 -16.867  0.00  0.00    -0.089 HD
ENDBRANCH  29  30
ENDBRANCH  26  29
ENDBRANCH  22  23
BRANCH  22  35
ATOM     34  O   UNL     1      36.749 -23.430 -10.749  0.00  0.00    -0.250 OA
ATOM     35  C   UNL     1      35.916 -24.260 -11.088  0.00  0.00    +0.318 C 
BRANCH  35  36
ATOM     36  O   UNL     1      35.203 -24.989 -10.188  0.00  0.00    -0.480 OA
ATOM     37  H   UNL     1      35.649 -25.530  -9.566  0.00  0.00    +0.295 HD
ENDBRANCH  35  36
ENDBRANCH  22  35
ENDBRANCH  21  22
ENDBRANCH   1  21
TORSDOF 14
ENDMDL
MODEL 9
REMARK VINA RESULT:      -9.2      6.748     11.134
REMARK  Name = 23653503
REMARK  14 active torsions:
REMARK  status: ('A' for Active; 'I' for Inactive)
REMARK    1  A    between atoms: P_1  and  O_3
REMARK    2  A    between atoms: P_1  and  C_5
REMARK    3  A    between atoms: P_1  and  C_21
REMARK    4  A    between atoms: C_5  and  N_7
REMARK    5  A    between atoms: C_5  and  C_18
REMARK    6  A    between atoms: C_8  and  O_10
REMARK    7  A    between atoms: O_10  and  C_11
REMARK    8  A    between atoms: C_11  and  C_12
REMARK    9  A    between atoms: C_21  and  C_22
REMARK   10  A    between atoms: C_22  and  C_23
REMARK   11  A    between atoms: C_22  and  C_35
REMARK   12  A    between atoms: C_26  and  C_29
REMARK   13  A    between atoms: C_29  and  N_30
REMARK   14  A    between atoms: C_35  and  O_36
REMARK                            x       y       z     vdW  Elec       q    Type
REMARK                         _______ _______ _______ _____ _____    ______ ____
ROOT
ATOM      1  P   UNL     1      34.257 -24.061 -13.984  0.00  0.00    +0.238 P 
ATOM      2  O   UNL     1      34.576 -24.449 -12.571  0.00  0.00    -0.288 OA
ENDROOT
BRANCH   1   3
ATOM      3  O   UNL     1      34.193 -22.462 -14.227  0.00  0.00    -0.342 OA
ATOM      4  H   UNL     1      34.359 -22.001 -13.390  0.00  0.00    +0.218 HD
ENDBRANCH   1   3
BRANCH   1   5
ATOM      5  C   UNL     1      35.429 -24.626 -15.220  0.00  0.00    +0.152 C 
BRANCH   5   7
ATOM      6  O   UNL     1      33.989 -23.742 -17.598  0.00  0.00    -0.226 OA
ATOM      7  N   UNL     1      35.686 -23.452 -16.042  0.00  0.00    -0.264 N 
ATOM      8  C   UNL     1      34.945 -23.114 -17.155  0.00  0.00    +0.402 C 
ATOM      9  H   UNL     1      36.433 -22.864 -15.787  0.00  0.00    +0.153 HD
BRANCH   8  10
ATOM     10  O   UNL     1      35.437 -21.963 -17.702  0.00  0.00    -0.430 OA
BRANCH  10  11
ATOM     11  C   UNL     1      35.774 -22.027 -19.091  0.00  0.00    +0.237 C 
BRANCH  11  12
ATOM     12  C   UNL     1      34.986 -20.990 -19.835  0.00  0.00    +0.021 C 
ATOM     13  C   UNL     1      33.596 -21.027 -19.804  0.00  0.00    -0.001 C 
ATOM     14  C   UNL     1      35.652 -19.999 -20.551  0.00  0.00    -0.001 C 
ATOM     15  C   UNL     1      32.863 -20.063 -20.495  0.00  0.00    -0.000 C 
ATOM     16  C   UNL     1      34.919 -19.035 -21.242  0.00  0.00    -0.000 C 
ATOM     17  C   UNL     1      33.525 -19.067 -21.214  0.00  0.00    -0.000 C 
ENDBRANCH  11  12
ENDBRANCH  10  11
ENDBRANCH   8  10
ENDBRANCH   5   7
BRANCH   5  18
ATOM     18  C   UNL     1      36.722 -25.272 -14.683  0.00  0.00    +0.028 C 
ATOM     19  C   UNL     1      36.975 -26.681 -15.224  0.00  0.00    +0.002 C 
ATOM     20  C   UNL     1      37.944 -24.387 -14.949  0.00  0.00    +0.002 C 
ENDBRANCH   5  18
ENDBRANCH   1   5
BRANCH   1  21
ATOM     21  C   UNL     1      32.644 -24.600 -14.522  0.00  0.00    +0.104 C 
BRANCH  21  22
ATOM     22  C   UNL     1      31.559 -23.533 -14.330  0.00  0.00    +0.131 C 
BRANCH  22  23
ATOM     23  C   UNL     1      30.323 -23.788 -15.179  0.00  0.00    -0.012 C 
ATOM     24  C   UNL     1      29.430 -22.755 -15.387  0.00  0.00    -0.010 C 
ATOM     25  C   UNL     1      30.130 -25.044 -15.717  0.00  0.00    -0.004 C 
ATOM     26  C   UNL     1      28.297 -22.988 -16.165  0.00  0.00    -0.045 C 
ATOM     27  C   UNL     1      28.996 -25.278 -16.497  0.00  0.00    -0.001 C 
ATOM     28  C   UNL     1      28.080 -24.250 -16.720  0.00  0.00    -0.006 C 
BRANCH  26  29
ATOM     29  C   UNL     1      27.316 -21.891 -16.404  0.00  0.00    -0.059 C 
BRANCH  29  30
ATOM     30  N   UNL     1      26.191 -21.934 -15.469  0.00  0.00    +0.383 N 
ATOM     31  H   UNL     1      25.315 -21.854 -15.986  0.00  0.00    -0.089 HD
ATOM     32  H   UNL     1      26.268 -21.160 -14.809  0.00  0.00    -0.089 HD
ATOM     33  H   UNL     1      26.207 -22.817 -14.959  0.00  0.00    -0.089 HD
ENDBRANCH  29  30
ENDBRANCH  26  29
ENDBRANCH  22  23
BRANCH  22  35
ATOM     34  O   UNL     1      30.332 -24.028 -12.275  0.00  0.00    -0.250 OA
ATOM     35  C   UNL     1      31.207 -23.399 -12.855  0.00  0.00    +0.318 C 
BRANCH  35  36
ATOM     36  O   UNL     1      31.989 -22.483 -12.223  0.00  0.00    -0.480 OA
ATOM     37  H   UNL     1      32.297 -22.650 -11.354  0.00  0.00    +0.295 HD
ENDBRANCH  35  36
ENDBRANCH  22  35
ENDBRANCH  21  22
ENDBRANCH   1  21
TORSDOF 14
ENDMDL
