MODEL 1
REMARK VINA RESULT:      -8.2      0.000      0.000
REMARK  Name = 9835049
REMARK  3 active torsions:
REMARK  status: ('A' for Active; 'I' for Inactive)
REMARK    1  A    between atoms: N_3  and  O_15
REMARK    2  A    between atoms: C_7  and  C_12
REMARK    3  A    between atoms: O_15  and  S_16
REMARK                            x       y       z     vdW  Elec       q    Type
REMARK                         _______ _______ _______ _____ _____    ______ ____
ROOT
ATOM      1  O   UNL     1      36.642 -27.132 -15.393  0.00  0.00    -0.250 OA
ATOM      2  N   UNL     1      35.911 -24.832 -15.365  0.00  0.00    -0.254 N 
ATOM      3  N   UNL     1      37.994 -25.331 -14.668  0.00  0.00    -0.126 N 
ATOM      4  C   UNL     1      37.698 -23.961 -14.279  0.00  0.00    +0.127 C 
ATOM      5  C   UNL     1      36.727 -23.618 -15.393  0.00  0.00    +0.118 C 
ATOM      6  C   UNL     1      36.905 -23.882 -12.948  0.00  0.00    +0.026 C 
ATOM      7  C   UNL     1      34.898 -24.867 -14.318  0.00  0.00    +0.153 C 
ATOM      8  C   UNL     1      35.581 -24.706 -12.936  0.00  0.00    +0.031 C 
ATOM      9  C   UNL     1      36.863 -25.941 -15.235  0.00  0.00    +0.332 C 
ENDROOT
BRANCH   7  12
ATOM     10  O   UNL     1      33.574 -23.446 -15.710  0.00  0.00    -0.274 OA
ATOM     11  N   UNL     1      33.314 -23.286 -13.430  0.00  0.00    -0.327 N 
ATOM     12  C   UNL     1      33.869 -23.809 -14.574  0.00  0.00    +0.238 C 
ATOM     13  H   UNL     1      32.627 -22.583 -13.492  0.00  0.00    +0.145 HD
ATOM     14  H   UNL     1      33.606 -23.613 -12.548  0.00  0.00    +0.145 HD
ENDBRANCH   7  12
BRANCH   3  15
ATOM     15  O   UNL     1      38.945 -26.044 -13.952  0.00  0.00    -0.094 OA
BRANCH  15  16
ATOM     16  S   UNL     1      40.466 -25.807 -14.522  0.00  0.00    +0.258 S 
ATOM     17  O   UNL     1      41.316 -27.028 -13.855  0.00  0.00    -0.114 OA
ATOM     18  O   UNL     1      40.971 -24.566 -13.964  0.00  0.00    -0.020 OA
ATOM     19  O   UNL     1      40.448 -26.018 -15.957  0.00  0.00    -0.114 OA
ENDBRANCH  15  16
ENDBRANCH   3  15
TORSDOF 3
ENDMDL
MODEL 2
REMARK VINA RESULT:      -7.8      5.683      8.851
REMARK  Name = 9835049
REMARK  3 active torsions:
REMARK  status: ('A' for Active; 'I' for Inactive)
REMARK    1  A    between atoms: N_3  and  O_15
REMARK    2  A    between atoms: C_7  and  C_12
REMARK    3  A    between atoms: O_15  and  S_16
REMARK                            x       y       z     vdW  Elec       q    Type
REMARK                         _______ _______ _______ _____ _____    ______ ____
ROOT
ATOM      1  O   UNL     1      31.689 -22.339 -17.600  0.00  0.00    -0.250 OA
ATOM      2  N   UNL     1      31.825 -24.033 -15.886  0.00  0.00    -0.254 N 
ATOM      3  N   UNL     1      29.841 -23.052 -16.306  0.00  0.00    -0.126 N 
ATOM      4  C   UNL     1      29.729 -23.795 -15.060  0.00  0.00    +0.127 C 
ATOM      5  C   UNL     1      30.755 -24.875 -15.352  0.00  0.00    +0.118 C 
ATOM      6  C   UNL     1      30.255 -22.992 -13.842  0.00  0.00    +0.026 C 
ATOM      7  C   UNL     1      32.634 -23.357 -14.880  0.00  0.00    +0.153 C 
ATOM      8  C   UNL     1      31.719 -22.477 -13.991  0.00  0.00    +0.031 C 
ATOM      9  C   UNL     1      31.163 -23.077 -16.781  0.00  0.00    +0.332 C 
ENDROOT
BRANCH   7  12
ATOM     10  O   UNL     1      33.136 -24.619 -12.914  0.00  0.00    -0.274 OA
ATOM     11  N   UNL     1      34.430 -24.958 -14.786  0.00  0.00    -0.327 N 
ATOM     12  C   UNL     1      33.403 -24.368 -14.086  0.00  0.00    +0.238 C 
ATOM     13  H   UNL     1      34.995 -25.637 -14.351  0.00  0.00    +0.145 HD
ATOM     14  H   UNL     1      34.600 -24.701 -15.721  0.00  0.00    +0.145 HD
ENDBRANCH   7  12
BRANCH   3  15
ATOM     15  O   UNL     1      28.990 -21.979 -16.528  0.00  0.00    -0.094 OA
BRANCH  15  16
ATOM     16  S   UNL     1      27.457 -22.458 -16.871  0.00  0.00    +0.258 S 
ATOM     17  O   UNL     1      26.849 -21.206 -17.720  0.00  0.00    -0.114 OA
ATOM     18  O   UNL     1      26.718 -22.541 -15.624  0.00  0.00    -0.020 OA
ATOM     19  O   UNL     1      27.530 -23.600 -17.763  0.00  0.00    -0.114 OA
ENDBRANCH  15  16
ENDBRANCH   3  15
TORSDOF 3
ENDMDL
MODEL 3
REMARK VINA RESULT:      -7.5      1.299      1.534
REMARK  Name = 9835049
REMARK  3 active torsions:
REMARK  status: ('A' for Active; 'I' for Inactive)
REMARK    1  A    between atoms: N_3  and  O_15
REMARK    2  A    between atoms: C_7  and  C_12
REMARK    3  A    between atoms: O_15  and  S_16
REMARK                            x       y       z     vdW  Elec       q    Type
REMARK                         _______ _______ _______ _____ _____    ______ ____
ROOT
ATOM      1  O   UNL     1      36.984 -26.495 -11.943  0.00  0.00    -0.250 OA
ATOM      2  N   UNL     1      35.717 -25.590 -13.787  0.00  0.00    -0.254 N 
ATOM      3  N   UNL     1      37.967 -25.514 -13.859  0.00  0.00    -0.126 N 
ATOM      4  C   UNL     1      37.447 -24.657 -14.914  0.00  0.00    +0.127 C 
ATOM      5  C   UNL     1      36.142 -25.389 -15.172  0.00  0.00    +0.118 C 
ATOM      6  C   UNL     1      37.076 -23.242 -14.397  0.00  0.00    +0.026 C 
ATOM      7  C   UNL     1      35.092 -24.430 -13.163  0.00  0.00    +0.153 C 
ATOM      8  C   UNL     1      36.075 -23.233 -13.202  0.00  0.00    +0.031 C 
ATOM      9  C   UNL     1      36.922 -26.011 -13.064  0.00  0.00    +0.332 C 
ENDROOT
BRANCH   7  12
ATOM     10  O   UNL     1      33.634 -23.119 -14.528  0.00  0.00    -0.274 OA
ATOM     11  N   UNL     1      32.814 -25.065 -13.615  0.00  0.00    -0.327 N 
ATOM     12  C   UNL     1      33.793 -24.127 -13.845  0.00  0.00    +0.238 C 
ATOM     13  H   UNL     1      31.923 -24.955 -14.019  0.00  0.00    +0.145 HD
ATOM     14  H   UNL     1      33.004 -25.844 -13.044  0.00  0.00    +0.145 HD
ENDBRANCH   7  12
BRANCH   3  15
ATOM     15  O   UNL     1      39.235 -25.265 -13.354  0.00  0.00    -0.094 OA
BRANCH  15  16
ATOM     16  S   UNL     1      40.420 -25.620 -14.434  0.00  0.00    +0.258 S 
ATOM     17  O   UNL     1      41.343 -26.706 -13.641  0.00  0.00    -0.114 OA
ATOM     18  O   UNL     1      41.222 -24.427 -14.634  0.00  0.00    -0.020 OA
ATOM     19  O   UNL     1      39.813 -26.301 -15.562  0.00  0.00    -0.114 OA
ENDBRANCH  15  16
ENDBRANCH   3  15
TORSDOF 3
ENDMDL
MODEL 4
REMARK VINA RESULT:      -7.1      3.044      5.941
REMARK  Name = 9835049
REMARK  3 active torsions:
REMARK  status: ('A' for Active; 'I' for Inactive)
REMARK    1  A    between atoms: N_3  and  O_15
REMARK    2  A    between atoms: C_7  and  C_12
REMARK    3  A    between atoms: O_15  and  S_16
REMARK                            x       y       z     vdW  Elec       q    Type
REMARK                         _______ _______ _______ _____ _____    ______ ____
ROOT
ATOM      1  O   UNL     1      34.915 -24.939 -11.335  0.00  0.00    -0.250 OA
ATOM      2  N   UNL     1      36.672 -24.280 -12.853  0.00  0.00    -0.254 N 
ATOM      3  N   UNL     1      34.547 -24.349 -13.596  0.00  0.00    -0.126 N 
ATOM      4  C   UNL     1      35.429 -24.223 -14.746  0.00  0.00    +0.127 C 
ATOM      5  C   UNL     1      36.568 -23.479 -14.072  0.00  0.00    +0.118 C 
ATOM      6  C   UNL     1      35.996 -25.591 -15.210  0.00  0.00    +0.026 C 
ATOM      7  C   UNL     1      37.406 -25.531 -13.001  0.00  0.00    +0.153 C 
ATOM      8  C   UNL     1      36.732 -26.396 -14.096  0.00  0.00    +0.031 C 
ATOM      9  C   UNL     1      35.290 -24.511 -12.416  0.00  0.00    +0.332 C 
ENDROOT
BRANCH   7  12
ATOM     10  O   UNL     1      39.427 -24.269 -12.833  0.00  0.00    -0.274 OA
ATOM     11  N   UNL     1      39.424 -26.147 -14.161  0.00  0.00    -0.327 N 
ATOM     12  C   UNL     1      38.844 -25.241 -13.304  0.00  0.00    +0.238 C 
ATOM     13  H   UNL     1      40.367 -26.044 -14.423  0.00  0.00    +0.145 HD
ATOM     14  H   UNL     1      38.894 -26.899 -14.514  0.00  0.00    +0.145 HD
ENDBRANCH   7  12
BRANCH   3  15
ATOM     15  O   UNL     1      33.292 -24.915 -13.770  0.00  0.00    -0.094 OA
BRANCH  15  16
ATOM     16  S   UNL     1      32.108 -23.784 -13.899  0.00  0.00    +0.258 S 
ATOM     17  O   UNL     1      30.742 -24.672 -13.978  0.00  0.00    -0.114 OA
ATOM     18  O   UNL     1      32.264 -23.108 -15.174  0.00  0.00    -0.020 OA
ATOM     19  O   UNL     1      32.069 -23.029 -12.661  0.00  0.00    -0.114 OA
ENDBRANCH  15  16
ENDBRANCH   3  15
TORSDOF 3
ENDMDL
MODEL 5
REMARK VINA RESULT:      -7.0      2.495      5.468
REMARK  Name = 9835049
REMARK  3 active torsions:
REMARK  status: ('A' for Active; 'I' for Inactive)
REMARK    1  A    between atoms: N_3  and  O_15
REMARK    2  A    between atoms: C_7  and  C_12
REMARK    3  A    between atoms: O_15  and  S_16
REMARK                            x       y       z     vdW  Elec       q    Type
REMARK                         _______ _______ _______ _____ _____    ______ ____
ROOT
ATOM      1  O   UNL     1      36.140 -26.755 -15.804  0.00  0.00    -0.250 OA
ATOM      2  N   UNL     1      37.750 -26.001 -14.171  0.00  0.00    -0.254 N 
ATOM      3  N   UNL     1      35.727 -25.014 -14.255  0.00  0.00    -0.126 N 
ATOM      4  C   UNL     1      36.598 -24.202 -13.418  0.00  0.00    +0.127 C 
ATOM      5  C   UNL     1      37.508 -25.304 -12.908  0.00  0.00    +0.118 C 
ATOM      6  C   UNL     1      37.482 -23.235 -14.249  0.00  0.00    +0.026 C 
ATOM      7  C   UNL     1      38.759 -25.388 -15.026  0.00  0.00    +0.153 C 
ATOM      8  C   UNL     1      38.344 -23.929 -15.346  0.00  0.00    +0.031 C 
ATOM      9  C   UNL     1      36.445 -26.071 -14.837  0.00  0.00    +0.332 C 
ENDROOT
BRANCH   7  12
ATOM     10  O   UNL     1      40.675 -24.476 -13.929  0.00  0.00    -0.274 OA
ATOM     11  N   UNL     1      40.618 -26.743 -14.317  0.00  0.00    -0.327 N 
ATOM     12  C   UNL     1      40.101 -25.469 -14.365  0.00  0.00    +0.238 C 
ATOM     13  H   UNL     1      41.497 -26.902 -13.901  0.00  0.00    +0.145 HD
ATOM     14  H   UNL     1      40.111 -27.495 -14.698  0.00  0.00    +0.145 HD
ENDBRANCH   7  12
BRANCH   3  15
ATOM     15  O   UNL     1      34.645 -24.414 -14.882  0.00  0.00    -0.094 OA
BRANCH  15  16
ATOM     16  S   UNL     1      33.340 -24.287 -13.892  0.00  0.00    +0.258 S 
ATOM     17  O   UNL     1      32.555 -22.978 -14.466  0.00  0.00    -0.114 OA
ATOM     18  O   UNL     1      33.813 -23.964 -12.559  0.00  0.00    -0.020 OA
ATOM     19  O   UNL     1      32.491 -25.441 -14.116  0.00  0.00    -0.114 OA
ENDBRANCH  15  16
ENDBRANCH   3  15
TORSDOF 3
ENDMDL
MODEL 6
REMARK VINA RESULT:      -6.9      4.088      5.499
REMARK  Name = 9835049
REMARK  3 active torsions:
REMARK  status: ('A' for Active; 'I' for Inactive)
REMARK    1  A    between atoms: N_3  and  O_15
REMARK    2  A    between atoms: C_7  and  C_12
REMARK    3  A    between atoms: O_15  and  S_16
REMARK                            x       y       z     vdW  Elec       q    Type
REMARK                         _______ _______ _______ _____ _____    ______ ____
ROOT
ATOM      1  O   UNL     1      33.438 -23.585 -16.823  0.00  0.00    -0.250 OA
ATOM      2  N   UNL     1      31.413 -22.812 -15.761  0.00  0.00    -0.254 N 
ATOM      3  N   UNL     1      33.011 -23.781 -14.504  0.00  0.00    -0.126 N 
ATOM      4  C   UNL     1      31.798 -23.682 -13.706  0.00  0.00    +0.127 C 
ATOM      5  C   UNL     1      31.201 -22.450 -14.360  0.00  0.00    +0.118 C 
ATOM      6  C   UNL     1      30.817 -24.854 -13.972  0.00  0.00    +0.026 C 
ATOM      7  C   UNL     1      30.430 -23.737 -16.312  0.00  0.00    +0.153 C 
ATOM      8  C   UNL     1      30.420 -25.038 -15.468  0.00  0.00    +0.031 C 
ATOM      9  C   UNL     1      32.771 -23.363 -15.823  0.00  0.00    +0.332 C 
ENDROOT
BRANCH   7  12
ATOM     10  O   UNL     1      28.902 -22.016 -16.950  0.00  0.00    -0.274 OA
ATOM     11  N   UNL     1      28.107 -23.762 -15.681  0.00  0.00    -0.327 N 
ATOM     12  C   UNL     1      29.086 -23.078 -16.362  0.00  0.00    +0.238 C 
ATOM     13  H   UNL     1      27.188 -23.409 -15.654  0.00  0.00    +0.145 HD
ATOM     14  H   UNL     1      28.326 -24.603 -15.218  0.00  0.00    +0.145 HD
ENDBRANCH   7  12
BRANCH   3  15
ATOM     15  O   UNL     1      33.945 -24.758 -14.190  0.00  0.00    -0.094 OA
BRANCH  15  16
ATOM     16  S   UNL     1      35.207 -24.161 -13.324  0.00  0.00    +0.258 S 
ATOM     17  O   UNL     1      36.277 -25.391 -13.315  0.00  0.00    -0.114 OA
ATOM     18  O   UNL     1      34.762 -23.957 -11.958  0.00  0.00    -0.020 OA
ATOM     19  O   UNL     1      35.797 -23.072 -14.080  0.00  0.00    -0.114 OA
ENDBRANCH  15  16
ENDBRANCH   3  15
TORSDOF 3
ENDMDL
MODEL 7
REMARK VINA RESULT:      -6.9      3.245      5.431
REMARK  Name = 9835049
REMARK  3 active torsions:
REMARK  status: ('A' for Active; 'I' for Inactive)
REMARK    1  A    between atoms: N_3  and  O_15
REMARK    2  A    between atoms: C_7  and  C_12
REMARK    3  A    between atoms: O_15  and  S_16
REMARK                            x       y       z     vdW  Elec       q    Type
REMARK                         _______ _______ _______ _____ _____    ______ ____
ROOT
ATOM      1  O   UNL     1      37.015 -22.304 -16.279  0.00  0.00    -0.250 OA
ATOM      2  N   UNL     1      37.023 -24.342 -14.985  0.00  0.00    -0.254 N 
ATOM      3  N   UNL     1      35.125 -23.704 -16.017  0.00  0.00    -0.126 N 
ATOM      4  C   UNL     1      34.800 -24.769 -15.081  0.00  0.00    +0.127 C 
ATOM      5  C   UNL     1      36.132 -25.497 -15.100  0.00  0.00    +0.118 C 
ATOM      6  C   UNL     1      34.594 -24.244 -13.636  0.00  0.00    +0.026 C 
ATOM      7  C   UNL     1      37.181 -23.821 -13.632  0.00  0.00    +0.153 C 
ATOM      8  C   UNL     1      35.792 -23.424 -13.069  0.00  0.00    +0.031 C 
ATOM      9  C   UNL     1      36.473 -23.330 -15.894  0.00  0.00    +0.332 C 
ENDROOT
BRANCH   7  12
ATOM     10  O   UNL     1      37.383 -25.261 -11.737  0.00  0.00    -0.274 OA
ATOM     11  N   UNL     1      39.107 -25.217 -13.260  0.00  0.00    -0.327 N 
ATOM     12  C   UNL     1      37.877 -24.835 -12.777  0.00  0.00    +0.238 C 
ATOM     13  H   UNL     1      39.644 -25.880 -12.769  0.00  0.00    +0.145 HD
ATOM     14  H   UNL     1      39.450 -24.826 -14.096  0.00  0.00    +0.145 HD
ENDBRANCH   7  12
BRANCH   3  15
ATOM     15  O   UNL     1      34.134 -22.807 -16.386  0.00  0.00    -0.094 OA
BRANCH  15  16
ATOM     16  S   UNL     1      33.777 -22.891 -17.987  0.00  0.00    +0.258 S 
ATOM     17  O   UNL     1      33.622 -24.492 -18.258  0.00  0.00    -0.114 OA
ATOM     18  O   UNL     1      34.933 -22.431 -18.734  0.00  0.00    -0.020 OA
ATOM     19  O   UNL     1      32.475 -22.284 -18.191  0.00  0.00    -0.114 OA
ENDBRANCH  15  16
ENDBRANCH   3  15
TORSDOF 3
ENDMDL
MODEL 8
REMARK VINA RESULT:      -6.8      8.213      9.911
REMARK  Name = 9835049
REMARK  3 active torsions:
REMARK  status: ('A' for Active; 'I' for Inactive)
REMARK    1  A    between atoms: N_3  and  O_15
REMARK    2  A    between atoms: C_7  and  C_12
REMARK    3  A    between atoms: O_15  and  S_16
REMARK                            x       y       z     vdW  Elec       q    Type
REMARK                         _______ _______ _______ _____ _____    ______ ____
ROOT
ATOM      1  O   UNL     1      37.123 -19.324 -20.325  0.00  0.00    -0.250 OA
ATOM      2  N   UNL     1      35.373 -17.918 -21.214  0.00  0.00    -0.254 N 
ATOM      3  N   UNL     1      34.891 -20.043 -20.644  0.00  0.00    -0.126 N 
ATOM      4  C   UNL     1      33.777 -19.513 -21.416  0.00  0.00    +0.127 C 
ATOM      5  C   UNL     1      33.926 -18.049 -21.045  0.00  0.00    +0.118 C 
ATOM      6  C   UNL     1      34.015 -19.617 -22.945  0.00  0.00    +0.026 C 
ATOM      7  C   UNL     1      35.817 -17.747 -22.592  0.00  0.00    +0.153 C 
ATOM      8  C   UNL     1      35.333 -18.950 -23.441  0.00  0.00    +0.031 C 
ATOM      9  C   UNL     1      35.950 -19.122 -20.605  0.00  0.00    +0.332 C 
ENDROOT
BRANCH   7  12
ATOM     10  O   UNL     1      35.126 -15.468 -22.393  0.00  0.00    -0.274 OA
ATOM     11  N   UNL     1      35.102 -16.436 -24.480  0.00  0.00    -0.327 N 
ATOM     12  C   UNL     1      35.323 -16.436 -23.123  0.00  0.00    +0.238 C 
ATOM     13  H   UNL     1      34.776 -15.620 -24.926  0.00  0.00    +0.145 HD
ATOM     14  H   UNL     1      35.268 -17.251 -25.006  0.00  0.00    +0.145 HD
ENDBRANCH   7  12
BRANCH   3  15
ATOM     15  O   UNL     1      35.096 -21.415 -20.612  0.00  0.00    -0.094 OA
BRANCH  15  16
ATOM     16  S   UNL     1      34.423 -22.118 -19.289  0.00  0.00    +0.258 S 
ATOM     17  O   UNL     1      34.141 -23.649 -19.774  0.00  0.00    -0.114 OA
ATOM     18  O   UNL     1      33.136 -21.491 -19.048  0.00  0.00    -0.020 OA
ATOM     19  O   UNL     1      35.429 -22.167 -18.245  0.00  0.00    -0.114 OA
ENDBRANCH  15  16
ENDBRANCH   3  15
TORSDOF 3
ENDMDL
MODEL 9
REMARK VINA RESULT:      -6.8      2.787      5.812
REMARK  Name = 9835049
REMARK  3 active torsions:
REMARK  status: ('A' for Active; 'I' for Inactive)
REMARK    1  A    between atoms: N_3  and  O_15
REMARK    2  A    between atoms: C_7  and  C_12
REMARK    3  A    between atoms: O_15  and  S_16
REMARK                            x       y       z     vdW  Elec       q    Type
REMARK                         _______ _______ _______ _____ _____    ______ ____
ROOT
ATOM      1  O   UNL     1      34.884 -24.063 -16.312  0.00  0.00    -0.250 OA
ATOM      2  N   UNL     1      36.454 -25.056 -14.771  0.00  0.00    -0.254 N 
ATOM      3  N   UNL     1      34.468 -24.329 -13.998  0.00  0.00    -0.126 N 
ATOM      4  C   UNL     1      35.331 -24.598 -12.858  0.00  0.00    +0.127 C 
ATOM      5  C   UNL     1      36.186 -25.687 -13.479  0.00  0.00    +0.118 C 
ATOM      6  C   UNL     1      36.276 -23.411 -12.537  0.00  0.00    +0.026 C 
ATOM      7  C   UNL     1      37.513 -24.055 -14.757  0.00  0.00    +0.153 C 
ATOM      8  C   UNL     1      37.157 -22.944 -13.736  0.00  0.00    +0.031 C 
ATOM      9  C   UNL     1      35.173 -24.484 -15.202  0.00  0.00    +0.332 C 
ENDROOT
BRANCH   7  12
ATOM     10  O   UNL     1      39.397 -24.562 -13.378  0.00  0.00    -0.274 OA
ATOM     11  N   UNL     1      39.322 -25.463 -15.493  0.00  0.00    -0.327 N 
ATOM     12  C   UNL     1      38.826 -24.710 -14.455  0.00  0.00    +0.238 C 
ATOM     13  H   UNL     1      40.180 -25.934 -15.394  0.00  0.00    +0.145 HD
ATOM     14  H   UNL     1      38.819 -25.529 -16.337  0.00  0.00    +0.145 HD
ENDBRANCH   7  12
BRANCH   3  15
ATOM     15  O   UNL     1      33.429 -23.420 -13.855  0.00  0.00    -0.094 OA
BRANCH  15  16
ATOM     16  S   UNL     1      31.959 -24.104 -14.114  0.00  0.00    +0.258 S 
ATOM     17  O   UNL     1      31.039 -23.493 -12.915  0.00  0.00    -0.114 OA
ATOM     18  O   UNL     1      32.078 -25.533 -13.889  0.00  0.00    -0.020 OA
ATOM     19  O   UNL     1      31.440 -23.594 -15.370  0.00  0.00    -0.114 OA
ENDBRANCH  15  16
ENDBRANCH   3  15
TORSDOF 3
ENDMDL
