MODEL 1
REMARK VINA RESULT:      -5.6      0.000      0.000
REMARK  Name = 70931
REMARK  15 active torsions:
REMARK  status: ('A' for Active; 'I' for Inactive)
REMARK    1  A    between atoms: C_1  and  O_2
REMARK    2  A    between atoms: C_1  and  C_10
REMARK    3  A    between atoms: O_2  and  C_3
REMARK    4  A    between atoms: C_3  and  C_4
REMARK    5  A    between atoms: C_4  and  O_5
REMARK    6  A    between atoms: O_5  and  C_6
REMARK    7  A    between atoms: C_6  and  C_7
REMARK    8  A    between atoms: C_7  and  O_8
REMARK    9  A    between atoms: C_10  and  O_11
REMARK   10  A    between atoms: O_11  and  C_12
REMARK   11  A    between atoms: C_12  and  C_13
REMARK   12  A    between atoms: C_13  and  O_14
REMARK   13  A    between atoms: O_14  and  C_15
REMARK   14  A    between atoms: C_15  and  C_16
REMARK   15  A    between atoms: C_16  and  O_17
REMARK                            x       y       z     vdW  Elec       q    Type
REMARK                         _______ _______ _______ _____ _____    ______ ____
ROOT
ATOM      1  C   UNL     1      34.027 -22.162 -19.152  0.00  0.00    +0.174 C 
ENDROOT
BRANCH   1   2
ATOM      2  O   UNL     1      35.408 -22.474 -19.035  0.00  0.00    -0.348 OA
BRANCH   2   3
ATOM      3  C   UNL     1      36.221 -21.328 -19.255  0.00  0.00    +0.174 C 
BRANCH   3   4
ATOM      4  C   UNL     1      35.593 -20.477 -20.341  0.00  0.00    +0.174 C 
BRANCH   4   5
ATOM      5  O   UNL     1      36.222 -19.203 -20.354  0.00  0.00    -0.348 OA
BRANCH   5   6
ATOM      6  C   UNL     1      36.093 -18.571 -21.622  0.00  0.00    +0.174 C 
BRANCH   6   7
ATOM      7  C   UNL     1      34.990 -17.533 -21.547  0.00  0.00    +0.174 C 
BRANCH   7   8
ATOM      8  O   UNL     1      35.212 -16.702 -20.413  0.00  0.00    -0.348 OA
ATOM      9  C   UNL     1      34.500 -15.476 -20.519  0.00  0.00    +0.174 C 
ENDBRANCH   7   8
ENDBRANCH   6   7
ENDBRANCH   5   6
ENDBRANCH   4   5
ENDBRANCH   3   4
ENDBRANCH   2   3
ENDBRANCH   1   2
BRANCH   1  10
ATOM     10  C   UNL     1      33.268 -22.845 -18.032  0.00  0.00    +0.174 C 
BRANCH  10  11
ATOM     11  O   UNL     1      34.188 -23.559 -17.215  0.00  0.00    -0.348 OA
BRANCH  11  12
ATOM     12  C   UNL     1      34.064 -23.194 -15.849  0.00  0.00    +0.174 C 
BRANCH  12  13
ATOM     13  C   UNL     1      34.513 -24.355 -14.983  0.00  0.00    +0.174 C 
BRANCH  13  14
ATOM     14  O   UNL     1      35.509 -25.094 -15.678  0.00  0.00    -0.348 OA
BRANCH  14  15
ATOM     15  C   UNL     1      36.744 -25.094 -14.975  0.00  0.00    +0.174 C 
BRANCH  15  16
ATOM     16  C   UNL     1      37.319 -26.497 -14.984  0.00  0.00    +0.174 C 
BRANCH  16  17
ATOM     17  O   UNL     1      37.954 -26.748 -13.736  0.00  0.00    -0.348 OA
ATOM     18  C   UNL     1      37.281 -26.094 -12.669  0.00  0.00    +0.174 C 
ENDBRANCH  16  17
ENDBRANCH  15  16
ENDBRANCH  14  15
ENDBRANCH  13  14
ENDBRANCH  12  13
ENDBRANCH  11  12
ENDBRANCH  10  11
ENDBRANCH   1  10
TORSDOF 15
ENDMDL
MODEL 2
REMARK VINA RESULT:      -5.6      1.862      8.514
REMARK  Name = 70931
REMARK  15 active torsions:
REMARK  status: ('A' for Active; 'I' for Inactive)
REMARK    1  A    between atoms: C_1  and  O_2
REMARK    2  A    between atoms: C_1  and  C_10
REMARK    3  A    between atoms: O_2  and  C_3
REMARK    4  A    between atoms: C_3  and  C_4
REMARK    5  A    between atoms: C_4  and  O_5
REMARK    6  A    between atoms: O_5  and  C_6
REMARK    7  A    between atoms: C_6  and  C_7
REMARK    8  A    between atoms: C_7  and  O_8
REMARK    9  A    between atoms: C_10  and  O_11
REMARK   10  A    between atoms: O_11  and  C_12
REMARK   11  A    between atoms: C_12  and  C_13
REMARK   12  A    between atoms: C_13  and  O_14
REMARK   13  A    between atoms: O_14  and  C_15
REMARK   14  A    between atoms: C_15  and  C_16
REMARK   15  A    between atoms: C_16  and  O_17
REMARK                            x       y       z     vdW  Elec       q    Type
REMARK                         _______ _______ _______ _____ _____    ______ ____
ROOT
ATOM      1  C   UNL     1      35.459 -24.580 -14.995  0.00  0.00    +0.174 C 
ENDROOT
BRANCH   1   2
ATOM      2  O   UNL     1      35.809 -25.709 -15.784  0.00  0.00    -0.348 OA
BRANCH   2   3
ATOM      3  C   UNL     1      36.766 -26.529 -15.124  0.00  0.00    +0.174 C 
BRANCH   3   4
ATOM      4  C   UNL     1      37.956 -25.678 -14.727  0.00  0.00    +0.174 C 
BRANCH   4   5
ATOM      5  O   UNL     1      38.543 -26.220 -13.552  0.00  0.00    -0.348 OA
BRANCH   5   6
ATOM      6  C   UNL     1      37.792 -25.886 -12.391  0.00  0.00    +0.174 C 
BRANCH   6   7
ATOM      7  C   UNL     1      38.007 -24.419 -12.069  0.00  0.00    +0.174 C 
BRANCH   7   8
ATOM      8  O   UNL     1      37.149 -24.050 -10.996  0.00  0.00    -0.348 OA
ATOM      9  C   UNL     1      35.796 -24.384 -11.272  0.00  0.00    +0.174 C 
ENDBRANCH   7   8
ENDBRANCH   6   7
ENDBRANCH   5   6
ENDBRANCH   4   5
ENDBRANCH   3   4
ENDBRANCH   2   3
ENDBRANCH   1   2
BRANCH   1  10
ATOM     10  C   UNL     1      34.723 -23.578 -15.862  0.00  0.00    +0.174 C 
BRANCH  10  11
ATOM     11  O   UNL     1      35.601 -23.115 -16.882  0.00  0.00    -0.348 OA
BRANCH  11  12
ATOM     12  C   UNL     1      34.908 -22.349 -17.857  0.00  0.00    +0.174 C 
BRANCH  12  13
ATOM     13  C   UNL     1      33.472 -22.829 -17.935  0.00  0.00    +0.174 C 
BRANCH  13  14
ATOM     14  O   UNL     1      32.821 -22.171 -19.014  0.00  0.00    -0.348 OA
BRANCH  14  15
ATOM     15  C   UNL     1      33.706 -21.298 -19.703  0.00  0.00    +0.174 C 
BRANCH  15  16
ATOM     16  C   UNL     1      32.894 -20.303 -20.508  0.00  0.00    +0.174 C 
BRANCH  16  17
ATOM     17  O   UNL     1      33.710 -19.180 -20.819  0.00  0.00    -0.348 OA
ATOM     18  C   UNL     1      34.674 -19.497 -21.815  0.00  0.00    +0.174 C 
ENDBRANCH  16  17
ENDBRANCH  15  16
ENDBRANCH  14  15
ENDBRANCH  13  14
ENDBRANCH  12  13
ENDBRANCH  11  12
ENDBRANCH  10  11
ENDBRANCH   1  10
TORSDOF 15
ENDMDL
MODEL 3
REMARK VINA RESULT:      -5.6      2.529      3.622
REMARK  Name = 70931
REMARK  15 active torsions:
REMARK  status: ('A' for Active; 'I' for Inactive)
REMARK    1  A    between atoms: C_1  and  O_2
REMARK    2  A    between atoms: C_1  and  C_10
REMARK    3  A    between atoms: O_2  and  C_3
REMARK    4  A    between atoms: C_3  and  C_4
REMARK    5  A    between atoms: C_4  and  O_5
REMARK    6  A    between atoms: O_5  and  C_6
REMARK    7  A    between atoms: C_6  and  C_7
REMARK    8  A    between atoms: C_7  and  O_8
REMARK    9  A    between atoms: C_10  and  O_11
REMARK   10  A    between atoms: O_11  and  C_12
REMARK   11  A    between atoms: C_12  and  C_13
REMARK   12  A    between atoms: C_13  and  O_14
REMARK   13  A    between atoms: O_14  and  C_15
REMARK   14  A    between atoms: C_15  and  C_16
REMARK   15  A    between atoms: C_16  and  O_17
REMARK                            x       y       z     vdW  Elec       q    Type
REMARK                         _______ _______ _______ _____ _____    ______ ____
ROOT
ATOM      1  C   UNL     1      35.019 -20.487 -20.351  0.00  0.00    +0.174 C 
ENDROOT
BRANCH   1   2
ATOM      2  O   UNL     1      35.440 -19.148 -20.573  0.00  0.00    -0.348 OA
BRANCH   2   3
ATOM      3  C   UNL     1      34.629 -18.501 -21.546  0.00  0.00    +0.174 C 
BRANCH   3   4
ATOM      4  C   UNL     1      34.784 -19.216 -22.874  0.00  0.00    +0.174 C 
BRANCH   4   5
ATOM      5  O   UNL     1      35.384 -18.331 -23.810  0.00  0.00    -0.348 OA
BRANCH   5   6
ATOM      6  C   UNL     1      34.507 -18.047 -24.894  0.00  0.00    +0.174 C 
BRANCH   6   7
ATOM      7  C   UNL     1      34.341 -16.544 -25.014  0.00  0.00    +0.174 C 
BRANCH   7   8
ATOM      8  O   UNL     1      33.659 -16.249 -26.227  0.00  0.00    -0.348 OA
ATOM      9  C   UNL     1      33.210 -14.900 -26.257  0.00  0.00    +0.174 C 
ENDBRANCH   7   8
ENDBRANCH   6   7
ENDBRANCH   5   6
ENDBRANCH   4   5
ENDBRANCH   3   4
ENDBRANCH   2   3
ENDBRANCH   1   2
BRANCH   1  10
ATOM     10  C   UNL     1      36.105 -21.230 -19.599  0.00  0.00    +0.174 C 
BRANCH  10  11
ATOM     11  O   UNL     1      35.526 -22.342 -18.926  0.00  0.00    -0.348 OA
BRANCH  11  12
ATOM     12  C   UNL     1      34.108 -22.317 -19.003  0.00  0.00    +0.174 C 
BRANCH  12  13
ATOM     13  C   UNL     1      33.534 -23.051 -17.807  0.00  0.00    +0.174 C 
BRANCH  13  14
ATOM     14  O   UNL     1      34.578 -23.314 -16.878  0.00  0.00    -0.348 OA
BRANCH  14  15
ATOM     15  C   UNL     1      34.064 -23.704 -15.612  0.00  0.00    +0.174 C 
BRANCH  15  16
ATOM     16  C   UNL     1      35.145 -24.441 -14.845  0.00  0.00    +0.174 C 
BRANCH  16  17
ATOM     17  O   UNL     1      35.877 -25.263 -15.748  0.00  0.00    -0.348 OA
ATOM     18  C   UNL     1      36.606 -26.270 -15.060  0.00  0.00    +0.174 C 
ENDBRANCH  16  17
ENDBRANCH  15  16
ENDBRANCH  14  15
ENDBRANCH  13  14
ENDBRANCH  12  13
ENDBRANCH  11  12
ENDBRANCH  10  11
ENDBRANCH   1  10
TORSDOF 15
ENDMDL
MODEL 4
REMARK VINA RESULT:      -5.6      1.860      8.704
REMARK  Name = 70931
REMARK  15 active torsions:
REMARK  status: ('A' for Active; 'I' for Inactive)
REMARK    1  A    between atoms: C_1  and  O_2
REMARK    2  A    between atoms: C_1  and  C_10
REMARK    3  A    between atoms: O_2  and  C_3
REMARK    4  A    between atoms: C_3  and  C_4
REMARK    5  A    between atoms: C_4  and  O_5
REMARK    6  A    between atoms: O_5  and  C_6
REMARK    7  A    between atoms: C_6  and  C_7
REMARK    8  A    between atoms: C_7  and  O_8
REMARK    9  A    between atoms: C_10  and  O_11
REMARK   10  A    between atoms: O_11  and  C_12
REMARK   11  A    between atoms: C_12  and  C_13
REMARK   12  A    between atoms: C_13  and  O_14
REMARK   13  A    between atoms: O_14  and  C_15
REMARK   14  A    between atoms: C_15  and  C_16
REMARK   15  A    between atoms: C_16  and  O_17
REMARK                            x       y       z     vdW  Elec       q    Type
REMARK                         _______ _______ _______ _____ _____    ______ ____
ROOT
ATOM      1  C   UNL     1      37.116 -21.961 -16.212  0.00  0.00    +0.174 C 
ENDROOT
BRANCH   1   2
ATOM      2  O   UNL     1      37.648 -22.724 -15.138  0.00  0.00    -0.348 OA
BRANCH   2   3
ATOM      3  C   UNL     1      36.623 -23.178 -14.263  0.00  0.00    +0.174 C 
BRANCH   3   4
ATOM      4  C   UNL     1      37.233 -23.502 -12.913  0.00  0.00    +0.174 C 
BRANCH   4   5
ATOM      5  O   UNL     1      38.545 -24.010 -13.107  0.00  0.00    -0.348 OA
BRANCH   5   6
ATOM      6  C   UNL     1      38.566 -25.432 -13.056  0.00  0.00    +0.174 C 
BRANCH   6   7
ATOM      7  C   UNL     1      39.060 -25.966 -14.387  0.00  0.00    +0.174 C 
BRANCH   7   8
ATOM      8  O   UNL     1      38.296 -27.115 -14.737  0.00  0.00    -0.348 OA
ATOM      9  C   UNL     1      36.981 -26.762 -15.143  0.00  0.00    +0.174 C 
ENDBRANCH   7   8
ENDBRANCH   6   7
ENDBRANCH   5   6
ENDBRANCH   4   5
ENDBRANCH   3   4
ENDBRANCH   2   3
ENDBRANCH   1   2
BRANCH   1  10
ATOM     10  C   UNL     1      35.769 -22.532 -16.606  0.00  0.00    +0.174 C 
BRANCH  10  11
ATOM     11  O   UNL     1      35.575 -22.343 -18.003  0.00  0.00    -0.348 OA
BRANCH  11  12
ATOM     12  C   UNL     1      36.636 -21.596 -18.580  0.00  0.00    +0.174 C 
BRANCH  12  13
ATOM     13  C   UNL     1      36.162 -20.990 -19.886  0.00  0.00    +0.174 C 
BRANCH  13  14
ATOM     14  O   UNL     1      34.744 -20.898 -19.868  0.00  0.00    -0.348 OA
BRANCH  14  15
ATOM     15  C   UNL     1      34.278 -19.848 -20.705  0.00  0.00    +0.174 C 
BRANCH  15  16
ATOM     16  C   UNL     1      35.467 -19.057 -21.214  0.00  0.00    +0.174 C 
BRANCH  16  17
ATOM     17  O   UNL     1      35.462 -17.769 -20.608  0.00  0.00    -0.348 OA
ATOM     18  C   UNL     1      34.870 -16.797 -21.459  0.00  0.00    +0.174 C 
ENDBRANCH  16  17
ENDBRANCH  15  16
ENDBRANCH  14  15
ENDBRANCH  13  14
ENDBRANCH  12  13
ENDBRANCH  11  12
ENDBRANCH  10  11
ENDBRANCH   1  10
TORSDOF 15
ENDMDL
MODEL 5
REMARK VINA RESULT:      -5.6      1.109      8.574
REMARK  Name = 70931
REMARK  15 active torsions:
REMARK  status: ('A' for Active; 'I' for Inactive)
REMARK    1  A    between atoms: C_1  and  O_2
REMARK    2  A    between atoms: C_1  and  C_10
REMARK    3  A    between atoms: O_2  and  C_3
REMARK    4  A    between atoms: C_3  and  C_4
REMARK    5  A    between atoms: C_4  and  O_5
REMARK    6  A    between atoms: O_5  and  C_6
REMARK    7  A    between atoms: C_6  and  C_7
REMARK    8  A    between atoms: C_7  and  O_8
REMARK    9  A    between atoms: C_10  and  O_11
REMARK   10  A    between atoms: O_11  and  C_12
REMARK   11  A    between atoms: C_12  and  C_13
REMARK   12  A    between atoms: C_13  and  O_14
REMARK   13  A    between atoms: O_14  and  C_15
REMARK   14  A    between atoms: C_15  and  C_16
REMARK   15  A    between atoms: C_16  and  O_17
REMARK                            x       y       z     vdW  Elec       q    Type
REMARK                         _______ _______ _______ _____ _____    ______ ____
ROOT
ATOM      1  C   UNL     1      33.394 -23.334 -17.267  0.00  0.00    +0.174 C 
ENDROOT
BRANCH   1   2
ATOM      2  O   UNL     1      34.601 -23.956 -16.848  0.00  0.00    -0.348 OA
BRANCH   2   3
ATOM      3  C   UNL     1      34.763 -23.881 -15.437  0.00  0.00    +0.174 C 
BRANCH   3   4
ATOM      4  C   UNL     1      35.922 -24.768 -15.025  0.00  0.00    +0.174 C 
BRANCH   4   5
ATOM      5  O   UNL     1      35.730 -26.066 -15.570  0.00  0.00    -0.348 OA
BRANCH   5   6
ATOM      6  C   UNL     1      36.868 -26.893 -15.362  0.00  0.00    +0.174 C 
BRANCH   6   7
ATOM      7  C   UNL     1      37.803 -26.211 -14.382  0.00  0.00    +0.174 C 
BRANCH   7   8
ATOM      8  O   UNL     1      39.145 -26.562 -14.700  0.00  0.00    -0.348 OA
ATOM      9  C   UNL     1      39.937 -25.410 -14.956  0.00  0.00    +0.174 C 
ENDBRANCH   7   8
ENDBRANCH   6   7
ENDBRANCH   5   6
ENDBRANCH   4   5
ENDBRANCH   3   4
ENDBRANCH   2   3
ENDBRANCH   1   2
BRANCH   1  10
ATOM     10  C   UNL     1      33.693 -22.399 -18.422  0.00  0.00    +0.174 C 
BRANCH  10  11
ATOM     11  O   UNL     1      34.921 -22.786 -19.027  0.00  0.00    -0.348 OA
BRANCH  11  12
ATOM     12  C   UNL     1      35.926 -21.800 -18.843  0.00  0.00    +0.174 C 
BRANCH  12  13
ATOM     13  C   UNL     1      36.212 -21.128 -20.172  0.00  0.00    +0.174 C 
BRANCH  13  14
ATOM     14  O   UNL     1      35.704 -19.801 -20.140  0.00  0.00    -0.348 OA
BRANCH  14  15
ATOM     15  C   UNL     1      34.558 -19.661 -20.969  0.00  0.00    +0.174 C 
BRANCH  15  16
ATOM     16  C   UNL     1      34.588 -18.295 -21.627  0.00  0.00    +0.174 C 
BRANCH  16  17
ATOM     17  O   UNL     1      35.006 -17.328 -20.671  0.00  0.00    -0.348 OA
ATOM     18  C   UNL     1      34.772 -16.004 -21.133  0.00  0.00    +0.174 C 
ENDBRANCH  16  17
ENDBRANCH  15  16
ENDBRANCH  14  15
ENDBRANCH  13  14
ENDBRANCH  12  13
ENDBRANCH  11  12
ENDBRANCH  10  11
ENDBRANCH   1  10
TORSDOF 15
ENDMDL
MODEL 6
REMARK VINA RESULT:      -5.6      3.690      5.896
REMARK  Name = 70931
REMARK  15 active torsions:
REMARK  status: ('A' for Active; 'I' for Inactive)
REMARK    1  A    between atoms: C_1  and  O_2
REMARK    2  A    between atoms: C_1  and  C_10
REMARK    3  A    between atoms: O_2  and  C_3
REMARK    4  A    between atoms: C_3  and  C_4
REMARK    5  A    between atoms: C_4  and  O_5
REMARK    6  A    between atoms: O_5  and  C_6
REMARK    7  A    between atoms: C_6  and  C_7
REMARK    8  A    between atoms: C_7  and  O_8
REMARK    9  A    between atoms: C_10  and  O_11
REMARK   10  A    between atoms: O_11  and  C_12
REMARK   11  A    between atoms: C_12  and  C_13
REMARK   12  A    between atoms: C_13  and  O_14
REMARK   13  A    between atoms: O_14  and  C_15
REMARK   14  A    between atoms: C_15  and  C_16
REMARK   15  A    between atoms: C_16  and  O_17
REMARK                            x       y       z     vdW  Elec       q    Type
REMARK                         _______ _______ _______ _____ _____    ______ ____
ROOT
ATOM      1  C   UNL     1      33.775 -21.838 -19.533  0.00  0.00    +0.174 C 
ENDROOT
BRANCH   1   2
ATOM      2  O   UNL     1      32.719 -20.892 -19.437  0.00  0.00    -0.348 OA
BRANCH   2   3
ATOM      3  C   UNL     1      32.766 -19.948 -20.500  0.00  0.00    +0.174 C 
BRANCH   3   4
ATOM      4  C   UNL     1      34.161 -19.944 -21.095  0.00  0.00    +0.174 C 
BRANCH   4   5
ATOM      5  O   UNL     1      34.809 -18.729 -20.750  0.00  0.00    -0.348 OA
BRANCH   5   6
ATOM      6  C   UNL     1      35.878 -18.435 -21.642  0.00  0.00    +0.174 C 
BRANCH   6   7
ATOM      7  C   UNL     1      35.395 -17.442 -22.682  0.00  0.00    +0.174 C 
BRANCH   7   8
ATOM      8  O   UNL     1      35.089 -16.210 -22.039  0.00  0.00    -0.348 OA
ATOM      9  C   UNL     1      34.311 -15.365 -22.876  0.00  0.00    +0.174 C 
ENDBRANCH   7   8
ENDBRANCH   6   7
ENDBRANCH   5   6
ENDBRANCH   4   5
ENDBRANCH   3   4
ENDBRANCH   2   3
ENDBRANCH   1   2
BRANCH   1  10
ATOM     10  C   UNL     1      33.593 -22.894 -18.461  0.00  0.00    +0.174 C 
BRANCH  10  11
ATOM     11  O   UNL     1      32.327 -22.711 -17.838  0.00  0.00    -0.348 OA
BRANCH  11  12
ATOM     12  C   UNL     1      32.306 -23.261 -16.529  0.00  0.00    +0.174 C 
BRANCH  12  13
ATOM     13  C   UNL     1      30.979 -22.931 -15.874  0.00  0.00    +0.174 C 
BRANCH  13  14
ATOM     14  O   UNL     1      29.985 -22.799 -16.882  0.00  0.00    -0.348 OA
BRANCH  14  15
ATOM     15  C   UNL     1      28.688 -23.084 -16.375  0.00  0.00    +0.174 C 
BRANCH  15  16
ATOM     16  C   UNL     1      27.657 -22.744 -17.433  0.00  0.00    +0.174 C 
BRANCH  16  17
ATOM     17  O   UNL     1      26.596 -22.013 -16.830  0.00  0.00    -0.348 OA
ATOM     18  C   UNL     1      25.964 -21.147 -17.763  0.00  0.00    +0.174 C 
ENDBRANCH  16  17
ENDBRANCH  15  16
ENDBRANCH  14  15
ENDBRANCH  13  14
ENDBRANCH  12  13
ENDBRANCH  11  12
ENDBRANCH  10  11
ENDBRANCH   1  10
TORSDOF 15
ENDMDL
MODEL 7
REMARK VINA RESULT:      -5.5      1.830      3.113
REMARK  Name = 70931
REMARK  15 active torsions:
REMARK  status: ('A' for Active; 'I' for Inactive)
REMARK    1  A    between atoms: C_1  and  O_2
REMARK    2  A    between atoms: C_1  and  C_10
REMARK    3  A    between atoms: O_2  and  C_3
REMARK    4  A    between atoms: C_3  and  C_4
REMARK    5  A    between atoms: C_4  and  O_5
REMARK    6  A    between atoms: O_5  and  C_6
REMARK    7  A    between atoms: C_6  and  C_7
REMARK    8  A    between atoms: C_7  and  O_8
REMARK    9  A    between atoms: C_10  and  O_11
REMARK   10  A    between atoms: O_11  and  C_12
REMARK   11  A    between atoms: C_12  and  C_13
REMARK   12  A    between atoms: C_13  and  O_14
REMARK   13  A    between atoms: O_14  and  C_15
REMARK   14  A    between atoms: C_15  and  C_16
REMARK   15  A    between atoms: C_16  and  O_17
REMARK                            x       y       z     vdW  Elec       q    Type
REMARK                         _______ _______ _______ _____ _____    ______ ____
ROOT
ATOM      1  C   UNL     1      33.928 -23.516 -15.997  0.00  0.00    +0.174 C 
ENDROOT
BRANCH   1   2
ATOM      2  O   UNL     1      34.476 -23.026 -17.213  0.00  0.00    -0.348 OA
BRANCH   2   3
ATOM      3  C   UNL     1      33.529 -23.087 -18.272  0.00  0.00    +0.174 C 
BRANCH   3   4
ATOM      4  C   UNL     1      33.937 -22.109 -19.357  0.00  0.00    +0.174 C 
BRANCH   4   5
ATOM      5  O   UNL     1      32.769 -21.590 -19.977  0.00  0.00    -0.348 OA
BRANCH   5   6
ATOM      6  C   UNL     1      32.973 -20.261 -20.443  0.00  0.00    +0.174 C 
BRANCH   6   7
ATOM      7  C   UNL     1      34.459 -20.028 -20.638  0.00  0.00    +0.174 C 
BRANCH   7   8
ATOM      8  O   UNL     1      34.645 -18.864 -21.436  0.00  0.00    -0.348 OA
ATOM      9  C   UNL     1      34.709 -19.186 -22.819  0.00  0.00    +0.174 C 
ENDBRANCH   7   8
ENDBRANCH   6   7
ENDBRANCH   5   6
ENDBRANCH   4   5
ENDBRANCH   3   4
ENDBRANCH   2   3
ENDBRANCH   1   2
BRANCH   1  10
ATOM     10  C   UNL     1      35.059 -23.907 -15.066  0.00  0.00    +0.174 C 
BRANCH  10  11
ATOM     11  O   UNL     1      36.269 -23.979 -15.810  0.00  0.00    -0.348 OA
BRANCH  11  12
ATOM     12  C   UNL     1      37.310 -23.243 -15.185  0.00  0.00    +0.174 C 
BRANCH  12  13
ATOM     13  C   UNL     1      37.125 -23.303 -13.681  0.00  0.00    +0.174 C 
BRANCH  13  14
ATOM     14  O   UNL     1      38.335 -23.747 -13.082  0.00  0.00    -0.348 OA
BRANCH  14  15
ATOM     15  C   UNL     1      38.342 -25.157 -12.904  0.00  0.00    +0.174 C 
BRANCH  15  16
ATOM     16  C   UNL     1      39.482 -25.752 -13.709  0.00  0.00    +0.174 C 
BRANCH  16  17
ATOM     17  O   UNL     1      38.949 -26.655 -14.670  0.00  0.00    -0.348 OA
ATOM     18  C   UNL     1      37.563 -26.886 -14.457  0.00  0.00    +0.174 C 
ENDBRANCH  16  17
ENDBRANCH  15  16
ENDBRANCH  14  15
ENDBRANCH  13  14
ENDBRANCH  12  13
ENDBRANCH  11  12
ENDBRANCH  10  11
ENDBRANCH   1  10
TORSDOF 15
ENDMDL
MODEL 8
REMARK VINA RESULT:      -5.5      1.871      2.612
REMARK  Name = 70931
REMARK  15 active torsions:
REMARK  status: ('A' for Active; 'I' for Inactive)
REMARK    1  A    between atoms: C_1  and  O_2
REMARK    2  A    between atoms: C_1  and  C_10
REMARK    3  A    between atoms: O_2  and  C_3
REMARK    4  A    between atoms: C_3  and  C_4
REMARK    5  A    between atoms: C_4  and  O_5
REMARK    6  A    between atoms: O_5  and  C_6
REMARK    7  A    between atoms: C_6  and  C_7
REMARK    8  A    between atoms: C_7  and  O_8
REMARK    9  A    between atoms: C_10  and  O_11
REMARK   10  A    between atoms: O_11  and  C_12
REMARK   11  A    between atoms: C_12  and  C_13
REMARK   12  A    between atoms: C_13  and  O_14
REMARK   13  A    between atoms: O_14  and  C_15
REMARK   14  A    between atoms: C_15  and  C_16
REMARK   15  A    between atoms: C_16  and  O_17
REMARK                            x       y       z     vdW  Elec       q    Type
REMARK                         _______ _______ _______ _____ _____    ______ ____
ROOT
ATOM      1  C   UNL     1      37.066 -22.280 -16.464  0.00  0.00    +0.174 C 
ENDROOT
BRANCH   1   2
ATOM      2  O   UNL     1      36.093 -22.423 -17.490  0.00  0.00    -0.348 OA
BRANCH   2   3
ATOM      3  C   UNL     1      36.392 -21.600 -18.611  0.00  0.00    +0.174 C 
BRANCH   3   4
ATOM      4  C   UNL     1      35.176 -21.532 -19.513  0.00  0.00    +0.174 C 
BRANCH   4   5
ATOM      5  O   UNL     1      35.075 -20.224 -20.058  0.00  0.00    -0.348 OA
BRANCH   5   6
ATOM      6  C   UNL     1      36.329 -19.765 -20.548  0.00  0.00    +0.174 C 
BRANCH   6   7
ATOM      7  C   UNL     1      36.104 -18.542 -21.415  0.00  0.00    +0.174 C 
BRANCH   7   8
ATOM      8  O   UNL     1      35.471 -17.532 -20.638  0.00  0.00    -0.348 OA
ATOM      9  C   UNL     1      34.710 -16.649 -21.452  0.00  0.00    +0.174 C 
ENDBRANCH   7   8
ENDBRANCH   6   7
ENDBRANCH   5   6
ENDBRANCH   4   5
ENDBRANCH   3   4
ENDBRANCH   2   3
ENDBRANCH   1   2
BRANCH   1  10
ATOM     10  C   UNL     1      36.500 -22.820 -15.166  0.00  0.00    +0.174 C 
BRANCH  10  11
ATOM     11  O   UNL     1      37.540 -22.883 -14.197  0.00  0.00    -0.348 OA
BRANCH  11  12
ATOM     12  C   UNL     1      37.038 -23.230 -12.915  0.00  0.00    +0.174 C 
BRANCH  12  13
ATOM     13  C   UNL     1      35.930 -24.253 -13.077  0.00  0.00    +0.174 C 
BRANCH  13  14
ATOM     14  O   UNL     1      36.249 -25.408 -12.312  0.00  0.00    -0.348 OA
BRANCH  14  15
ATOM     15  C   UNL     1      37.495 -25.967 -12.707  0.00  0.00    +0.174 C 
BRANCH  15  16
ATOM     16  C   UNL     1      37.282 -26.835 -13.931  0.00  0.00    +0.174 C 
BRANCH  16  17
ATOM     17  O   UNL     1      38.452 -26.792 -14.740  0.00  0.00    -0.348 OA
ATOM     18  C   UNL     1      39.379 -25.826 -14.265  0.00  0.00    +0.174 C 
ENDBRANCH  16  17
ENDBRANCH  15  16
ENDBRANCH  14  15
ENDBRANCH  13  14
ENDBRANCH  12  13
ENDBRANCH  11  12
ENDBRANCH  10  11
ENDBRANCH   1  10
TORSDOF 15
ENDMDL
MODEL 9
REMARK VINA RESULT:      -5.5      1.288      8.973
REMARK  Name = 70931
REMARK  15 active torsions:
REMARK  status: ('A' for Active; 'I' for Inactive)
REMARK    1  A    between atoms: C_1  and  O_2
REMARK    2  A    between atoms: C_1  and  C_10
REMARK    3  A    between atoms: O_2  and  C_3
REMARK    4  A    between atoms: C_3  and  C_4
REMARK    5  A    between atoms: C_4  and  O_5
REMARK    6  A    between atoms: O_5  and  C_6
REMARK    7  A    between atoms: C_6  and  C_7
REMARK    8  A    between atoms: C_7  and  O_8
REMARK    9  A    between atoms: C_10  and  O_11
REMARK   10  A    between atoms: O_11  and  C_12
REMARK   11  A    between atoms: C_12  and  C_13
REMARK   12  A    between atoms: C_13  and  O_14
REMARK   13  A    between atoms: O_14  and  C_15
REMARK   14  A    between atoms: C_15  and  C_16
REMARK   15  A    between atoms: C_16  and  O_17
REMARK                            x       y       z     vdW  Elec       q    Type
REMARK                         _______ _______ _______ _____ _____    ______ ____
ROOT
ATOM      1  C   UNL     1      33.443 -22.846 -18.151  0.00  0.00    +0.174 C 
ENDROOT
BRANCH   1   2
ATOM      2  O   UNL     1      34.410 -23.303 -17.216  0.00  0.00    -0.348 OA
BRANCH   2   3
ATOM      3  C   UNL     1      33.847 -23.455 -15.918  0.00  0.00    +0.174 C 
BRANCH   3   4
ATOM      4  C   UNL     1      34.774 -24.308 -15.074  0.00  0.00    +0.174 C 
BRANCH   4   5
ATOM      5  O   UNL     1      35.976 -24.539 -15.795  0.00  0.00    -0.348 OA
BRANCH   5   6
ATOM      6  C   UNL     1      37.018 -24.994 -14.939  0.00  0.00    +0.174 C 
BRANCH   6   7
ATOM      7  C   UNL     1      37.148 -26.499 -15.073  0.00  0.00    +0.174 C 
BRANCH   7   8
ATOM      8  O   UNL     1      38.472 -26.883 -14.721  0.00  0.00    -0.348 OA
ATOM      9  C   UNL     1      39.325 -25.754 -14.591  0.00  0.00    +0.174 C 
ENDBRANCH   7   8
ENDBRANCH   6   7
ENDBRANCH   5   6
ENDBRANCH   4   5
ENDBRANCH   3   4
ENDBRANCH   2   3
ENDBRANCH   1   2
BRANCH   1  10
ATOM     10  C   UNL     1      34.112 -21.909 -19.137  0.00  0.00    +0.174 C 
BRANCH  10  11
ATOM     11  O   UNL     1      33.112 -21.259 -19.912  0.00  0.00    -0.348 OA
BRANCH  11  12
ATOM     12  C   UNL     1      33.616 -20.087 -20.537  0.00  0.00    +0.174 C 
BRANCH  12  13
ATOM     13  C   UNL     1      35.129 -20.173 -20.604  0.00  0.00    +0.174 C 
BRANCH  13  14
ATOM     14  O   UNL     1      35.666 -18.858 -20.653  0.00  0.00    -0.348 OA
BRANCH  14  15
ATOM     15  C   UNL     1      34.820 -17.975 -21.378  0.00  0.00    +0.174 C 
BRANCH  15  16
ATOM     16  C   UNL     1      35.498 -17.601 -22.682  0.00  0.00    +0.174 C 
BRANCH  16  17
ATOM     17  O   UNL     1      35.395 -16.194 -22.872  0.00  0.00    -0.348 OA
ATOM     18  C   UNL     1      34.468 -15.613 -21.965  0.00  0.00    +0.174 C 
ENDBRANCH  16  17
ENDBRANCH  15  16
ENDBRANCH  14  15
ENDBRANCH  13  14
ENDBRANCH  12  13
ENDBRANCH  11  12
ENDBRANCH  10  11
ENDBRANCH   1  10
TORSDOF 15
ENDMDL
