MODEL 1
REMARK VINA RESULT:      -8.3      0.000      0.000
REMARK  Name = 10444661
REMARK  3 active torsions:
REMARK  status: ('A' for Active; 'I' for Inactive)
REMARK    1  A    between atoms: O_1  and  C_6
REMARK    2  A    between atoms: O_1  and  C_12
REMARK    3  A    between atoms: C_12  and  C_14
REMARK                            x       y       z     vdW  Elec       q    Type
REMARK                         _______ _______ _______ _____ _____    ______ ____
ROOT
ATOM      1  O   UNL     1      34.228 -16.539 -21.639  0.00  0.00    -0.449 OA
ENDROOT
BRANCH   1   6
ATOM      2  C   UNL     1      34.866 -19.591 -21.277  0.00  0.00    +0.003 C 
ATOM      3  C   UNL     1      34.833 -19.952 -22.779  0.00  0.00    +0.000 C 
ATOM      4  C   UNL     1      34.469 -18.767 -23.687  0.00  0.00    +0.004 C 
ATOM      5  C   UNL     1      35.754 -18.342 -21.047  0.00  0.00    +0.044 C 
ATOM      6  C   UNL     1      35.463 -17.162 -21.979  0.00  0.00    +0.169 C 
ATOM      7  C   UNL     1      35.420 -17.586 -23.446  0.00  0.00    +0.044 C 
ATOM      8  C   UNL     1      35.476 -20.774 -20.497  0.00  0.00    +0.000 C 
ATOM      9  C   UNL     1      33.439 -19.375 -20.739  0.00  0.00    +0.000 C 
ATOM     10  C   UNL     1      34.507 -19.189 -25.157  0.00  0.00    +0.000 C 
ENDBRANCH   1   6
BRANCH   1  12
ATOM     11  O   UNL     1      34.909 -15.286 -19.831  0.00  0.00    -0.245 OA
ATOM     12  C   UNL     1      34.320 -15.403 -20.894  0.00  0.00    +0.343 C 
BRANCH  12  14
ATOM     13  N   UNL     1      33.337 -12.865 -23.453  0.00  0.00    -0.242 NA
ATOM     14  C   UNL     1      33.591 -14.288 -21.549  0.00  0.00    +0.095 C 
ATOM     15  C   UNL     1      32.550 -13.673 -20.896  0.00  0.00    +0.010 C 
ATOM     16  C   UNL     1      33.958 -13.874 -22.802  0.00  0.00    +0.105 C 
ATOM     17  C   UNL     1      31.886 -12.631 -21.533  0.00  0.00    +0.021 C 
ATOM     18  C   UNL     1      32.314 -12.268 -22.800  0.00  0.00    +0.099 C 
ENDBRANCH  12  14
ENDBRANCH   1  12
TORSDOF 3
ENDMDL
MODEL 2
REMARK VINA RESULT:      -8.3      0.633      1.133
REMARK  Name = 10444661
REMARK  3 active torsions:
REMARK  status: ('A' for Active; 'I' for Inactive)
REMARK    1  A    between atoms: O_1  and  C_6
REMARK    2  A    between atoms: O_1  and  C_12
REMARK    3  A    between atoms: C_12  and  C_14
REMARK                            x       y       z     vdW  Elec       q    Type
REMARK                         _______ _______ _______ _____ _____    ______ ____
ROOT
ATOM      1  O   UNL     1      34.243 -16.555 -21.632  0.00  0.00    -0.449 OA
ENDROOT
BRANCH   1   6
ATOM      2  C   UNL     1      34.877 -19.608 -21.268  0.00  0.00    +0.003 C 
ATOM      3  C   UNL     1      34.842 -19.970 -22.771  0.00  0.00    +0.000 C 
ATOM      4  C   UNL     1      34.478 -18.786 -23.679  0.00  0.00    +0.004 C 
ATOM      5  C   UNL     1      35.767 -18.361 -21.041  0.00  0.00    +0.044 C 
ATOM      6  C   UNL     1      35.476 -17.181 -21.974  0.00  0.00    +0.169 C 
ATOM      7  C   UNL     1      35.431 -17.606 -23.441  0.00  0.00    +0.044 C 
ATOM      8  C   UNL     1      35.486 -20.792 -20.488  0.00  0.00    +0.000 C 
ATOM      9  C   UNL     1      33.451 -19.389 -20.729  0.00  0.00    +0.000 C 
ATOM     10  C   UNL     1      34.514 -19.209 -25.149  0.00  0.00    +0.000 C 
ENDBRANCH   1   6
BRANCH   1  12
ATOM     11  O   UNL     1      34.909 -15.230 -19.871  0.00  0.00    -0.245 OA
ATOM     12  C   UNL     1      34.339 -15.387 -20.941  0.00  0.00    +0.343 C 
BRANCH  12  14
ATOM     13  N   UNL     1      31.892 -12.666 -21.688  0.00  0.00    -0.242 NA
ATOM     14  C   UNL     1      33.644 -14.292 -21.662  0.00  0.00    +0.095 C 
ATOM     15  C   UNL     1      34.081 -13.906 -22.906  0.00  0.00    +0.010 C 
ATOM     16  C   UNL     1      32.569 -13.669 -21.086  0.00  0.00    +0.105 C 
ATOM     17  C   UNL     1      33.410 -12.878 -23.558  0.00  0.00    +0.021 C 
ATOM     18  C   UNL     1      32.332 -12.295 -22.912  0.00  0.00    +0.099 C 
ENDBRANCH  12  14
ENDBRANCH   1  12
TORSDOF 3
ENDMDL
MODEL 3
REMARK VINA RESULT:      -8.0      3.978      8.490
REMARK  Name = 10444661
REMARK  3 active torsions:
REMARK  status: ('A' for Active; 'I' for Inactive)
REMARK    1  A    between atoms: O_1  and  C_6
REMARK    2  A    between atoms: O_1  and  C_12
REMARK    3  A    between atoms: C_12  and  C_14
REMARK                            x       y       z     vdW  Elec       q    Type
REMARK                         _______ _______ _______ _____ _____    ______ ____
ROOT
ATOM      1  O   UNL     1      32.056 -10.391 -21.675  0.00  0.00    -0.449 OA
ENDROOT
BRANCH   1   6
ATOM      2  C   UNL     1      32.460  -7.301 -22.047  0.00  0.00    +0.003 C 
ATOM      3  C   UNL     1      33.594  -7.401 -23.094  0.00  0.00    +0.000 C 
ATOM      4  C   UNL     1      34.019  -8.846 -23.401  0.00  0.00    +0.004 C 
ATOM      5  C   UNL     1      31.279  -8.217 -22.451  0.00  0.00    +0.044 C 
ATOM      6  C   UNL     1      31.672  -9.649 -22.829  0.00  0.00    +0.169 C 
ATOM      7  C   UNL     1      32.811  -9.682 -23.846  0.00  0.00    +0.044 C 
ATOM      8  C   UNL     1      31.956  -5.843 -22.004  0.00  0.00    +0.000 C 
ATOM      9  C   UNL     1      32.987  -7.645 -20.641  0.00  0.00    +0.000 C 
ATOM     10  C   UNL     1      35.105  -8.865 -24.479  0.00  0.00    +0.000 C 
ENDBRANCH   1   6
BRANCH   1  12
ATOM     11  O   UNL     1      30.112 -11.385 -20.945  0.00  0.00    -0.245 OA
ATOM     12  C   UNL     1      31.261 -11.448 -21.355  0.00  0.00    +0.343 C 
BRANCH  12  14
ATOM     13  N   UNL     1      32.911 -14.311 -23.098  0.00  0.00    -0.242 NA
ATOM     14  C   UNL     1      31.982 -12.729 -21.566  0.00  0.00    +0.095 C 
ATOM     15  C   UNL     1      32.371 -13.482 -20.484  0.00  0.00    +0.010 C 
ATOM     16  C   UNL     1      32.259 -13.156 -22.837  0.00  0.00    +0.105 C 
ATOM     17  C   UNL     1      33.044 -14.676 -20.712  0.00  0.00    +0.021 C 
ATOM     18  C   UNL     1      33.288 -15.043 -22.025  0.00  0.00    +0.099 C 
ENDBRANCH  12  14
ENDBRANCH   1  12
TORSDOF 3
ENDMDL
MODEL 4
REMARK VINA RESULT:      -8.0      5.195      9.716
REMARK  Name = 10444661
REMARK  3 active torsions:
REMARK  status: ('A' for Active; 'I' for Inactive)
REMARK    1  A    between atoms: O_1  and  C_6
REMARK    2  A    between atoms: O_1  and  C_12
REMARK    3  A    between atoms: C_12  and  C_14
REMARK                            x       y       z     vdW  Elec       q    Type
REMARK                         _______ _______ _______ _____ _____    ______ ____
ROOT
ATOM      1  O   UNL     1      33.296  -9.008 -24.043  0.00  0.00    -0.449 OA
ENDROOT
BRANCH   1   6
ATOM      2  C   UNL     1      32.032  -6.140 -23.871  0.00  0.00    +0.003 C 
ATOM      3  C   UNL     1      32.009  -6.055 -22.328  0.00  0.00    +0.000 C 
ATOM      4  C   UNL     1      32.512  -7.332 -21.636  0.00  0.00    +0.004 C 
ATOM      5  C   UNL     1      33.429  -6.597 -24.360  0.00  0.00    +0.044 C 
ATOM      6  C   UNL     1      33.991  -7.830 -23.646  0.00  0.00    +0.169 C 
ATOM      7  C   UNL     1      33.920  -7.696 -22.126  0.00  0.00    +0.044 C 
ATOM      8  C   UNL     1      31.747  -4.737 -24.448  0.00  0.00    +0.000 C 
ATOM      9  C   UNL     1      30.921  -7.078 -24.380  0.00  0.00    +0.000 C 
ATOM     10  C   UNL     1      32.507  -7.152 -20.116  0.00  0.00    +0.000 C 
ENDBRANCH   1   6
BRANCH   1  12
ATOM     11  O   UNL     1      35.127 -10.141 -24.857  0.00  0.00    -0.245 OA
ATOM     12  C   UNL     1      34.064 -10.111 -24.255  0.00  0.00    +0.343 C 
BRANCH  12  14
ATOM     13  N   UNL     1      33.282 -13.695 -23.555  0.00  0.00    -0.242 NA
ATOM     14  C   UNL     1      33.435 -11.312 -23.652  0.00  0.00    +0.095 C 
ATOM     15  C   UNL     1      32.474 -11.167 -22.680  0.00  0.00    +0.010 C 
ATOM     16  C   UNL     1      33.815 -12.562 -24.063  0.00  0.00    +0.105 C 
ATOM     17  C   UNL     1      31.902 -12.309 -22.133  0.00  0.00    +0.021 C 
ATOM     18  C   UNL     1      32.337 -13.540 -22.600  0.00  0.00    +0.099 C 
ENDBRANCH  12  14
ENDBRANCH   1  12
TORSDOF 3
ENDMDL
MODEL 5
REMARK VINA RESULT:      -7.8      9.054     10.715
REMARK  Name = 10444661
REMARK  3 active torsions:
REMARK  status: ('A' for Active; 'I' for Inactive)
REMARK    1  A    between atoms: O_1  and  C_6
REMARK    2  A    between atoms: O_1  and  C_12
REMARK    3  A    between atoms: C_12  and  C_14
REMARK                            x       y       z     vdW  Elec       q    Type
REMARK                         _______ _______ _______ _____ _____    ______ ____
ROOT
ATOM      1  O   UNL     1      33.983 -24.406 -14.658  0.00  0.00    -0.449 OA
ENDROOT
BRANCH   1   6
ATOM      2  C   UNL     1      37.002 -25.186 -14.302  0.00  0.00    +0.003 C 
ATOM      3  C   UNL     1      37.575 -24.066 -15.199  0.00  0.00    +0.000 C 
ATOM      4  C   UNL     1      36.495 -23.193 -15.856  0.00  0.00    +0.004 C 
ATOM      5  C   UNL     1      35.989 -24.594 -13.290  0.00  0.00    +0.044 C 
ATOM      6  C   UNL     1      34.935 -23.665 -13.901  0.00  0.00    +0.169 C 
ATOM      7  C   UNL     1      35.560 -22.596 -14.795  0.00  0.00    +0.044 C 
ATOM      8  C   UNL     1      38.162 -25.829 -13.513  0.00  0.00    +0.000 C 
ATOM      9  C   UNL     1      36.361 -26.294 -15.159  0.00  0.00    +0.000 C 
ATOM     10  C   UNL     1      37.139 -22.079 -16.684  0.00  0.00    +0.000 C 
ENDBRANCH   1   6
BRANCH   1  12
ATOM     11  O   UNL     1      32.456 -25.107 -13.083  0.00  0.00    -0.245 OA
ATOM     12  C   UNL     1      32.741 -24.512 -14.112  0.00  0.00    +0.343 C 
BRANCH  12  14
ATOM     13  N   UNL     1      31.205 -22.736 -17.017  0.00  0.00    -0.242 NA
ATOM     14  C   UNL     1      31.739 -23.800 -14.945  0.00  0.00    +0.095 C 
ATOM     15  C   UNL     1      30.483 -23.555 -14.445  0.00  0.00    +0.010 C 
ATOM     16  C   UNL     1      32.069 -23.389 -16.208  0.00  0.00    +0.105 C 
ATOM     17  C   UNL     1      29.566 -22.886 -15.247  0.00  0.00    +0.021 C 
ATOM     18  C   UNL     1      29.972 -22.501 -16.514  0.00  0.00    +0.099 C 
ENDBRANCH  12  14
ENDBRANCH   1  12
TORSDOF 3
ENDMDL
MODEL 6
REMARK VINA RESULT:      -7.8      3.358      6.334
REMARK  Name = 10444661
REMARK  3 active torsions:
REMARK  status: ('A' for Active; 'I' for Inactive)
REMARK    1  A    between atoms: O_1  and  C_6
REMARK    2  A    between atoms: O_1  and  C_12
REMARK    3  A    between atoms: C_12  and  C_14
REMARK                            x       y       z     vdW  Elec       q    Type
REMARK                         _______ _______ _______ _____ _____    ______ ____
ROOT
ATOM      1  O   UNL     1      35.271 -19.127 -21.279  0.00  0.00    -0.449 OA
ENDROOT
BRANCH   1   6
ATOM      2  C   UNL     1      34.692 -17.361 -23.809  0.00  0.00    +0.003 C 
ATOM      3  C   UNL     1      33.843 -16.293 -23.082  0.00  0.00    +0.000 C 
ATOM      4  C   UNL     1      33.631 -16.590 -21.589  0.00  0.00    +0.004 C 
ATOM      5  C   UNL     1      36.011 -17.612 -23.036  0.00  0.00    +0.044 C 
ATOM      6  C   UNL     1      35.843 -17.847 -21.532  0.00  0.00    +0.169 C 
ATOM      7  C   UNL     1      34.977 -16.774 -20.876  0.00  0.00    +0.044 C 
ATOM      8  C   UNL     1      35.043 -16.839 -25.218  0.00  0.00    +0.000 C 
ATOM      9  C   UNL     1      33.888 -18.662 -23.990  0.00  0.00    +0.000 C 
ATOM     10  C   UNL     1      32.828 -15.467 -20.931  0.00  0.00    +0.000 C 
ENDBRANCH   1   6
BRANCH   1  12
ATOM     11  O   UNL     1      37.236 -19.992 -20.449  0.00  0.00    -0.245 OA
ATOM     12  C   UNL     1      36.016 -19.974 -20.519  0.00  0.00    +0.343 C 
BRANCH  12  14
ATOM     13  N   UNL     1      34.960 -22.692 -18.185  0.00  0.00    -0.242 NA
ATOM     14  C   UNL     1      35.143 -20.907 -19.763  0.00  0.00    +0.095 C 
ATOM     15  C   UNL     1      33.780 -20.854 -19.928  0.00  0.00    +0.010 C 
ATOM     16  C   UNL     1      35.698 -21.816 -18.903  0.00  0.00    +0.105 C 
ATOM     17  C   UNL     1      32.988 -21.739 -19.208  0.00  0.00    +0.021 C 
ATOM     18  C   UNL     1      33.620 -22.631 -18.356  0.00  0.00    +0.099 C 
ENDBRANCH  12  14
ENDBRANCH   1  12
TORSDOF 3
ENDMDL
MODEL 7
REMARK VINA RESULT:      -7.8      1.240      1.758
REMARK  Name = 10444661
REMARK  3 active torsions:
REMARK  status: ('A' for Active; 'I' for Inactive)
REMARK    1  A    between atoms: O_1  and  C_6
REMARK    2  A    between atoms: O_1  and  C_12
REMARK    3  A    between atoms: C_12  and  C_14
REMARK                            x       y       z     vdW  Elec       q    Type
REMARK                         _______ _______ _______ _____ _____    ______ ____
ROOT
ATOM      1  O   UNL     1      34.239 -16.536 -21.941  0.00  0.00    -0.449 OA
ENDROOT
BRANCH   1   6
ATOM      2  C   UNL     1      34.732 -19.518 -21.097  0.00  0.00    +0.003 C 
ATOM      3  C   UNL     1      34.882 -20.079 -22.530  0.00  0.00    +0.000 C 
ATOM      4  C   UNL     1      34.673 -19.023 -23.627  0.00  0.00    +0.004 C 
ATOM      5  C   UNL     1      35.621 -18.262 -20.920  0.00  0.00    +0.044 C 
ATOM      6  C   UNL     1      35.487 -17.215 -22.031  0.00  0.00    +0.169 C 
ATOM      7  C   UNL     1      35.621 -17.833 -23.421  0.00  0.00    +0.044 C 
ATOM      8  C   UNL     1      35.200 -20.594 -20.094  0.00  0.00    +0.000 C 
ATOM      9  C   UNL     1      33.254 -19.214 -20.785  0.00  0.00    +0.000 C 
ATOM     10  C   UNL     1      34.887 -19.641 -25.010  0.00  0.00    +0.000 C 
ENDBRANCH   1   6
BRANCH   1  12
ATOM     11  O   UNL     1      34.618 -14.515 -20.905  0.00  0.00    -0.245 OA
ATOM     12  C   UNL     1      34.303 -15.178 -21.882  0.00  0.00    +0.343 C 
BRANCH  12  14
ATOM     13  N   UNL     1      33.600 -12.608 -24.500  0.00  0.00    -0.242 NA
ATOM     14  C   UNL     1      33.929 -14.578 -23.187  0.00  0.00    +0.095 C 
ATOM     15  C   UNL     1      33.584 -15.391 -24.240  0.00  0.00    +0.010 C 
ATOM     16  C   UNL     1      33.929 -13.217 -23.339  0.00  0.00    +0.105 C 
ATOM     17  C   UNL     1      33.239 -14.802 -25.451  0.00  0.00    +0.021 C 
ATOM     18  C   UNL     1      33.262 -13.418 -25.529  0.00  0.00    +0.099 C 
ENDBRANCH  12  14
ENDBRANCH   1  12
TORSDOF 3
ENDMDL
MODEL 8
REMARK VINA RESULT:      -7.7      5.074      9.492
REMARK  Name = 10444661
REMARK  3 active torsions:
REMARK  status: ('A' for Active; 'I' for Inactive)
REMARK    1  A    between atoms: O_1  and  C_6
REMARK    2  A    between atoms: O_1  and  C_12
REMARK    3  A    between atoms: C_12  and  C_14
REMARK                            x       y       z     vdW  Elec       q    Type
REMARK                         _______ _______ _______ _____ _____    ______ ____
ROOT
ATOM      1  O   UNL     1      31.728  -8.990 -21.071  0.00  0.00    -0.449 OA
ENDROOT
BRANCH   1   6
ATOM      2  C   UNL     1      33.106  -7.350 -23.365  0.00  0.00    +0.003 C 
ATOM      3  C   UNL     1      32.279  -6.058 -23.172  0.00  0.00    +0.000 C 
ATOM      4  C   UNL     1      31.203  -6.175 -22.081  0.00  0.00    +0.004 C 
ATOM      5  C   UNL     1      33.660  -7.837 -22.003  0.00  0.00    +0.044 C 
ATOM      6  C   UNL     1      32.628  -7.905 -20.873  0.00  0.00    +0.169 C 
ATOM      7  C   UNL     1      31.828  -6.609 -20.748  0.00  0.00    +0.044 C 
ATOM      8  C   UNL     1      34.297  -7.039 -24.295  0.00  0.00    +0.000 C 
ATOM      9  C   UNL     1      32.260  -8.438 -24.053  0.00  0.00    +0.000 C 
ATOM     10  C   UNL     1      30.464  -4.846 -21.914  0.00  0.00    +0.000 C 
ENDBRANCH   1   6
BRANCH   1  12
ATOM     11  O   UNL     1      31.689  -9.836 -18.930  0.00  0.00    -0.245 OA
ATOM     12  C   UNL     1      31.776  -9.982 -20.140  0.00  0.00    +0.343 C 
BRANCH  12  14
ATOM     13  N   UNL     1      32.100 -12.573 -22.811  0.00  0.00    -0.242 NA
ATOM     14  C   UNL     1      31.955 -11.304 -20.791  0.00  0.00    +0.095 C 
ATOM     15  C   UNL     1      32.135 -12.427 -20.020  0.00  0.00    +0.010 C 
ATOM     16  C   UNL     1      31.942 -11.401 -22.157  0.00  0.00    +0.105 C 
ATOM     17  C   UNL     1      32.300 -13.652 -20.657  0.00  0.00    +0.021 C 
ATOM     18  C   UNL     1      32.275 -13.672 -22.042  0.00  0.00    +0.099 C 
ENDBRANCH  12  14
ENDBRANCH   1  12
TORSDOF 3
ENDMDL
MODEL 9
REMARK VINA RESULT:      -7.7      3.014      6.027
REMARK  Name = 10444661
REMARK  3 active torsions:
REMARK  status: ('A' for Active; 'I' for Inactive)
REMARK    1  A    between atoms: O_1  and  C_6
REMARK    2  A    between atoms: O_1  and  C_12
REMARK    3  A    between atoms: C_12  and  C_14
REMARK                            x       y       z     vdW  Elec       q    Type
REMARK                         _______ _______ _______ _____ _____    ______ ____
ROOT
ATOM      1  O   UNL     1      35.338 -17.896 -20.777  0.00  0.00    -0.449 OA
ENDROOT
BRANCH   1   6
ATOM      2  C   UNL     1      33.583 -15.406 -21.532  0.00  0.00    +0.003 C 
ATOM      3  C   UNL     1      33.857 -15.458 -23.052  0.00  0.00    +0.000 C 
ATOM      4  C   UNL     1      34.835 -16.571 -23.462  0.00  0.00    +0.004 C 
ATOM      5  C   UNL     1      33.172 -16.807 -21.015  0.00  0.00    +0.044 C 
ATOM      6  C   UNL     1      34.088 -17.953 -21.458  0.00  0.00    +0.169 C 
ATOM      7  C   UNL     1      34.340 -17.936 -22.965  0.00  0.00    +0.044 C 
ATOM      8  C   UNL     1      32.417 -14.428 -21.273  0.00  0.00    +0.000 C 
ATOM      9  C   UNL     1      34.812 -14.864 -20.777  0.00  0.00    +0.000 C 
ATOM     10  C   UNL     1      35.014 -16.590 -24.981  0.00  0.00    +0.000 C 
ENDBRANCH   1   6
BRANCH   1  12
ATOM     11  O   UNL     1      37.203 -19.043 -21.488  0.00  0.00    -0.245 OA
ATOM     12  C   UNL     1      36.133 -18.994 -20.900  0.00  0.00    +0.343 C 
BRANCH  12  14
ATOM     13  N   UNL     1      35.826 -22.096 -18.842  0.00  0.00    -0.242 NA
ATOM     14  C   UNL     1      35.526 -20.161 -20.213  0.00  0.00    +0.095 C 
ATOM     15  C   UNL     1      34.173 -20.382 -20.305  0.00  0.00    +0.010 C 
ATOM     16  C   UNL     1      36.315 -21.015 -19.490  0.00  0.00    +0.105 C 
ATOM     17  C   UNL     1      33.632 -21.483 -19.652  0.00  0.00    +0.021 C 
ATOM     18  C   UNL     1      34.493 -22.302 -18.940  0.00  0.00    +0.099 C 
ENDBRANCH  12  14
ENDBRANCH   1  12
TORSDOF 3
ENDMDL
