MODEL 1
REMARK VINA RESULT:      -6.5      0.000      0.000
REMARK  Name = 7419
REMARK  3 active torsions:
REMARK  status: ('A' for Active; 'I' for Inactive)
REMARK    1  A    between atoms: C_1  and  C_11
REMARK    2  A    between atoms: C_2  and  N_7
REMARK    3  A    between atoms: C_11  and  O_12
REMARK                            x       y       z     vdW  Elec       q    Type
REMARK                         _______ _______ _______ _____ _____    ______ ____
ROOT
ATOM      1  C   UNL     1      34.379 -21.305 -19.681  0.00  0.00    +0.077 C 
ATOM      2  C   UNL     1      35.272 -19.449 -20.944  0.00  0.00    +0.042 C 
ATOM      3  C   UNL     1      35.474 -20.598 -20.179  0.00  0.00    +0.021 C 
ATOM      4  C   UNL     1      33.083 -20.864 -19.948  0.00  0.00    +0.007 C 
ATOM      5  C   UNL     1      33.976 -19.008 -21.211  0.00  0.00    +0.014 C 
ATOM      6  C   UNL     1      32.882 -19.715 -20.714  0.00  0.00    +0.001 C 
ENDROOT
BRANCH   2   7
ATOM      7  N   UNL     1      36.379 -18.733 -21.447  0.00  0.00    -0.357 N 
ATOM      8  H   UNL     1      37.292 -19.063 -21.286  0.00  0.00    +0.142 HD
ATOM      9  H   UNL     1      36.237 -17.905 -21.960  0.00  0.00    +0.142 HD
ENDBRANCH   2   7
BRANCH   1  11
ATOM     10  O   UNL     1      35.271 -22.569 -17.856  0.00  0.00    -0.245 OA
ATOM     11  C   UNL     1      34.588 -22.503 -18.883  0.00  0.00    +0.338 C 
BRANCH  11  12
ATOM     12  O   UNL     1      33.937 -23.586 -19.390  0.00  0.00    -0.477 OA
ATOM     13  H   UNL     1      33.011 -23.553 -19.531  0.00  0.00    +0.295 HD
ENDBRANCH  11  12
ENDBRANCH   1  11
TORSDOF 3
ENDMDL
MODEL 2
REMARK VINA RESULT:      -6.2      1.278      2.147
REMARK  Name = 7419
REMARK  3 active torsions:
REMARK  status: ('A' for Active; 'I' for Inactive)
REMARK    1  A    between atoms: C_1  and  C_11
REMARK    2  A    between atoms: C_2  and  N_7
REMARK    3  A    between atoms: C_11  and  O_12
REMARK                            x       y       z     vdW  Elec       q    Type
REMARK                         _______ _______ _______ _____ _____    ______ ____
ROOT
ATOM      1  C   UNL     1      34.458 -21.242 -19.778  0.00  0.00    +0.077 C 
ATOM      2  C   UNL     1      34.793 -19.195 -21.017  0.00  0.00    +0.042 C 
ATOM      3  C   UNL     1      33.936 -20.164 -20.493  0.00  0.00    +0.021 C 
ATOM      4  C   UNL     1      35.835 -21.352 -19.586  0.00  0.00    +0.007 C 
ATOM      5  C   UNL     1      36.169 -19.304 -20.825  0.00  0.00    +0.014 C 
ATOM      6  C   UNL     1      36.691 -20.383 -20.109  0.00  0.00    +0.001 C 
ENDROOT
BRANCH   2   7
ATOM      7  N   UNL     1      34.265 -18.105 -21.740  0.00  0.00    -0.357 N 
ATOM      8  H   UNL     1      33.997 -18.221 -22.679  0.00  0.00    +0.142 HD
ATOM      9  H   UNL     1      34.166 -17.227 -21.304  0.00  0.00    +0.142 HD
ENDBRANCH   2   7
BRANCH   1  11
ATOM     10  O   UNL     1      32.497 -22.029 -18.656  0.00  0.00    -0.245 OA
ATOM     11  C   UNL     1      33.566 -22.253 -19.232  0.00  0.00    +0.338 C 
BRANCH  11  12
ATOM     12  O   UNL     1      34.034 -23.518 -19.421  0.00  0.00    -0.477 OA
ATOM     13  H   UNL     1      33.909 -24.168 -18.758  0.00  0.00    +0.295 HD
ENDBRANCH  11  12
ENDBRANCH   1  11
TORSDOF 3
ENDMDL
MODEL 3
REMARK VINA RESULT:      -6.2      3.301      4.256
REMARK  Name = 7419
REMARK  3 active torsions:
REMARK  status: ('A' for Active; 'I' for Inactive)
REMARK    1  A    between atoms: C_1  and  C_11
REMARK    2  A    between atoms: C_2  and  N_7
REMARK    3  A    between atoms: C_11  and  O_12
REMARK                            x       y       z     vdW  Elec       q    Type
REMARK                         _______ _______ _______ _____ _____    ______ ____
ROOT
ATOM      1  C   UNL     1      34.585 -19.901 -20.750  0.00  0.00    +0.077 C 
ATOM      2  C   UNL     1      33.724 -21.611 -19.274  0.00  0.00    +0.042 C 
ATOM      3  C   UNL     1      33.503 -20.551 -20.154  0.00  0.00    +0.021 C 
ATOM      4  C   UNL     1      35.888 -20.312 -20.465  0.00  0.00    +0.007 C 
ATOM      5  C   UNL     1      35.026 -22.021 -18.990  0.00  0.00    +0.014 C 
ATOM      6  C   UNL     1      36.108 -21.371 -19.585  0.00  0.00    +0.001 C 
ENDROOT
BRANCH   2   7
ATOM      7  N   UNL     1      32.630 -22.267 -18.672  0.00  0.00    -0.357 N 
ATOM      8  H   UNL     1      31.991 -21.757 -18.125  0.00  0.00    +0.142 HD
ATOM      9  H   UNL     1      32.507 -23.235 -18.800  0.00  0.00    +0.142 HD
ENDBRANCH   2   7
BRANCH   1  11
ATOM     10  O   UNL     1      34.089 -17.637 -21.339  0.00  0.00    -0.245 OA
ATOM     11  C   UNL     1      34.356 -18.797 -21.667  0.00  0.00    +0.338 C 
BRANCH  11  12
ATOM     12  O   UNL     1      34.468 -19.172 -22.972  0.00  0.00    -0.477 OA
ATOM     13  H   UNL     1      33.836 -18.880 -23.599  0.00  0.00    +0.295 HD
ENDBRANCH  11  12
ENDBRANCH   1  11
TORSDOF 3
ENDMDL
MODEL 4
REMARK VINA RESULT:      -6.1      8.344      9.122
REMARK  Name = 7419
REMARK  3 active torsions:
REMARK  status: ('A' for Active; 'I' for Inactive)
REMARK    1  A    between atoms: C_1  and  C_11
REMARK    2  A    between atoms: C_2  and  N_7
REMARK    3  A    between atoms: C_11  and  O_12
REMARK                            x       y       z     vdW  Elec       q    Type
REMARK                         _______ _______ _______ _____ _____    ______ ____
ROOT
ATOM      1  C   UNL     1      39.045 -25.758 -14.189  0.00  0.00    +0.077 C 
ATOM      2  C   UNL     1      36.634 -25.802 -14.346  0.00  0.00    +0.042 C 
ATOM      3  C   UNL     1      37.885 -26.157 -14.853  0.00  0.00    +0.021 C 
ATOM      4  C   UNL     1      38.955 -25.004 -13.019  0.00  0.00    +0.007 C 
ATOM      5  C   UNL     1      36.544 -25.049 -13.177  0.00  0.00    +0.014 C 
ATOM      6  C   UNL     1      37.705 -24.649 -12.513  0.00  0.00    +0.001 C 
ENDROOT
BRANCH   2   7
ATOM      7  N   UNL     1      35.461 -26.206 -15.018  0.00  0.00    -0.357 N 
ATOM      8  H   UNL     1      35.434 -27.072 -15.484  0.00  0.00    +0.142 HD
ATOM      9  H   UNL     1      34.669 -25.621 -15.020  0.00  0.00    +0.142 HD
ENDBRANCH   2   7
BRANCH   1  11
ATOM     10  O   UNL     1      41.277 -26.608 -14.059  0.00  0.00    -0.245 OA
ATOM     11  C   UNL     1      40.349 -26.128 -14.717  0.00  0.00    +0.338 C 
BRANCH  11  12
ATOM     12  O   UNL     1      40.457 -25.888 -16.053  0.00  0.00    -0.477 OA
ATOM     13  H   UNL     1      39.736 -25.517 -16.523  0.00  0.00    +0.295 HD
ENDBRANCH  11  12
ENDBRANCH   1  11
TORSDOF 3
ENDMDL
MODEL 5
REMARK VINA RESULT:      -6.1      8.476      9.194
REMARK  Name = 7419
REMARK  3 active torsions:
REMARK  status: ('A' for Active; 'I' for Inactive)
REMARK    1  A    between atoms: C_1  and  C_11
REMARK    2  A    between atoms: C_2  and  N_7
REMARK    3  A    between atoms: C_11  and  O_12
REMARK                            x       y       z     vdW  Elec       q    Type
REMARK                         _______ _______ _______ _____ _____    ______ ____
ROOT
ATOM      1  C   UNL     1      39.006 -25.732 -14.212  0.00  0.00    +0.077 C 
ATOM      2  C   UNL     1      37.676 -24.610 -12.536  0.00  0.00    +0.042 C 
ATOM      3  C   UNL     1      38.923 -24.980 -13.040  0.00  0.00    +0.021 C 
ATOM      4  C   UNL     1      37.842 -26.114 -14.881  0.00  0.00    +0.007 C 
ATOM      5  C   UNL     1      36.513 -24.991 -13.203  0.00  0.00    +0.014 C 
ATOM      6  C   UNL     1      36.596 -25.743 -14.376  0.00  0.00    +0.001 C 
ENDROOT
BRANCH   2   7
ATOM      7  N   UNL     1      37.592 -23.850 -11.350  0.00  0.00    -0.357 N 
ATOM      8  H   UNL     1      37.797 -24.267 -10.483  0.00  0.00    +0.142 HD
ATOM      9  H   UNL     1      37.329 -22.902 -11.391  0.00  0.00    +0.142 HD
ENDBRANCH   2   7
BRANCH   1  11
ATOM     10  O   UNL     1      41.234 -26.592 -14.077  0.00  0.00    -0.245 OA
ATOM     11  C   UNL     1      40.305 -26.118 -14.739  0.00  0.00    +0.338 C 
BRANCH  11  12
ATOM     12  O   UNL     1      40.409 -25.902 -16.080  0.00  0.00    -0.477 OA
ATOM     13  H   UNL     1      40.232 -25.052 -16.432  0.00  0.00    +0.295 HD
ENDBRANCH  11  12
ENDBRANCH   1  11
TORSDOF 3
ENDMDL
MODEL 6
REMARK VINA RESULT:      -6.0      6.857      7.879
REMARK  Name = 7419
REMARK  3 active torsions:
REMARK  status: ('A' for Active; 'I' for Inactive)
REMARK    1  A    between atoms: C_1  and  C_11
REMARK    2  A    between atoms: C_2  and  N_7
REMARK    3  A    between atoms: C_11  and  O_12
REMARK                            x       y       z     vdW  Elec       q    Type
REMARK                         _______ _______ _______ _____ _____    ______ ____
ROOT
ATOM      1  C   UNL     1      29.482 -23.223 -16.175  0.00  0.00    +0.077 C 
ATOM      2  C   UNL     1      30.524 -24.303 -14.280  0.00  0.00    +0.042 C 
ATOM      3  C   UNL     1      29.376 -23.968 -14.999  0.00  0.00    +0.021 C 
ATOM      4  C   UNL     1      30.735 -22.813 -16.631  0.00  0.00    +0.007 C 
ATOM      5  C   UNL     1      31.776 -23.893 -14.736  0.00  0.00    +0.014 C 
ATOM      6  C   UNL     1      31.882 -23.148 -15.911  0.00  0.00    +0.001 C 
ENDROOT
BRANCH   2   7
ATOM      7  N   UNL     1      30.417 -25.056 -13.092  0.00  0.00    -0.357 N 
ATOM      8  H   UNL     1      29.870 -24.721 -12.346  0.00  0.00    +0.142 HD
ATOM      9  H   UNL     1      30.889 -25.915 -13.011  0.00  0.00    +0.142 HD
ENDBRANCH   2   7
BRANCH   1  11
ATOM     10  O   UNL     1      27.795 -21.743 -17.002  0.00  0.00    -0.245 OA
ATOM     11  C   UNL     1      28.287 -22.873 -16.925  0.00  0.00    +0.338 C 
BRANCH  11  12
ATOM     12  O   UNL     1      27.738 -23.946 -17.560  0.00  0.00    -0.477 OA
ATOM     13  H   UNL     1      26.898 -24.267 -17.296  0.00  0.00    +0.295 HD
ENDBRANCH  11  12
ENDBRANCH   1  11
TORSDOF 3
ENDMDL
MODEL 7
REMARK VINA RESULT:      -6.0      3.391      4.084
REMARK  Name = 7419
REMARK  3 active torsions:
REMARK  status: ('A' for Active; 'I' for Inactive)
REMARK    1  A    between atoms: C_1  and  C_11
REMARK    2  A    between atoms: C_2  and  N_7
REMARK    3  A    between atoms: C_11  and  O_12
REMARK                            x       y       z     vdW  Elec       q    Type
REMARK                         _______ _______ _______ _____ _____    ______ ____
ROOT
ATOM      1  C   UNL     1      34.823 -19.172 -21.315  0.00  0.00    +0.077 C 
ATOM      2  C   UNL     1      35.497 -20.940 -19.812  0.00  0.00    +0.042 C 
ATOM      3  C   UNL     1      35.829 -19.883 -20.660  0.00  0.00    +0.021 C 
ATOM      4  C   UNL     1      33.485 -19.519 -21.123  0.00  0.00    +0.007 C 
ATOM      5  C   UNL     1      34.160 -21.287 -19.620  0.00  0.00    +0.014 C 
ATOM      6  C   UNL     1      33.154 -20.576 -20.275  0.00  0.00    +0.001 C 
ENDROOT
BRANCH   2   7
ATOM      7  N   UNL     1      36.515 -21.659 -19.150  0.00  0.00    -0.357 N 
ATOM      8  H   UNL     1      36.736 -21.449 -18.214  0.00  0.00    +0.142 HD
ATOM      9  H   UNL     1      37.003 -22.370 -19.624  0.00  0.00    +0.142 HD
ENDBRANCH   2   7
BRANCH   1  11
ATOM     10  O   UNL     1      34.445 -17.101 -22.450  0.00  0.00    -0.245 OA
ATOM     11  C   UNL     1      35.167 -18.070 -22.199  0.00  0.00    +0.338 C 
BRANCH  11  12
ATOM     12  O   UNL     1      36.407 -18.209 -22.745  0.00  0.00    -0.477 OA
ATOM     13  H   UNL     1      36.805 -19.056 -22.796  0.00  0.00    +0.295 HD
ENDBRANCH  11  12
ENDBRANCH   1  11
TORSDOF 3
ENDMDL
MODEL 8
REMARK VINA RESULT:      -5.9      5.078      6.241
REMARK  Name = 7419
REMARK  3 active torsions:
REMARK  status: ('A' for Active; 'I' for Inactive)
REMARK    1  A    between atoms: C_1  and  C_11
REMARK    2  A    between atoms: C_2  and  N_7
REMARK    3  A    between atoms: C_11  and  O_12
REMARK                            x       y       z     vdW  Elec       q    Type
REMARK                         _______ _______ _______ _____ _____    ______ ____
ROOT
ATOM      1  C   UNL     1      34.551 -16.591 -23.777  0.00  0.00    +0.077 C 
ATOM      2  C   UNL     1      35.189 -17.385 -21.586  0.00  0.00    +0.042 C 
ATOM      3  C   UNL     1      35.060 -17.600 -22.958  0.00  0.00    +0.021 C 
ATOM      4  C   UNL     1      34.171 -15.368 -23.223  0.00  0.00    +0.007 C 
ATOM      5  C   UNL     1      34.810 -16.163 -21.033  0.00  0.00    +0.014 C 
ATOM      6  C   UNL     1      34.301 -15.154 -21.851  0.00  0.00    +0.001 C 
ENDROOT
BRANCH   2   7
ATOM      7  N   UNL     1      35.704 -18.405 -20.759  0.00  0.00    -0.357 N 
ATOM      8  H   UNL     1      35.853 -18.234 -19.801  0.00  0.00    +0.142 HD
ATOM      9  H   UNL     1      35.914 -19.289 -21.139  0.00  0.00    +0.142 HD
ENDBRANCH   2   7
BRANCH   1  11
ATOM     10  O   UNL     1      34.176 -15.941 -26.048  0.00  0.00    -0.245 OA
ATOM     11  C   UNL     1      34.415 -16.813 -25.208  0.00  0.00    +0.338 C 
BRANCH  11  12
ATOM     12  O   UNL     1      34.583 -18.121 -25.550  0.00  0.00    -0.477 OA
ATOM     13  H   UNL     1      35.299 -18.611 -25.192  0.00  0.00    +0.295 HD
ENDBRANCH  11  12
ENDBRANCH   1  11
TORSDOF 3
ENDMDL
MODEL 9
REMARK VINA RESULT:      -5.9      5.524      6.651
REMARK  Name = 7419
REMARK  3 active torsions:
REMARK  status: ('A' for Active; 'I' for Inactive)
REMARK    1  A    between atoms: C_1  and  C_11
REMARK    2  A    between atoms: C_2  and  N_7
REMARK    3  A    between atoms: C_11  and  O_12
REMARK                            x       y       z     vdW  Elec       q    Type
REMARK                         _______ _______ _______ _____ _____    ______ ____
ROOT
ATOM      1  C   UNL     1      34.328 -16.820 -24.339  0.00  0.00    +0.077 C 
ATOM      2  C   UNL     1      35.043 -17.713 -22.211  0.00  0.00    +0.042 C 
ATOM      3  C   UNL     1      34.617 -16.635 -22.987  0.00  0.00    +0.021 C 
ATOM      4  C   UNL     1      34.466 -18.083 -24.916  0.00  0.00    +0.007 C 
ATOM      5  C   UNL     1      35.181 -18.976 -22.787  0.00  0.00    +0.014 C 
ATOM      6  C   UNL     1      34.893 -19.160 -24.140  0.00  0.00    +0.001 C 
ENDROOT
BRANCH   2   7
ATOM      7  N   UNL     1      35.334 -17.526 -20.843  0.00  0.00    -0.357 N 
ATOM      8  H   UNL     1      36.238 -17.716 -20.503  0.00  0.00    +0.142 HD
ATOM      9  H   UNL     1      34.634 -17.206 -20.230  0.00  0.00    +0.142 HD
ENDBRANCH   2   7
BRANCH   1  11
ATOM     10  O   UNL     1      33.752 -15.707 -26.377  0.00  0.00    -0.245 OA
ATOM     11  C   UNL     1      33.884 -15.697 -25.149  0.00  0.00    +0.338 C 
BRANCH  11  12
ATOM     12  O   UNL     1      33.615 -14.590 -24.402  0.00  0.00    -0.477 OA
ATOM     13  H   UNL     1      32.950 -14.621 -23.742  0.00  0.00    +0.295 HD
ENDBRANCH  11  12
ENDBRANCH   1  11
TORSDOF 3
ENDMDL
