MODEL 1
REMARK VINA RESULT:      -5.4      0.000      0.000
REMARK  Name = 8917
REMARK  9 active torsions:
REMARK  status: ('A' for Active; 'I' for Inactive)
REMARK    1  A    between atoms: C_1  and  C_2
REMARK    2  A    between atoms: C_1  and  C_7
REMARK    3  A    between atoms: C_2  and  C_3
REMARK    4  A    between atoms: C_3  and  C_4
REMARK    5  A    between atoms: C_4  and  C_5
REMARK    6  A    between atoms: C_7  and  C_8
REMARK    7  A    between atoms: C_8  and  C_9
REMARK    8  A    between atoms: C_9  and  C_10
REMARK    9  A    between atoms: C_10  and  S_11
REMARK                            x       y       z     vdW  Elec       q    Type
REMARK                         _______ _______ _______ _____ _____    ______ ____
ROOT
ATOM      1  C   UNL     1      34.803 -19.121 -23.896  0.00  0.00    +0.000 C 
ENDROOT
BRANCH   1   2
ATOM      2  C   UNL     1      35.525 -18.310 -22.818  0.00  0.00    +0.000 C 
BRANCH   2   3
ATOM      3  C   UNL     1      34.756 -18.332 -21.495  0.00  0.00    +0.000 C 
BRANCH   3   4
ATOM      4  C   UNL     1      34.744 -19.735 -20.885  0.00  0.00    +0.000 C 
BRANCH   4   5
ATOM      5  C   UNL     1      33.348 -20.202 -20.466  0.00  0.00    +0.000 C 
ATOM      6  C   UNL     1      33.363 -21.422 -19.558  0.00  0.00    +0.000 C 
ENDBRANCH   4   5
ENDBRANCH   3   4
ENDBRANCH   2   3
ENDBRANCH   1   2
BRANCH   1   7
ATOM      7  C   UNL     1      34.397 -18.236 -25.076  0.00  0.00    +0.000 C 
BRANCH   7   8
ATOM      8  C   UNL     1      34.691 -16.749 -24.851  0.00  0.00    +0.001 C 
BRANCH   8   9
ATOM      9  C   UNL     1      33.680 -15.820 -25.529  0.00  0.00    +0.011 C 
BRANCH   9  10
ATOM     10  C   UNL     1      33.423 -14.581 -24.673  0.00  0.00    +0.053 C 
BRANCH  10  11
ATOM     11  S   UNL     1      34.219 -14.752 -23.051  0.00  0.00    -0.168 S 
ATOM     12  H   UNL     1      33.505 -14.061 -22.120  0.00  0.00    +0.102 HD
ENDBRANCH  10  11
ENDBRANCH   9  10
ENDBRANCH   8   9
ENDBRANCH   7   8
ENDBRANCH   1   7
TORSDOF 9
ENDMDL
MODEL 2
REMARK VINA RESULT:      -5.3      2.026      2.771
REMARK  Name = 8917
REMARK  9 active torsions:
REMARK  status: ('A' for Active; 'I' for Inactive)
REMARK    1  A    between atoms: C_1  and  C_2
REMARK    2  A    between atoms: C_1  and  C_7
REMARK    3  A    between atoms: C_2  and  C_3
REMARK    4  A    between atoms: C_3  and  C_4
REMARK    5  A    between atoms: C_4  and  C_5
REMARK    6  A    between atoms: C_7  and  C_8
REMARK    7  A    between atoms: C_8  and  C_9
REMARK    8  A    between atoms: C_9  and  C_10
REMARK    9  A    between atoms: C_10  and  S_11
REMARK                            x       y       z     vdW  Elec       q    Type
REMARK                         _______ _______ _______ _____ _____    ______ ____
ROOT
ATOM      1  C   UNL     1      35.002 -17.512 -22.405  0.00  0.00    +0.000 C 
ENDROOT
BRANCH   1   2
ATOM      2  C   UNL     1      34.558 -18.976 -22.360  0.00  0.00    +0.000 C 
BRANCH   2   3
ATOM      3  C   UNL     1      34.566 -19.517 -20.928  0.00  0.00    +0.000 C 
BRANCH   3   4
ATOM      4  C   UNL     1      33.216 -20.138 -20.563  0.00  0.00    +0.000 C 
BRANCH   4   5
ATOM      5  C   UNL     1      33.333 -21.323 -19.602  0.00  0.00    +0.000 C 
ATOM      6  C   UNL     1      34.768 -21.752 -19.341  0.00  0.00    +0.000 C 
ENDBRANCH   4   5
ENDBRANCH   3   4
ENDBRANCH   2   3
ENDBRANCH   1   2
BRANCH   1   7
ATOM      7  C   UNL     1      34.954 -16.876 -21.014  0.00  0.00    +0.000 C 
BRANCH   7   8
ATOM      8  C   UNL     1      34.498 -15.414 -21.029  0.00  0.00    +0.001 C 
BRANCH   8   9
ATOM      9  C   UNL     1      32.992 -15.244 -20.807  0.00  0.00    +0.011 C 
BRANCH   9  10
ATOM     10  C   UNL     1      32.431 -14.147 -21.709  0.00  0.00    +0.053 C 
BRANCH  10  11
ATOM     11  S   UNL     1      33.241 -14.182 -23.334  0.00  0.00    -0.168 S 
ATOM     12  H   UNL     1      34.452 -14.792 -23.223  0.00  0.00    +0.102 HD
ENDBRANCH  10  11
ENDBRANCH   9  10
ENDBRANCH   8   9
ENDBRANCH   7   8
ENDBRANCH   1   7
TORSDOF 9
ENDMDL
MODEL 3
REMARK VINA RESULT:      -5.3      1.147      2.444
REMARK  Name = 8917
REMARK  9 active torsions:
REMARK  status: ('A' for Active; 'I' for Inactive)
REMARK    1  A    between atoms: C_1  and  C_2
REMARK    2  A    between atoms: C_1  and  C_7
REMARK    3  A    between atoms: C_2  and  C_3
REMARK    4  A    between atoms: C_3  and  C_4
REMARK    5  A    between atoms: C_4  and  C_5
REMARK    6  A    between atoms: C_7  and  C_8
REMARK    7  A    between atoms: C_8  and  C_9
REMARK    8  A    between atoms: C_9  and  C_10
REMARK    9  A    between atoms: C_10  and  S_11
REMARK                            x       y       z     vdW  Elec       q    Type
REMARK                         _______ _______ _______ _____ _____    ______ ____
ROOT
ATOM      1  C   UNL     1      34.523 -19.097 -21.349  0.00  0.00    +0.000 C 
ENDROOT
BRANCH   1   2
ATOM      2  C   UNL     1      33.142 -19.544 -20.864  0.00  0.00    +0.000 C 
BRANCH   2   3
ATOM      3  C   UNL     1      33.224 -20.856 -20.079  0.00  0.00    +0.000 C 
BRANCH   3   4
ATOM      4  C   UNL     1      34.673 -21.204 -19.733  0.00  0.00    +0.000 C 
BRANCH   4   5
ATOM      5  C   UNL     1      34.796 -22.254 -18.626  0.00  0.00    +0.000 C 
ATOM      6  C   UNL     1      33.456 -22.773 -18.130  0.00  0.00    +0.000 C 
ENDBRANCH   4   5
ENDBRANCH   3   4
ENDBRANCH   2   3
ENDBRANCH   1   2
BRANCH   1   7
ATOM      7  C   UNL     1      34.685 -19.336 -22.852  0.00  0.00    +0.000 C 
BRANCH   7   8
ATOM      8  C   UNL     1      35.252 -18.127 -23.602  0.00  0.00    +0.001 C 
BRANCH   8   9
ATOM      9  C   UNL     1      34.563 -17.865 -24.944  0.00  0.00    +0.011 C 
BRANCH   9  10
ATOM     10  C   UNL     1      34.269 -16.376 -25.122  0.00  0.00    +0.053 C 
BRANCH  10  11
ATOM     11  S   UNL     1      34.473 -15.495 -23.549  0.00  0.00    -0.168 S 
ATOM     12  H   UNL     1      34.449 -16.388 -22.522  0.00  0.00    +0.102 HD
ENDBRANCH  10  11
ENDBRANCH   9  10
ENDBRANCH   8   9
ENDBRANCH   7   8
ENDBRANCH   1   7
TORSDOF 9
ENDMDL
MODEL 4
REMARK VINA RESULT:      -5.3      1.318      1.501
REMARK  Name = 8917
REMARK  9 active torsions:
REMARK  status: ('A' for Active; 'I' for Inactive)
REMARK    1  A    between atoms: C_1  and  C_2
REMARK    2  A    between atoms: C_1  and  C_7
REMARK    3  A    between atoms: C_2  and  C_3
REMARK    4  A    between atoms: C_3  and  C_4
REMARK    5  A    between atoms: C_4  and  C_5
REMARK    6  A    between atoms: C_7  and  C_8
REMARK    7  A    between atoms: C_8  and  C_9
REMARK    8  A    between atoms: C_9  and  C_10
REMARK    9  A    between atoms: C_10  and  S_11
REMARK                            x       y       z     vdW  Elec       q    Type
REMARK                         _______ _______ _______ _____ _____    ______ ____
ROOT
ATOM      1  C   UNL     1      35.217 -18.163 -23.351  0.00  0.00    +0.000 C 
ENDROOT
BRANCH   1   2
ATOM      2  C   UNL     1      34.562 -19.371 -22.677  0.00  0.00    +0.000 C 
BRANCH   2   3
ATOM      3  C   UNL     1      34.379 -19.140 -21.175  0.00  0.00    +0.000 C 
BRANCH   3   4
ATOM      4  C   UNL     1      33.087 -19.786 -20.668  0.00  0.00    +0.000 C 
BRANCH   4   5
ATOM      5  C   UNL     1      33.324 -21.077 -19.881  0.00  0.00    +0.000 C 
ATOM      6  C   UNL     1      34.790 -21.341 -19.574  0.00  0.00    +0.000 C 
ENDBRANCH   4   5
ENDBRANCH   3   4
ENDBRANCH   2   3
ENDBRANCH   1   2
BRANCH   1   7
ATOM      7  C   UNL     1      34.790 -18.049 -24.816  0.00  0.00    +0.000 C 
BRANCH   7   8
ATOM      8  C   UNL     1      34.183 -16.687 -25.169  0.00  0.00    +0.001 C 
BRANCH   8   9
ATOM      9  C   UNL     1      34.138 -15.716 -23.986  0.00  0.00    +0.011 C 
BRANCH   9  10
ATOM     10  C   UNL     1      33.370 -14.448 -24.353  0.00  0.00    +0.053 C 
BRANCH  10  11
ATOM     11  S   UNL     1      32.936 -14.454 -26.116  0.00  0.00    -0.168 S 
ATOM     12  H   UNL     1      32.630 -13.189 -26.511  0.00  0.00    +0.102 HD
ENDBRANCH  10  11
ENDBRANCH   9  10
ENDBRANCH   8   9
ENDBRANCH   7   8
ENDBRANCH   1   7
TORSDOF 9
ENDMDL
MODEL 5
REMARK VINA RESULT:      -5.2      2.214      3.906
REMARK  Name = 8917
REMARK  9 active torsions:
REMARK  status: ('A' for Active; 'I' for Inactive)
REMARK    1  A    between atoms: C_1  and  C_2
REMARK    2  A    between atoms: C_1  and  C_7
REMARK    3  A    between atoms: C_2  and  C_3
REMARK    4  A    between atoms: C_3  and  C_4
REMARK    5  A    between atoms: C_4  and  C_5
REMARK    6  A    between atoms: C_7  and  C_8
REMARK    7  A    between atoms: C_8  and  C_9
REMARK    8  A    between atoms: C_9  and  C_10
REMARK    9  A    between atoms: C_10  and  S_11
REMARK                            x       y       z     vdW  Elec       q    Type
REMARK                         _______ _______ _______ _____ _____    ______ ____
ROOT
ATOM      1  C   UNL     1      33.074 -20.097 -20.614  0.00  0.00    +0.000 C 
ENDROOT
BRANCH   1   2
ATOM      2  C   UNL     1      33.411 -21.241 -19.654  0.00  0.00    +0.000 C 
BRANCH   2   3
ATOM      3  C   UNL     1      34.913 -21.537 -19.645  0.00  0.00    +0.000 C 
BRANCH   3   4
ATOM      4  C   UNL     1      35.362 -22.083 -18.288  0.00  0.00    +0.000 C 
BRANCH   4   5
ATOM      5  C   UNL     1      36.764 -21.622 -17.882  0.00  0.00    +0.000 C 
ATOM      6  C   UNL     1      37.177 -22.087 -16.495  0.00  0.00    +0.000 C 
ENDBRANCH   4   5
ENDBRANCH   3   4
ENDBRANCH   2   3
ENDBRANCH   1   2
BRANCH   1   7
ATOM      7  C   UNL     1      34.337 -19.350 -21.048  0.00  0.00    +0.000 C 
BRANCH   7   8
ATOM      8  C   UNL     1      34.501 -19.265 -22.569  0.00  0.00    +0.001 C 
BRANCH   8   9
ATOM      9  C   UNL     1      35.516 -18.208 -23.014  0.00  0.00    +0.011 C 
BRANCH   9  10
ATOM     10  C   UNL     1      35.124 -16.827 -22.495  0.00  0.00    +0.053 C 
BRANCH  10  11
ATOM     11  S   UNL     1      34.438 -15.814 -23.836  0.00  0.00    -0.168 S 
ATOM     12  H   UNL     1      33.797 -14.736 -23.307  0.00  0.00    +0.102 HD
ENDBRANCH  10  11
ENDBRANCH   9  10
ENDBRANCH   8   9
ENDBRANCH   7   8
ENDBRANCH   1   7
TORSDOF 9
ENDMDL
MODEL 6
REMARK VINA RESULT:      -5.2      3.588      6.681
REMARK  Name = 8917
REMARK  9 active torsions:
REMARK  status: ('A' for Active; 'I' for Inactive)
REMARK    1  A    between atoms: C_1  and  C_2
REMARK    2  A    between atoms: C_1  and  C_7
REMARK    3  A    between atoms: C_2  and  C_3
REMARK    4  A    between atoms: C_3  and  C_4
REMARK    5  A    between atoms: C_4  and  C_5
REMARK    6  A    between atoms: C_7  and  C_8
REMARK    7  A    between atoms: C_8  and  C_9
REMARK    8  A    between atoms: C_9  and  C_10
REMARK    9  A    between atoms: C_10  and  S_11
REMARK                            x       y       z     vdW  Elec       q    Type
REMARK                         _______ _______ _______ _____ _____    ______ ____
ROOT
ATOM      1  C   UNL     1      33.355 -20.346 -20.311  0.00  0.00    +0.000 C 
ENDROOT
BRANCH   1   2
ATOM      2  C   UNL     1      34.291 -19.807 -21.395  0.00  0.00    +0.000 C 
BRANCH   2   3
ATOM      3  C   UNL     1      34.528 -18.303 -21.230  0.00  0.00    +0.000 C 
BRANCH   3   4
ATOM      4  C   UNL     1      34.982 -17.668 -22.546  0.00  0.00    +0.000 C 
BRANCH   4   5
ATOM      5  C   UNL     1      35.205 -18.686 -23.666  0.00  0.00    +0.000 C 
ATOM      6  C   UNL     1      34.437 -18.365 -24.939  0.00  0.00    +0.000 C 
ENDBRANCH   4   5
ENDBRANCH   3   4
ENDBRANCH   2   3
ENDBRANCH   1   2
BRANCH   1   7
ATOM      7  C   UNL     1      34.023 -21.463 -19.507  0.00  0.00    +0.000 C 
BRANCH   7   8
ATOM      8  C   UNL     1      35.499 -21.669 -19.862  0.00  0.00    +0.001 C 
BRANCH   8   9
ATOM      9  C   UNL     1      36.448 -21.424 -18.686  0.00  0.00    +0.011 C 
BRANCH   9  10
ATOM     10  C   UNL     1      35.972 -22.167 -17.439  0.00  0.00    +0.053 C 
BRANCH  10  11
ATOM     11  S   UNL     1      37.293 -22.237 -16.196  0.00  0.00    -0.168 S 
ATOM     12  H   UNL     1      37.413 -21.023 -15.594  0.00  0.00    +0.102 HD
ENDBRANCH  10  11
ENDBRANCH   9  10
ENDBRANCH   8   9
ENDBRANCH   7   8
ENDBRANCH   1   7
TORSDOF 9
ENDMDL
MODEL 7
REMARK VINA RESULT:      -5.2      2.847      4.852
REMARK  Name = 8917
REMARK  9 active torsions:
REMARK  status: ('A' for Active; 'I' for Inactive)
REMARK    1  A    between atoms: C_1  and  C_2
REMARK    2  A    between atoms: C_1  and  C_7
REMARK    3  A    between atoms: C_2  and  C_3
REMARK    4  A    between atoms: C_3  and  C_4
REMARK    5  A    between atoms: C_4  and  C_5
REMARK    6  A    between atoms: C_7  and  C_8
REMARK    7  A    between atoms: C_8  and  C_9
REMARK    8  A    between atoms: C_9  and  C_10
REMARK    9  A    between atoms: C_10  and  S_11
REMARK                            x       y       z     vdW  Elec       q    Type
REMARK                         _______ _______ _______ _____ _____    ______ ____
ROOT
ATOM      1  C   UNL     1      34.864 -17.784 -24.244  0.00  0.00    +0.000 C 
ENDROOT
BRANCH   1   2
ATOM      2  C   UNL     1      35.272 -16.635 -23.319  0.00  0.00    +0.000 C 
BRANCH   2   3
ATOM      3  C   UNL     1      34.321 -15.443 -23.456  0.00  0.00    +0.000 C 
BRANCH   3   4
ATOM      4  C   UNL     1      34.391 -14.536 -22.226  0.00  0.00    +0.000 C 
BRANCH   4   5
ATOM      5  C   UNL     1      34.056 -15.259 -20.919  0.00  0.00    +0.000 C 
ATOM      6  C   UNL     1      32.584 -15.614 -20.782  0.00  0.00    +0.000 C 
ENDBRANCH   4   5
ENDBRANCH   3   4
ENDBRANCH   2   3
ENDBRANCH   1   2
BRANCH   1   7
ATOM      7  C   UNL     1      34.662 -19.082 -23.459  0.00  0.00    +0.000 C 
BRANCH   7   8
ATOM      8  C   UNL     1      35.027 -18.959 -21.977  0.00  0.00    +0.001 C 
BRANCH   8   9
ATOM      9  C   UNL     1      33.828 -19.129 -21.039  0.00  0.00    +0.011 C 
BRANCH   9  10
ATOM     10  C   UNL     1      33.861 -20.495 -20.357  0.00  0.00    +0.053 C 
BRANCH  10  11
ATOM     11  S   UNL     1      35.570 -20.973 -19.973  0.00  0.00    -0.168 S 
ATOM     12  H   UNL     1      35.568 -22.157 -19.301  0.00  0.00    +0.102 HD
ENDBRANCH  10  11
ENDBRANCH   9  10
ENDBRANCH   8   9
ENDBRANCH   7   8
ENDBRANCH   1   7
TORSDOF 9
ENDMDL
MODEL 8
REMARK VINA RESULT:      -5.1      2.075      3.283
REMARK  Name = 8917
REMARK  9 active torsions:
REMARK  status: ('A' for Active; 'I' for Inactive)
REMARK    1  A    between atoms: C_1  and  C_2
REMARK    2  A    between atoms: C_1  and  C_7
REMARK    3  A    between atoms: C_2  and  C_3
REMARK    4  A    between atoms: C_3  and  C_4
REMARK    5  A    between atoms: C_4  and  C_5
REMARK    6  A    between atoms: C_7  and  C_8
REMARK    7  A    between atoms: C_8  and  C_9
REMARK    8  A    between atoms: C_9  and  C_10
REMARK    9  A    between atoms: C_10  and  S_11
REMARK                            x       y       z     vdW  Elec       q    Type
REMARK                         _______ _______ _______ _____ _____    ______ ____
ROOT
ATOM      1  C   UNL     1      34.577 -19.364 -22.544  0.00  0.00    +0.000 C 
ENDROOT
BRANCH   1   2
ATOM      2  C   UNL     1      34.869 -18.862 -21.128  0.00  0.00    +0.000 C 
BRANCH   2   3
ATOM      3  C   UNL     1      35.160 -17.358 -21.119  0.00  0.00    +0.000 C 
BRANCH   3   4
ATOM      4  C   UNL     1      33.866 -16.545 -21.038  0.00  0.00    +0.000 C 
BRANCH   4   5
ATOM      5  C   UNL     1      34.104 -15.040 -20.891  0.00  0.00    +0.000 C 
ATOM      6  C   UNL     1      32.822 -14.236 -20.738  0.00  0.00    +0.000 C 
ENDBRANCH   4   5
ENDBRANCH   3   4
ENDBRANCH   2   3
ENDBRANCH   1   2
BRANCH   1   7
ATOM      7  C   UNL     1      35.386 -18.586 -23.584  0.00  0.00    +0.000 C 
BRANCH   7   8
ATOM      8  C   UNL     1      34.591 -18.255 -24.851  0.00  0.00    +0.001 C 
BRANCH   8   9
ATOM      9  C   UNL     1      34.837 -16.835 -25.370  0.00  0.00    +0.011 C 
BRANCH   9  10
ATOM     10  C   UNL     1      33.842 -15.852 -24.757  0.00  0.00    +0.053 C 
BRANCH  10  11
ATOM     11  S   UNL     1      33.085 -14.824 -26.047  0.00  0.00    -0.168 S 
ATOM     12  H   UNL     1      32.159 -14.000 -25.486  0.00  0.00    +0.102 HD
ENDBRANCH  10  11
ENDBRANCH   9  10
ENDBRANCH   8   9
ENDBRANCH   7   8
ENDBRANCH   1   7
TORSDOF 9
ENDMDL
MODEL 9
REMARK VINA RESULT:      -5.1      1.900      2.807
REMARK  Name = 8917
REMARK  9 active torsions:
REMARK  status: ('A' for Active; 'I' for Inactive)
REMARK    1  A    between atoms: C_1  and  C_2
REMARK    2  A    between atoms: C_1  and  C_7
REMARK    3  A    between atoms: C_2  and  C_3
REMARK    4  A    between atoms: C_3  and  C_4
REMARK    5  A    between atoms: C_4  and  C_5
REMARK    6  A    between atoms: C_7  and  C_8
REMARK    7  A    between atoms: C_8  and  C_9
REMARK    8  A    between atoms: C_9  and  C_10
REMARK    9  A    between atoms: C_10  and  S_11
REMARK                            x       y       z     vdW  Elec       q    Type
REMARK                         _______ _______ _______ _____ _____    ______ ____
ROOT
ATOM      1  C   UNL     1      33.836 -16.333 -21.139  0.00  0.00    +0.000 C 
ENDROOT
BRANCH   1   2
ATOM      2  C   UNL     1      35.097 -17.198 -21.077  0.00  0.00    +0.000 C 
BRANCH   2   3
ATOM      3  C   UNL     1      35.270 -18.026 -22.353  0.00  0.00    +0.000 C 
BRANCH   3   4
ATOM      4  C   UNL     1      34.490 -19.340 -22.269  0.00  0.00    +0.000 C 
BRANCH   4   5
ATOM      5  C   UNL     1      34.393 -19.898 -20.847  0.00  0.00    +0.000 C 
ATOM      6  C   UNL     1      32.969 -20.210 -20.415  0.00  0.00    +0.000 C 
ENDBRANCH   4   5
ENDBRANCH   3   4
ENDBRANCH   2   3
ENDBRANCH   1   2
BRANCH   1   7
ATOM      7  C   UNL     1      34.186 -14.858 -21.345  0.00  0.00    +0.000 C 
BRANCH   7   8
ATOM      8  C   UNL     1      33.276 -14.151 -22.354  0.00  0.00    +0.001 C 
BRANCH   8   9
ATOM      9  C   UNL     1      33.907 -14.000 -23.742  0.00  0.00    +0.011 C 
BRANCH   9  10
ATOM     10  C   UNL     1      33.640 -15.237 -24.597  0.00  0.00    +0.053 C 
BRANCH  10  11
ATOM     11  S   UNL     1      33.000 -14.757 -26.227  0.00  0.00    -0.168 S 
ATOM     12  H   UNL     1      32.982 -15.845 -27.044  0.00  0.00    +0.102 HD
ENDBRANCH  10  11
ENDBRANCH   9  10
ENDBRANCH   8   9
ENDBRANCH   7   8
ENDBRANCH   1   7
TORSDOF 9
ENDMDL
