MODEL 1
REMARK VINA RESULT:      -7.0      0.000      0.000
REMARK  Name = 29243
REMARK  6 active torsions:
REMARK  status: ('A' for Active; 'I' for Inactive)
REMARK    1  A    between atoms: C1*_2  and  N1_7
REMARK    2  A    between atoms: C2*_3  and  O2*_16
REMARK    3  A    between atoms: C3*_4  and  O3*_18
REMARK    4  A    between atoms: C4*_5  and  C5*_20
REMARK    5  A    between atoms: C4_12  and  O4_14
REMARK    6  A    between atoms: C5*_20  and  O5*_21
REMARK                            x       y       z     vdW  Elec       q    Type
REMARK                         _______ _______ _______ _____ _____    ______ ____
ROOT
ATOM      1  O4* U   A   1      36.422 -25.530 -14.610  0.00  0.00    -0.333 OA
ATOM      2  C1* U   A   1      36.065 -24.359 -15.363  0.00  0.00    +0.225 C 
ATOM      3  C2* U   A   1      36.899 -23.218 -14.809  0.00  0.00    +0.187 C 
ATOM      4  C3* U   A   1      38.156 -23.935 -14.362  0.00  0.00    +0.171 C 
ATOM      5  C4* U   A   1      37.600 -25.246 -13.823  0.00  0.00    +0.175 C 
ENDROOT
BRANCH   2   7
ATOM      6  O2  U   A   1      34.429 -23.187 -17.337  0.00  0.00    -0.252 OA
ATOM      7  N1  U   A   1      34.656 -24.127 -15.222  0.00  0.00    -0.240 N 
ATOM      8  N3  U   A   1      32.592 -23.268 -15.996  0.00  0.00    -0.267 N 
ATOM      9  C6  U   A   1      34.073 -24.429 -13.914  0.00  0.00    +0.102 C 
ATOM     10  C5  U   A   1      32.575 -24.677 -14.005  0.00  0.00    +0.072 C 
ATOM     11  C2  U   A   1      33.936 -23.504 -16.251  0.00  0.00    +0.307 C 
ATOM     12  C4  U   A   1      31.928 -23.516 -14.733  0.00  0.00    +0.190 C 
ATOM     13  H3  U   A   1      32.048 -22.904 -16.731  0.00  0.00    +0.153 HD
BRANCH  12  14
ATOM     14  O4  U   A   1      32.003 -22.340 -13.939  0.00  0.00    -0.367 OA
ATOM     15  H4  U   A   1      31.637 -21.591 -14.436  0.00  0.00    +0.212 HD
ENDBRANCH  12  14
ENDBRANCH   2   7
BRANCH   3  16
ATOM     16  O2* U   A   1      37.165 -22.221 -15.774  0.00  0.00    -0.378 OA
ATOM     17  H2* U   A   1      36.886 -22.534 -16.648  0.00  0.00    +0.211 HD
ENDBRANCH   3  16
BRANCH   4  18
ATOM     18  O3* U   A   1      38.981 -24.236 -15.487  0.00  0.00    -0.379 OA
ATOM     19  H3* U   A   1      39.611 -23.512 -15.629  0.00  0.00    +0.211 HD
ENDBRANCH   4  18
BRANCH   5  20
ATOM     20  C5* U   A   1      37.186 -25.169 -12.360  0.00  0.00    +0.169 C 
BRANCH  20  21
ATOM     21  O5* U   A   1      36.760 -26.453 -11.941  0.00  0.00    -0.379 OA
ATOM     22  H5* U   A   1      35.792 -26.498 -11.967  0.00  0.00    +0.211 HD
ENDBRANCH  20  21
ENDBRANCH   5  20
TORSDOF 6
ENDMDL
MODEL 2
REMARK VINA RESULT:      -7.0      6.695      9.084
REMARK  Name = 29243
REMARK  6 active torsions:
REMARK  status: ('A' for Active; 'I' for Inactive)
REMARK    1  A    between atoms: C1*_2  and  N1_7
REMARK    2  A    between atoms: C2*_3  and  O2*_16
REMARK    3  A    between atoms: C3*_4  and  O3*_18
REMARK    4  A    between atoms: C4*_5  and  C5*_20
REMARK    5  A    between atoms: C4_12  and  O4_14
REMARK    6  A    between atoms: C5*_20  and  O5*_21
REMARK                            x       y       z     vdW  Elec       q    Type
REMARK                         _______ _______ _______ _____ _____    ______ ____
ROOT
ATOM      1  O4* U   A   1      35.295 -17.688 -20.680  0.00  0.00    -0.333 OA
ATOM      2  C1* U   A   1      35.332 -18.936 -21.393  0.00  0.00    +0.225 C 
ATOM      3  C2* U   A   1      34.451 -18.760 -22.617  0.00  0.00    +0.187 C 
ATOM      4  C3* U   A   1      34.612 -17.284 -22.913  0.00  0.00    +0.171 C 
ATOM      5  C4* U   A   1      34.675 -16.684 -21.514  0.00  0.00    +0.175 C 
ENDROOT
BRANCH   2   7
ATOM      6  O2  U   A   1      36.973 -20.415 -19.643  0.00  0.00    -0.252 OA
ATOM      7  N1  U   A   1      34.867 -19.980 -20.527  0.00  0.00    -0.240 N 
ATOM      8  N3  U   A   1      35.235 -21.715 -18.961  0.00  0.00    -0.267 N 
ATOM      9  C6  U   A   1      33.459 -20.358 -20.659  0.00  0.00    +0.102 C 
ATOM     10  C5  U   A   1      32.934 -21.035 -19.403  0.00  0.00    +0.072 C 
ATOM     11  C2  U   A   1      35.771 -20.682 -19.717  0.00  0.00    +0.307 C 
ATOM     12  C4  U   A   1      33.863 -22.174 -19.033  0.00  0.00    +0.190 C 
ATOM     13  H3  U   A   1      35.833 -22.171 -18.327  0.00  0.00    +0.153 HD
BRANCH  12  14
ATOM     14  O4  U   A   1      33.777 -23.208 -20.004  0.00  0.00    -0.367 OA
ATOM     15  H4  U   A   1      32.956 -23.109 -20.510  0.00  0.00    +0.212 HD
ENDBRANCH  12  14
ENDBRANCH   2   7
BRANCH   3  16
ATOM     16  O2* U   A   1      34.856 -19.571 -23.700  0.00  0.00    -0.378 OA
ATOM     17  H2* U   A   1      35.118 -19.008 -24.446  0.00  0.00    +0.211 HD
ENDBRANCH   3  16
BRANCH   4  18
ATOM     18  O3* U   A   1      35.864 -17.041 -23.553  0.00  0.00    -0.379 OA
ATOM     19  H3* U   A   1      36.080 -17.786 -24.134  0.00  0.00    +0.211 HD
ENDBRANCH   4  18
BRANCH   5  20
ATOM     20  C5* U   A   1      33.305 -16.365 -20.933  0.00  0.00    +0.169 C 
BRANCH  20  21
ATOM     21  O5* U   A   1      32.706 -15.347 -21.714  0.00  0.00    -0.379 OA
ATOM     22  H5* U   A   1      31.834 -15.641 -22.018  0.00  0.00    +0.211 HD
ENDBRANCH  20  21
ENDBRANCH   5  20
TORSDOF 6
ENDMDL
MODEL 3
REMARK VINA RESULT:      -7.0     10.456     12.733
REMARK  Name = 29243
REMARK  6 active torsions:
REMARK  status: ('A' for Active; 'I' for Inactive)
REMARK    1  A    between atoms: C1*_2  and  N1_7
REMARK    2  A    between atoms: C2*_3  and  O2*_16
REMARK    3  A    between atoms: C3*_4  and  O3*_18
REMARK    4  A    between atoms: C4*_5  and  C5*_20
REMARK    5  A    between atoms: C4_12  and  O4_14
REMARK    6  A    between atoms: C5*_20  and  O5*_21
REMARK                            x       y       z     vdW  Elec       q    Type
REMARK                         _______ _______ _______ _____ _____    ______ ____
ROOT
ATOM      1  O4* U   A   1      34.737 -14.467 -23.004  0.00  0.00    -0.333 OA
ATOM      2  C1* U   A   1      34.656 -15.445 -24.055  0.00  0.00    +0.225 C 
ATOM      3  C2* U   A   1      33.286 -15.285 -24.689  0.00  0.00    +0.187 C 
ATOM      4  C3* U   A   1      33.021 -13.807 -24.498  0.00  0.00    +0.171 C 
ATOM      5  C4* U   A   1      33.628 -13.549 -23.126  0.00  0.00    +0.175 C 
ENDROOT
BRANCH   2   7
ATOM      6  O2  U   A   1      34.792 -17.831 -25.550  0.00  0.00    -0.252 OA
ATOM      7  N1  U   A   1      34.851 -16.750 -23.492  0.00  0.00    -0.240 N 
ATOM      8  N3  U   A   1      35.002 -19.104 -23.676  0.00  0.00    -0.267 N 
ATOM      9  C6  U   A   1      34.870 -16.834 -22.031  0.00  0.00    +0.102 C 
ATOM     10  C5  U   A   1      35.596 -18.078 -21.544  0.00  0.00    +0.072 C 
ATOM     11  C2  U   A   1      34.869 -17.881 -24.320  0.00  0.00    +0.307 C 
ATOM     12  C4  U   A   1      35.013 -19.292 -22.240  0.00  0.00    +0.190 C 
ATOM     13  H3  U   A   1      35.096 -19.905 -24.239  0.00  0.00    +0.153 HD
BRANCH  12  14
ATOM     14  O4  U   A   1      33.681 -19.514 -21.798  0.00  0.00    -0.367 OA
ATOM     15  H4  U   A   1      33.478 -18.911 -21.066  0.00  0.00    +0.212 HD
ENDBRANCH  12  14
ENDBRANCH   2   7
BRANCH   3  16
ATOM     16  O2* U   A   1      33.271 -15.661 -26.051  0.00  0.00    -0.378 OA
ATOM     17  H2* U   A   1      32.904 -14.937 -26.582  0.00  0.00    +0.211 HD
ENDBRANCH   3  16
BRANCH   4  18
ATOM     18  O3* U   A   1      33.756 -13.044 -25.455  0.00  0.00    -0.379 OA
ATOM     19  H3* U   A   1      33.144 -12.496 -25.969  0.00  0.00    +0.211 HD
ENDBRANCH   4  18
BRANCH   5  20
ATOM     20  C5* U   A   1      32.663 -13.818 -21.980  0.00  0.00    +0.169 C 
BRANCH  20  21
ATOM     21  O5* U   A   1      31.646 -12.833 -22.003  0.00  0.00    -0.379 OA
ATOM     22  H5* U   A   1      30.793 -13.252 -22.195  0.00  0.00    +0.211 HD
ENDBRANCH  20  21
ENDBRANCH   5  20
TORSDOF 6
ENDMDL
MODEL 4
REMARK VINA RESULT:      -7.0      1.552      1.957
REMARK  Name = 29243
REMARK  6 active torsions:
REMARK  status: ('A' for Active; 'I' for Inactive)
REMARK    1  A    between atoms: C1*_2  and  N1_7
REMARK    2  A    between atoms: C2*_3  and  O2*_16
REMARK    3  A    between atoms: C3*_4  and  O3*_18
REMARK    4  A    between atoms: C4*_5  and  C5*_20
REMARK    5  A    between atoms: C4_12  and  O4_14
REMARK    6  A    between atoms: C5*_20  and  O5*_21
REMARK                            x       y       z     vdW  Elec       q    Type
REMARK                         _______ _______ _______ _____ _____    ______ ____
ROOT
ATOM      1  O4* U   A   1      36.069 -24.514 -15.695  0.00  0.00    -0.333 OA
ATOM      2  C1* U   A   1      35.384 -23.702 -14.726  0.00  0.00    +0.225 C 
ATOM      3  C2* U   A   1      35.846 -24.177 -13.360  0.00  0.00    +0.187 C 
ATOM      4  C3* U   A   1      37.257 -24.644 -13.649  0.00  0.00    +0.171 C 
ATOM      5  C4* U   A   1      37.110 -25.265 -15.032  0.00  0.00    +0.175 C 
ENDROOT
BRANCH   2   7
ATOM      6  O2  U   A   1      33.982 -22.947 -17.052  0.00  0.00    -0.252 OA
ATOM      7  N1  U   A   1      33.969 -23.852 -14.909  0.00  0.00    -0.240 N 
ATOM      8  N3  U   A   1      31.980 -23.544 -16.151  0.00  0.00    -0.267 N 
ATOM      9  C6  U   A   1      33.209 -24.332 -13.755  0.00  0.00    +0.102 C 
ATOM     10  C5  U   A   1      31.888 -24.961 -14.168  0.00  0.00    +0.072 C 
ATOM     11  C2  U   A   1      33.360 -23.412 -16.094  0.00  0.00    +0.307 C 
ATOM     12  C4  U   A   1      31.139 -23.991 -15.060  0.00  0.00    +0.190 C 
ATOM     13  H3  U   A   1      31.538 -23.316 -17.000  0.00  0.00    +0.153 HD
BRANCH  12  14
ATOM     14  O4  U   A   1      30.724 -22.858 -14.309  0.00  0.00    -0.367 OA
ATOM     15  H4  U   A   1      31.318 -22.737 -13.552  0.00  0.00    +0.212 HD
ENDBRANCH  12  14
ENDBRANCH   2   7
BRANCH   3  16
ATOM     16  O2* U   A   1      35.809 -23.154 -12.387  0.00  0.00    -0.378 OA
ATOM     17  H2* U   A   1      36.602 -22.601 -12.468  0.00  0.00    +0.211 HD
ENDBRANCH   3  16
BRANCH   4  18
ATOM     18  O3* U   A   1      38.136 -23.526 -13.760  0.00  0.00    -0.379 OA
ATOM     19  H3* U   A   1      38.035 -22.957 -12.981  0.00  0.00    +0.211 HD
ENDBRANCH   4  18
BRANCH   5  20
ATOM     20  C5* U   A   1      36.689 -26.727 -14.994  0.00  0.00    +0.169 C 
BRANCH  20  21
ATOM     21  O5* U   A   1      36.814 -27.269 -16.297  0.00  0.00    -0.379 OA
ATOM     22  H5* U   A   1      36.355 -26.696 -16.932  0.00  0.00    +0.211 HD
ENDBRANCH  20  21
ENDBRANCH   5  20
TORSDOF 6
ENDMDL
MODEL 5
REMARK VINA RESULT:      -6.8     12.483     14.141
REMARK  Name = 29243
REMARK  6 active torsions:
REMARK  status: ('A' for Active; 'I' for Inactive)
REMARK    1  A    between atoms: C1*_2  and  N1_7
REMARK    2  A    between atoms: C2*_3  and  O2*_16
REMARK    3  A    between atoms: C3*_4  and  O3*_18
REMARK    4  A    between atoms: C4*_5  and  C5*_20
REMARK    5  A    between atoms: C4_12  and  O4_14
REMARK    6  A    between atoms: C5*_20  and  O5*_21
REMARK                            x       y       z     vdW  Elec       q    Type
REMARK                         _______ _______ _______ _____ _____    ______ ____
ROOT
ATOM      1  O4* U   A   1      31.943 -14.060 -21.934  0.00  0.00    -0.333 OA
ATOM      2  C1* U   A   1      32.325 -12.853 -22.615  0.00  0.00    +0.225 C 
ATOM      3  C2* U   A   1      33.814 -12.963 -22.887  0.00  0.00    +0.187 C 
ATOM      4  C3* U   A   1      33.996 -14.457 -23.048  0.00  0.00    +0.171 C 
ATOM      5  C4* U   A   1      33.029 -15.010 -22.009  0.00  0.00    +0.175 C 
ENDROOT
BRANCH   2   7
ATOM      6  O2  U   A   1      32.365 -10.167 -23.470  0.00  0.00    -0.252 OA
ATOM      7  N1  U   A   1      32.000 -11.728 -21.785  0.00  0.00    -0.240 N 
ATOM      8  N3  U   A   1      31.810  -9.402 -21.400  0.00  0.00    -0.267 N 
ATOM      9  C6  U   A   1      31.738 -12.013 -20.374  0.00  0.00    +0.102 C 
ATOM     10  C5  U   A   1      30.905 -10.922 -19.721  0.00  0.00    +0.072 C 
ATOM     11  C2  U   A   1      32.084 -10.425 -22.297  0.00  0.00    +0.307 C 
ATOM     12  C4  U   A   1      31.558  -9.580 -19.985  0.00  0.00    +0.190 C 
ATOM     13  H3  U   A   1      31.786  -8.484 -21.753  0.00  0.00    +0.153 HD
BRANCH  12  14
ATOM     14  O4  U   A   1      32.791  -9.491 -19.286  0.00  0.00    -0.367 OA
ATOM     15  H4  U   A   1      32.643  -9.673 -18.344  0.00  0.00    +0.212 HD
ENDBRANCH  12  14
ENDBRANCH   2   7
BRANCH   3  16
ATOM     16  O2* U   A   1      34.211 -12.248 -24.039  0.00  0.00    -0.378 OA
ATOM     17  H2* U   A   1      33.565 -11.549 -24.224  0.00  0.00    +0.211 HD
ENDBRANCH   3  16
BRANCH   4  18
ATOM     18  O3* U   A   1      33.543 -14.875 -24.336  0.00  0.00    -0.379 OA
ATOM     19  H3* U   A   1      33.381 -14.096 -24.890  0.00  0.00    +0.211 HD
ENDBRANCH   4  18
BRANCH   5  20
ATOM     20  C5* U   A   1      33.644 -15.137 -20.622  0.00  0.00    +0.169 C 
BRANCH  20  21
ATOM     21  O5* U   A   1      34.931 -15.714 -20.748  0.00  0.00    -0.379 OA
ATOM     22  H5* U   A   1      35.499 -15.128 -21.273  0.00  0.00    +0.211 HD
ENDBRANCH  20  21
ENDBRANCH   5  20
TORSDOF 6
ENDMDL
MODEL 6
REMARK VINA RESULT:      -6.7      1.781      3.192
REMARK  Name = 29243
REMARK  6 active torsions:
REMARK  status: ('A' for Active; 'I' for Inactive)
REMARK    1  A    between atoms: C1*_2  and  N1_7
REMARK    2  A    between atoms: C2*_3  and  O2*_16
REMARK    3  A    between atoms: C3*_4  and  O3*_18
REMARK    4  A    between atoms: C4*_5  and  C5*_20
REMARK    5  A    between atoms: C4_12  and  O4_14
REMARK    6  A    between atoms: C5*_20  and  O5*_21
REMARK                            x       y       z     vdW  Elec       q    Type
REMARK                         _______ _______ _______ _____ _____    ______ ____
ROOT
ATOM      1  O4* U   A   1      35.474 -24.093 -12.364  0.00  0.00    -0.333 OA
ATOM      2  C1* U   A   1      35.363 -24.979 -13.491  0.00  0.00    +0.225 C 
ATOM      3  C2* U   A   1      36.766 -25.475 -13.791  0.00  0.00    +0.187 C 
ATOM      4  C3* U   A   1      37.404 -25.466 -12.417  0.00  0.00    +0.171 C 
ATOM      5  C4* U   A   1      36.794 -24.219 -11.791  0.00  0.00    +0.175 C 
ENDROOT
BRANCH   2   7
ATOM      6  O2  U   A   1      32.600 -24.555 -13.857  0.00  0.00    -0.252 OA
ATOM      7  N1  U   A   1      34.787 -24.262 -14.592  0.00  0.00    -0.240 N 
ATOM      8  N3  U   A   1      32.932 -23.478 -15.834  0.00  0.00    -0.267 N 
ATOM      9  C6  U   A   1      35.710 -23.824 -15.640  0.00  0.00    +0.102 C 
ATOM     10  C5  U   A   1      35.149 -22.660 -16.440  0.00  0.00    +0.072 C 
ATOM     11  C2  U   A   1      33.395 -24.136 -14.702  0.00  0.00    +0.307 C 
ATOM     12  C4  U   A   1      33.762 -23.024 -16.931  0.00  0.00    +0.190 C 
ATOM     13  H3  U   A   1      31.965 -23.308 -15.896  0.00  0.00    +0.153 HD
BRANCH  12  14
ATOM     14  O4  U   A   1      33.844 -24.059 -17.901  0.00  0.00    -0.367 OA
ATOM     15  H4  U   A   1      33.717 -24.918 -17.468  0.00  0.00    +0.212 HD
ENDBRANCH  12  14
ENDBRANCH   2   7
BRANCH   3  16
ATOM     16  O2* U   A   1      36.775 -26.759 -14.378  0.00  0.00    -0.378 OA
ATOM     17  H2* U   A   1      35.883 -26.980 -14.688  0.00  0.00    +0.211 HD
ENDBRANCH   3  16
BRANCH   4  18
ATOM     18  O3* U   A   1      36.968 -26.596 -11.662  0.00  0.00    -0.379 OA
ATOM     19  H3* U   A   1      36.050 -26.804 -11.893  0.00  0.00    +0.211 HD
ENDBRANCH   4  18
BRANCH   5  20
ATOM     20  C5* U   A   1      37.570 -22.947 -12.103  0.00  0.00    +0.169 C 
BRANCH  20  21
ATOM     21  O5* U   A   1      38.903 -23.107 -11.650  0.00  0.00    -0.379 OA
ATOM     22  H5* U   A   1      39.475 -23.331 -12.401  0.00  0.00    +0.211 HD
ENDBRANCH  20  21
ENDBRANCH   5  20
TORSDOF 6
ENDMDL
MODEL 7
REMARK VINA RESULT:      -6.6      1.544      2.256
REMARK  Name = 29243
REMARK  6 active torsions:
REMARK  status: ('A' for Active; 'I' for Inactive)
REMARK    1  A    between atoms: C1*_2  and  N1_7
REMARK    2  A    between atoms: C2*_3  and  O2*_16
REMARK    3  A    between atoms: C3*_4  and  O3*_18
REMARK    4  A    between atoms: C4*_5  and  C5*_20
REMARK    5  A    between atoms: C4_12  and  O4_14
REMARK    6  A    between atoms: C5*_20  and  O5*_21
REMARK                            x       y       z     vdW  Elec       q    Type
REMARK                         _______ _______ _______ _____ _____    ______ ____
ROOT
ATOM      1  O4* U   A   1      37.150 -24.759 -15.063  0.00  0.00    -0.333 OA
ATOM      2  C1* U   A   1      36.667 -24.040 -13.916  0.00  0.00    +0.225 C 
ATOM      3  C2* U   A   1      37.060 -24.855 -12.697  0.00  0.00    +0.187 C 
ATOM      4  C3* U   A   1      38.341 -25.516 -13.160  0.00  0.00    +0.171 C 
ATOM      5  C4* U   A   1      38.038 -25.811 -14.623  0.00  0.00    +0.175 C 
ENDROOT
BRANCH   2   7
ATOM      6  O2  U   A   1      35.401 -22.214 -15.650  0.00  0.00    -0.252 OA
ATOM      7  N1  U   A   1      35.246 -23.878 -14.033  0.00  0.00    -0.240 N 
ATOM      8  N3  U   A   1      33.332 -22.792 -14.900  0.00  0.00    -0.267 N 
ATOM      9  C6  U   A   1      34.423 -24.648 -13.100  0.00  0.00    +0.102 C 
ATOM     10  C5  U   A   1      33.008 -24.843 -13.621  0.00  0.00    +0.072 C 
ATOM     11  C2  U   A   1      34.714 -22.915 -14.902  0.00  0.00    +0.307 C 
ATOM     12  C4  U   A   1      32.435 -23.494 -14.005  0.00  0.00    +0.190 C 
ATOM     13  H3  U   A   1      32.930 -22.179 -15.557  0.00  0.00    +0.153 HD
BRANCH  12  14
ATOM     14  O4  U   A   1      32.233 -22.701 -12.844  0.00  0.00    -0.367 OA
ATOM     15  H4  U   A   1      32.683 -23.112 -12.090  0.00  0.00    +0.212 HD
ENDBRANCH  12  14
ENDBRANCH   2   7
BRANCH   3  16
ATOM     16  O2* U   A   1      37.253 -24.057 -11.548  0.00  0.00    -0.378 OA
ATOM     17  H2* U   A   1      36.553 -23.388 -11.497  0.00  0.00    +0.211 HD
ENDBRANCH   3  16
BRANCH   4  18
ATOM     18  O3* U   A   1      39.423 -24.586 -13.114  0.00  0.00    -0.379 OA
ATOM     19  H3* U   A   1      39.383 -24.006 -13.890  0.00  0.00    +0.211 HD
ENDBRANCH   4  18
BRANCH   5  20
ATOM     20  C5* U   A   1      37.334 -27.144 -14.835  0.00  0.00    +0.169 C 
BRANCH  20  21
ATOM     21  O5* U   A   1      36.855 -27.196 -16.167  0.00  0.00    -0.379 OA
ATOM     22  H5* U   A   1      36.074 -27.771 -16.208  0.00  0.00    +0.211 HD
ENDBRANCH  20  21
ENDBRANCH   5  20
TORSDOF 6
ENDMDL
MODEL 8
REMARK VINA RESULT:      -6.4     11.817     13.651
REMARK  Name = 29243
REMARK  6 active torsions:
REMARK  status: ('A' for Active; 'I' for Inactive)
REMARK    1  A    between atoms: C1*_2  and  N1_7
REMARK    2  A    between atoms: C2*_3  and  O2*_16
REMARK    3  A    between atoms: C3*_4  and  O3*_18
REMARK    4  A    between atoms: C4*_5  and  C5*_20
REMARK    5  A    between atoms: C4_12  and  O4_14
REMARK    6  A    between atoms: C5*_20  and  O5*_21
REMARK                            x       y       z     vdW  Elec       q    Type
REMARK                         _______ _______ _______ _____ _____    ______ ____
ROOT
ATOM      1  O4* U   A   1      32.998 -15.297 -22.650  0.00  0.00    -0.333 OA
ATOM      2  C1* U   A   1      33.567 -15.282 -23.970  0.00  0.00    +0.225 C 
ATOM      3  C2* U   A   1      34.969 -15.851 -23.843  0.00  0.00    +0.187 C 
ATOM      4  C3* U   A   1      34.812 -16.821 -22.690  0.00  0.00    +0.171 C 
ATOM      5  C4* U   A   1      33.845 -16.077 -21.777  0.00  0.00    +0.175 C 
ENDROOT
BRANCH   2   7
ATOM      6  O2  U   A   1      33.446 -14.575 -26.696  0.00  0.00    -0.252 OA
ATOM      7  N1  U   A   1      33.564 -13.935 -24.463  0.00  0.00    -0.240 N 
ATOM      8  N3  U   A   1      33.599 -12.354 -26.223  0.00  0.00    -0.267 N 
ATOM      9  C6  U   A   1      33.746 -12.877 -23.469  0.00  0.00    +0.102 C 
ATOM     10  C5  U   A   1      33.204 -11.542 -23.957  0.00  0.00    +0.072 C 
ATOM     11  C2  U   A   1      33.536 -13.688 -25.843  0.00  0.00    +0.307 C 
ATOM     12  C4  U   A   1      33.795 -11.239 -25.319  0.00  0.00    +0.190 C 
ATOM     13  H3  U   A   1      33.502 -12.150 -27.180  0.00  0.00    +0.153 HD
BRANCH  12  14
ATOM     14  O4  U   A   1      35.188 -10.986 -25.201  0.00  0.00    -0.367 OA
ATOM     15  H4  U   A   1      35.685 -11.740 -25.557  0.00  0.00    +0.212 HD
ENDBRANCH  12  14
ENDBRANCH   2   7
BRANCH   3  16
ATOM     16  O2* U   A   1      35.405 -16.491 -25.024  0.00  0.00    -0.378 OA
ATOM     17  H2* U   A   1      36.078 -17.153 -24.804  0.00  0.00    +0.211 HD
ENDBRANCH   3  16
BRANCH   4  18
ATOM     18  O3* U   A   1      34.169 -18.015 -23.131  0.00  0.00    -0.379 OA
ATOM     19  H3* U   A   1      34.136 -18.653 -22.401  0.00  0.00    +0.211 HD
ENDBRANCH   4  18
BRANCH   5  20
ATOM     20  C5* U   A   1      34.539 -15.123 -20.815  0.00  0.00    +0.169 C 
BRANCH  20  21
ATOM     21  O5* U   A   1      35.077 -15.874 -19.741  0.00  0.00    -0.379 OA
ATOM     22  H5* U   A   1      35.937 -16.239 -20.000  0.00  0.00    +0.211 HD
ENDBRANCH  20  21
ENDBRANCH   5  20
TORSDOF 6
ENDMDL
MODEL 9
REMARK VINA RESULT:      -6.4      2.394      3.801
REMARK  Name = 29243
REMARK  6 active torsions:
REMARK  status: ('A' for Active; 'I' for Inactive)
REMARK    1  A    between atoms: C1*_2  and  N1_7
REMARK    2  A    between atoms: C2*_3  and  O2*_16
REMARK    3  A    between atoms: C3*_4  and  O3*_18
REMARK    4  A    between atoms: C4*_5  and  C5*_20
REMARK    5  A    between atoms: C4_12  and  O4_14
REMARK    6  A    between atoms: C5*_20  and  O5*_21
REMARK                            x       y       z     vdW  Elec       q    Type
REMARK                         _______ _______ _______ _____ _____    ______ ____
ROOT
ATOM      1  O4* U   A   1      36.572 -23.706 -15.414  0.00  0.00    -0.333 OA
ATOM      2  C1* U   A   1      35.413 -22.866 -15.539  0.00  0.00    +0.225 C 
ATOM      3  C2* U   A   1      34.273 -23.596 -14.852  0.00  0.00    +0.187 C 
ATOM      4  C3* U   A   1      35.000 -24.367 -13.769  0.00  0.00    +0.171 C 
ATOM      5  C4* U   A   1      36.289 -24.767 -14.474  0.00  0.00    +0.175 C 
ENDROOT
BRANCH   2   7
ATOM      6  O2  U   A   1      37.112 -21.420 -17.262  0.00  0.00    -0.252 OA
ATOM      7  N1  U   A   1      35.155 -22.632 -16.931  0.00  0.00    -0.240 N 
ATOM      8  N3  U   A   1      35.680 -21.647 -19.016  0.00  0.00    -0.267 N 
ATOM      9  C6  U   A   1      33.863 -23.093 -17.441  0.00  0.00    +0.102 C 
ATOM     10  C5  U   A   1      33.890 -23.303 -18.947  0.00  0.00    +0.072 C 
ATOM     11  C2  U   A   1      36.048 -21.869 -17.696  0.00  0.00    +0.307 C 
ATOM     12  C4  U   A   1      34.420 -22.047 -19.609  0.00  0.00    +0.190 C 
ATOM     13  H3  U   A   1      36.325 -21.182 -19.595  0.00  0.00    +0.153 HD
BRANCH  12  14
ATOM     14  O4  U   A   1      33.487 -20.986 -19.458  0.00  0.00    -0.367 OA
ATOM     15  H4  U   A   1      33.138 -20.736 -20.328  0.00  0.00    +0.212 HD
ENDBRANCH  12  14
ENDBRANCH   2   7
BRANCH   3  16
ATOM     16  O2* U   A   1      33.303 -22.716 -14.323  0.00  0.00    -0.378 OA
ATOM     17  H2* U   A   1      32.433 -23.144 -14.339  0.00  0.00    +0.211 HD
ENDBRANCH   3  16
BRANCH   4  18
ATOM     18  O3* U   A   1      35.341 -23.500 -12.688  0.00  0.00    -0.379 OA
ATOM     19  H3* U   A   1      35.288 -23.990 -11.853  0.00  0.00    +0.211 HD
ENDBRANCH   4  18
BRANCH   5  20
ATOM     20  C5* U   A   1      36.171 -26.070 -15.252  0.00  0.00    +0.169 C 
BRANCH  20  21
ATOM     21  O5* U   A   1      37.457 -26.438 -15.718  0.00  0.00    -0.379 OA
ATOM     22  H5* U   A   1      37.983 -25.640 -15.882  0.00  0.00    +0.211 HD
ENDBRANCH  20  21
ENDBRANCH   5  20
TORSDOF 6
ENDMDL
