MODEL 1
REMARK VINA RESULT:      -6.4      0.000      0.000
REMARK  Name = 23615404
REMARK  11 active torsions:
REMARK  status: ('A' for Active; 'I' for Inactive)
REMARK    1  A    between atoms: C_1  and  O_2
REMARK    2  A    between atoms: C_1  and  C_4
REMARK    3  A    between atoms: C_1  and  C_12
REMARK    4  A    between atoms: C_4  and  O_5
REMARK    5  A    between atoms: C_4  and  C_8
REMARK    6  A    between atoms: C_8  and  C_9
REMARK    7  A    between atoms: C_9  and  O_10
REMARK    8  A    between atoms: C_12  and  O_13
REMARK    9  A    between atoms: O_13  and  P_14
REMARK   10  A    between atoms: P_14  and  O_16
REMARK   11  A    between atoms: P_14  and  O_18
REMARK                            x       y       z     vdW  Elec       q    Type
REMARK                         _______ _______ _______ _____ _____    ______ ____
ROOT
ATOM      1  C   UNL     1      36.715 -25.573 -14.338  0.00  0.00    +0.175 C 
ENDROOT
BRANCH   1   2
ATOM      2  O   UNL     1      37.028 -25.923 -15.689  0.00  0.00    -0.379 OA
ATOM      3  H   UNL     1      37.911 -26.321 -15.724  0.00  0.00    +0.211 HD
ENDBRANCH   1   2
BRANCH   1   4
ATOM      4  C   UNL     1      36.491 -24.061 -14.230  0.00  0.00    +0.200 C 
BRANCH   4   5
ATOM      5  O   UNL     1      37.583 -23.468 -13.540  0.00  0.00    -0.375 OA
ATOM      6  H   UNL     1      37.458 -22.507 -13.505  0.00  0.00    +0.211 HD
ENDBRANCH   4   5
BRANCH   4   8
ATOM      7  O   UNL     1      35.328 -23.513 -16.273  0.00  0.00    -0.291 OA
ATOM      8  C   UNL     1      36.348 -23.390 -15.594  0.00  0.00    +0.209 C 
BRANCH   8   9
ATOM      9  C   UNL     1      37.514 -22.538 -16.061  0.00  0.00    +0.205 C 
BRANCH   9  10
ATOM     10  O   UNL     1      38.702 -23.301 -16.094  0.00  0.00    -0.375 OA
ATOM     11  H   UNL     1      38.533 -24.145 -16.542  0.00  0.00    +0.211 HD
ENDBRANCH   9  10
ENDBRANCH   8   9
ENDBRANCH   4   8
ENDBRANCH   1   4
BRANCH   1  12
ATOM     12  C   UNL     1      37.881 -26.038 -13.466  0.00  0.00    +0.186 C 
BRANCH  12  13
ATOM     13  O   UNL     1      38.813 -26.744 -14.279  0.00  0.00    -0.271 OA
BRANCH  13  14
ATOM     14  P   UNL     1      40.276 -26.096 -14.503  0.00  0.00    +0.473 P 
ATOM     15  O   UNL     1      41.421 -26.924 -13.997  0.00  0.00    -0.227 OA
BRANCH  14  16
ATOM     16  O   UNL     1      40.148 -24.621 -13.853  0.00  0.00    -0.303 OA
ATOM     17  H   UNL     1      39.368 -24.588 -13.279  0.00  0.00    +0.222 HD
ENDBRANCH  14  16
BRANCH  14  18
ATOM     18  O   UNL     1      40.295 -25.802 -16.093  0.00  0.00    -0.303 OA
ATOM     19  H   UNL     1      41.183 -25.513 -16.357  0.00  0.00    +0.222 HD
ENDBRANCH  14  18
ENDBRANCH  13  14
ENDBRANCH  12  13
ENDBRANCH   1  12
TORSDOF 11
ENDMDL
MODEL 2
REMARK VINA RESULT:      -6.2      1.457      2.156
REMARK  Name = 23615404
REMARK  11 active torsions:
REMARK  status: ('A' for Active; 'I' for Inactive)
REMARK    1  A    between atoms: C_1  and  O_2
REMARK    2  A    between atoms: C_1  and  C_4
REMARK    3  A    between atoms: C_1  and  C_12
REMARK    4  A    between atoms: C_4  and  O_5
REMARK    5  A    between atoms: C_4  and  C_8
REMARK    6  A    between atoms: C_8  and  C_9
REMARK    7  A    between atoms: C_9  and  O_10
REMARK    8  A    between atoms: C_12  and  O_13
REMARK    9  A    between atoms: O_13  and  P_14
REMARK   10  A    between atoms: P_14  and  O_16
REMARK   11  A    between atoms: P_14  and  O_18
REMARK                            x       y       z     vdW  Elec       q    Type
REMARK                         _______ _______ _______ _____ _____    ______ ____
ROOT
ATOM      1  C   UNL     1      36.595 -25.725 -14.335  0.00  0.00    +0.175 C 
ENDROOT
BRANCH   1   2
ATOM      2  O   UNL     1      37.116 -25.212 -15.564  0.00  0.00    -0.379 OA
ATOM      3  H   UNL     1      38.080 -25.319 -15.577  0.00  0.00    +0.211 HD
ENDBRANCH   1   2
BRANCH   1   4
ATOM      4  C   UNL     1      35.946 -24.594 -13.532  0.00  0.00    +0.200 C 
BRANCH   4   5
ATOM      5  O   UNL     1      35.478 -25.102 -12.290  0.00  0.00    -0.375 OA
ATOM      6  H   UNL     1      35.564 -26.068 -12.284  0.00  0.00    +0.211 HD
ENDBRANCH   4   5
BRANCH   4   8
ATOM      7  O   UNL     1      37.445 -22.814 -14.175  0.00  0.00    -0.291 OA
ATOM      8  C   UNL     1      36.909 -23.440 -13.260  0.00  0.00    +0.209 C 
BRANCH   8   9
ATOM      9  C   UNL     1      37.151 -23.082 -11.806  0.00  0.00    +0.205 C 
BRANCH   9  10
ATOM     10  O   UNL     1      38.531 -22.906 -11.562  0.00  0.00    -0.375 OA
ATOM     11  H   UNL     1      38.679 -22.793 -10.609  0.00  0.00    +0.211 HD
ENDBRANCH   9  10
ENDBRANCH   8   9
ENDBRANCH   4   8
ENDBRANCH   1   4
BRANCH   1  12
ATOM     12  C   UNL     1      37.760 -26.363 -13.579  0.00  0.00    +0.186 C 
BRANCH  12  13
ATOM     13  O   UNL     1      38.732 -26.809 -14.519  0.00  0.00    -0.271 OA
BRANCH  13  14
ATOM     14  P   UNL     1      40.148 -26.034 -14.580  0.00  0.00    +0.473 P 
ATOM     15  O   UNL     1      41.315 -26.798 -14.024  0.00  0.00    -0.227 OA
BRANCH  14  16
ATOM     16  O   UNL     1      39.844 -24.617 -13.861  0.00  0.00    -0.303 OA
ATOM     17  H   UNL     1      40.631 -24.054 -13.915  0.00  0.00    +0.222 HD
ENDBRANCH  14  16
BRANCH  14  18
ATOM     18  O   UNL     1      40.271 -25.640 -16.143  0.00  0.00    -0.303 OA
ATOM     19  H   UNL     1      41.207 -25.524 -16.374  0.00  0.00    +0.222 HD
ENDBRANCH  14  18
ENDBRANCH  13  14
ENDBRANCH  12  13
ENDBRANCH   1  12
TORSDOF 11
ENDMDL
MODEL 3
REMARK VINA RESULT:      -6.0      1.905      3.553
REMARK  Name = 23615404
REMARK  11 active torsions:
REMARK  status: ('A' for Active; 'I' for Inactive)
REMARK    1  A    between atoms: C_1  and  O_2
REMARK    2  A    between atoms: C_1  and  C_4
REMARK    3  A    between atoms: C_1  and  C_12
REMARK    4  A    between atoms: C_4  and  O_5
REMARK    5  A    between atoms: C_4  and  C_8
REMARK    6  A    between atoms: C_8  and  C_9
REMARK    7  A    between atoms: C_9  and  O_10
REMARK    8  A    between atoms: C_12  and  O_13
REMARK    9  A    between atoms: O_13  and  P_14
REMARK   10  A    between atoms: P_14  and  O_16
REMARK   11  A    between atoms: P_14  and  O_18
REMARK                            x       y       z     vdW  Elec       q    Type
REMARK                         _______ _______ _______ _____ _____    ______ ____
ROOT
ATOM      1  C   UNL     1      37.031 -23.543 -13.883  0.00  0.00    +0.175 C 
ENDROOT
BRANCH   1   2
ATOM      2  O   UNL     1      37.864 -23.173 -12.782  0.00  0.00    -0.379 OA
ATOM      3  H   UNL     1      38.755 -22.968 -13.105  0.00  0.00    +0.211 HD
ENDBRANCH   1   2
BRANCH   1   4
ATOM      4  C   UNL     1      35.963 -24.539 -13.418  0.00  0.00    +0.200 C 
BRANCH   4   5
ATOM      5  O   UNL     1      35.827 -25.573 -14.383  0.00  0.00    -0.375 OA
ATOM      6  H   UNL     1      35.209 -26.243 -14.051  0.00  0.00    +0.211 HD
ENDBRANCH   4   5
BRANCH   4   8
ATOM      7  O   UNL     1      37.099 -26.094 -11.962  0.00  0.00    -0.291 OA
ATOM      8  C   UNL     1      36.295 -25.166 -12.066  0.00  0.00    +0.209 C 
BRANCH   8   9
ATOM      9  C   UNL     1      35.608 -24.572 -10.851  0.00  0.00    +0.205 C 
BRANCH   9  10
ATOM     10  O   UNL     1      36.541 -23.889 -10.039  0.00  0.00    -0.375 OA
ATOM     11  H   UNL     1      36.702 -23.005 -10.405  0.00  0.00    +0.211 HD
ENDBRANCH   9  10
ENDBRANCH   8   9
ENDBRANCH   4   8
ENDBRANCH   1   4
BRANCH   1  12
ATOM     12  C   UNL     1      37.936 -24.143 -14.958  0.00  0.00    +0.186 C 
BRANCH  12  13
ATOM     13  O   UNL     1      39.202 -24.444 -14.379  0.00  0.00    -0.271 OA
BRANCH  13  14
ATOM     14  P   UNL     1      39.842 -25.901 -14.656  0.00  0.00    +0.473 P 
ATOM     15  O   UNL     1      40.939 -26.304 -13.713  0.00  0.00    -0.227 OA
BRANCH  14  16
ATOM     16  O   UNL     1      40.257 -25.851 -16.218  0.00  0.00    -0.303 OA
ATOM     17  H   UNL     1      40.817 -25.077 -16.378  0.00  0.00    +0.222 HD
ENDBRANCH  14  16
BRANCH  14  18
ATOM     18  O   UNL     1      38.544 -26.867 -14.646  0.00  0.00    -0.303 OA
ATOM     19  H   UNL     1      38.456 -27.278 -13.771  0.00  0.00    +0.222 HD
ENDBRANCH  14  18
ENDBRANCH  13  14
ENDBRANCH  12  13
ENDBRANCH   1  12
TORSDOF 11
ENDMDL
MODEL 4
REMARK VINA RESULT:      -6.0      2.524      3.997
REMARK  Name = 23615404
REMARK  11 active torsions:
REMARK  status: ('A' for Active; 'I' for Inactive)
REMARK    1  A    between atoms: C_1  and  O_2
REMARK    2  A    between atoms: C_1  and  C_4
REMARK    3  A    between atoms: C_1  and  C_12
REMARK    4  A    between atoms: C_4  and  O_5
REMARK    5  A    between atoms: C_4  and  C_8
REMARK    6  A    between atoms: C_8  and  C_9
REMARK    7  A    between atoms: C_9  and  O_10
REMARK    8  A    between atoms: C_12  and  O_13
REMARK    9  A    between atoms: O_13  and  P_14
REMARK   10  A    between atoms: P_14  and  O_16
REMARK   11  A    between atoms: P_14  and  O_18
REMARK                            x       y       z     vdW  Elec       q    Type
REMARK                         _______ _______ _______ _____ _____    ______ ____
ROOT
ATOM      1  C   UNL     1      37.308 -26.418 -13.877  0.00  0.00    +0.175 C 
ENDROOT
BRANCH   1   2
ATOM      2  O   UNL     1      38.557 -26.846 -14.425  0.00  0.00    -0.379 OA
ATOM      3  H   UNL     1      39.284 -26.475 -13.902  0.00  0.00    +0.211 HD
ENDBRANCH   1   2
BRANCH   1   4
ATOM      4  C   UNL     1      36.562 -25.549 -14.894  0.00  0.00    +0.200 C 
BRANCH   4   5
ATOM      5  O   UNL     1      35.219 -25.365 -14.467  0.00  0.00    -0.375 OA
ATOM      6  H   UNL     1      35.193 -24.695 -13.767  0.00  0.00    +0.211 HD
ENDBRANCH   4   5
BRANCH   4   8
ATOM      7  O   UNL     1      38.433 -24.037 -15.094  0.00  0.00    -0.291 OA
ATOM      8  C   UNL     1      37.210 -24.180 -15.083  0.00  0.00    +0.209 C 
BRANCH   8   9
ATOM      9  C   UNL     1      36.273 -23.003 -15.285  0.00  0.00    +0.205 C 
BRANCH   9  10
ATOM     10  O   UNL     1      35.469 -23.202 -16.429  0.00  0.00    -0.375 OA
ATOM     11  H   UNL     1      34.544 -23.318 -16.159  0.00  0.00    +0.211 HD
ENDBRANCH   9  10
ENDBRANCH   8   9
ENDBRANCH   4   8
ENDBRANCH   1   4
BRANCH   1  12
ATOM     12  C   UNL     1      37.614 -25.651 -12.591  0.00  0.00    +0.186 C 
BRANCH  12  13
ATOM     13  O   UNL     1      36.429 -25.573 -11.806  0.00  0.00    -0.271 OA
BRANCH  13  14
ATOM     14  P   UNL     1      36.040 -24.150 -11.148  0.00  0.00    +0.473 P 
ATOM     15  O   UNL     1      37.172 -23.171 -11.036  0.00  0.00    -0.227 OA
BRANCH  14  16
ATOM     16  O   UNL     1      35.330 -24.551  -9.752  0.00  0.00    -0.303 OA
ATOM     17  H   UNL     1      34.933 -25.431  -9.833  0.00  0.00    +0.222 HD
ENDBRANCH  14  16
BRANCH  14  18
ATOM     18  O   UNL     1      34.803 -23.660 -12.068  0.00  0.00    -0.303 OA
ATOM     19  H   UNL     1      34.258 -23.032 -11.567  0.00  0.00    +0.222 HD
ENDBRANCH  14  18
ENDBRANCH  13  14
ENDBRANCH  12  13
ENDBRANCH   1  12
TORSDOF 11
ENDMDL
MODEL 5
REMARK VINA RESULT:      -5.8      2.561      4.265
REMARK  Name = 23615404
REMARK  11 active torsions:
REMARK  status: ('A' for Active; 'I' for Inactive)
REMARK    1  A    between atoms: C_1  and  O_2
REMARK    2  A    between atoms: C_1  and  C_4
REMARK    3  A    between atoms: C_1  and  C_12
REMARK    4  A    between atoms: C_4  and  O_5
REMARK    5  A    between atoms: C_4  and  C_8
REMARK    6  A    between atoms: C_8  and  C_9
REMARK    7  A    between atoms: C_9  and  O_10
REMARK    8  A    between atoms: C_12  and  O_13
REMARK    9  A    between atoms: O_13  and  P_14
REMARK   10  A    between atoms: P_14  and  O_16
REMARK   11  A    between atoms: P_14  and  O_18
REMARK                            x       y       z     vdW  Elec       q    Type
REMARK                         _______ _______ _______ _____ _____    ______ ____
ROOT
ATOM      1  C   UNL     1      38.647 -24.995 -13.528  0.00  0.00    +0.175 C 
ENDROOT
BRANCH   1   2
ATOM      2  O   UNL     1      40.043 -24.739 -13.700  0.00  0.00    -0.379 OA
ATOM      3  H   UNL     1      40.232 -24.590 -14.640  0.00  0.00    +0.211 HD
ENDBRANCH   1   2
BRANCH   1   4
ATOM      4  C   UNL     1      37.847 -24.274 -14.617  0.00  0.00    +0.200 C 
BRANCH   4   5
ATOM      5  O   UNL     1      38.714 -23.919 -15.686  0.00  0.00    -0.375 OA
ATOM      6  H   UNL     1      38.195 -23.526 -16.405  0.00  0.00    +0.211 HD
ENDBRANCH   4   5
BRANCH   4   8
ATOM      7  O   UNL     1      35.722 -24.621 -15.709  0.00  0.00    -0.291 OA
ATOM      8  C   UNL     1      36.707 -25.126 -15.170  0.00  0.00    +0.209 C 
BRANCH   8   9
ATOM      9  C   UNL     1      36.860 -26.631 -15.049  0.00  0.00    +0.205 C 
BRANCH   9  10
ATOM     10  O   UNL     1      36.794 -27.240 -16.321  0.00  0.00    -0.375 OA
ATOM     11  H   UNL     1      36.946 -26.572 -17.008  0.00  0.00    +0.211 HD
ENDBRANCH   9  10
ENDBRANCH   8   9
ENDBRANCH   4   8
ENDBRANCH   1   4
BRANCH   1  12
ATOM     12  C   UNL     1      38.265 -24.513 -12.129  0.00  0.00    +0.186 C 
BRANCH  12  13
ATOM     13  O   UNL     1      37.115 -25.229 -11.692  0.00  0.00    -0.271 OA
BRANCH  13  14
ATOM     14  P   UNL     1      35.797 -24.387 -11.290  0.00  0.00    +0.473 P 
ATOM     15  O   UNL     1      35.457 -24.396  -9.828  0.00  0.00    -0.227 OA
BRANCH  14  16
ATOM     16  O   UNL     1      34.651 -24.972 -12.269  0.00  0.00    -0.303 OA
ATOM     17  H   UNL     1      33.828 -24.478 -12.133  0.00  0.00    +0.222 HD
ENDBRANCH  14  16
BRANCH  14  18
ATOM     18  O   UNL     1      36.106 -22.925 -11.910  0.00  0.00    -0.303 OA
ATOM     19  H   UNL     1      35.295 -22.393 -11.901  0.00  0.00    +0.222 HD
ENDBRANCH  14  18
ENDBRANCH  13  14
ENDBRANCH  12  13
ENDBRANCH   1  12
TORSDOF 11
ENDMDL
MODEL 6
REMARK VINA RESULT:      -5.8      1.715      2.181
REMARK  Name = 23615404
REMARK  11 active torsions:
REMARK  status: ('A' for Active; 'I' for Inactive)
REMARK    1  A    between atoms: C_1  and  O_2
REMARK    2  A    between atoms: C_1  and  C_4
REMARK    3  A    between atoms: C_1  and  C_12
REMARK    4  A    between atoms: C_4  and  O_5
REMARK    5  A    between atoms: C_4  and  C_8
REMARK    6  A    between atoms: C_8  and  C_9
REMARK    7  A    between atoms: C_9  and  O_10
REMARK    8  A    between atoms: C_12  and  O_13
REMARK    9  A    between atoms: O_13  and  P_14
REMARK   10  A    between atoms: P_14  and  O_16
REMARK   11  A    between atoms: P_14  and  O_18
REMARK                            x       y       z     vdW  Elec       q    Type
REMARK                         _______ _______ _______ _____ _____    ______ ____
ROOT
ATOM      1  C   UNL     1      37.058 -24.754 -11.954  0.00  0.00    +0.175 C 
ENDROOT
BRANCH   1   2
ATOM      2  O   UNL     1      35.937 -25.333 -11.283  0.00  0.00    -0.379 OA
ATOM      3  H   UNL     1      35.122 -24.901 -11.581  0.00  0.00    +0.211 HD
ENDBRANCH   1   2
BRANCH   1   4
ATOM      4  C   UNL     1      36.623 -23.485 -12.694  0.00  0.00    +0.200 C 
BRANCH   4   5
ATOM      5  O   UNL     1      37.742 -22.920 -13.364  0.00  0.00    -0.375 OA
ATOM      6  H   UNL     1      38.553 -23.145 -12.883  0.00  0.00    +0.211 HD
ENDBRANCH   4   5
BRANCH   4   8
ATOM      7  O   UNL     1      34.474 -24.320 -13.406  0.00  0.00    -0.291 OA
ATOM      8  C   UNL     1      35.520 -23.750 -13.716  0.00  0.00    +0.209 C 
BRANCH   8   9
ATOM      9  C   UNL     1      35.764 -23.251 -15.128  0.00  0.00    +0.205 C 
BRANCH   9  10
ATOM     10  O   UNL     1      36.589 -24.152 -15.837  0.00  0.00    -0.375 OA
ATOM     11  H   UNL     1      37.357 -23.677 -16.191  0.00  0.00    +0.211 HD
ENDBRANCH   9  10
ENDBRANCH   8   9
ENDBRANCH   4   8
ENDBRANCH   1   4
BRANCH   1  12
ATOM     12  C   UNL     1      37.611 -25.808 -12.911  0.00  0.00    +0.186 C 
BRANCH  12  13
ATOM     13  O   UNL     1      38.983 -25.527 -13.166  0.00  0.00    -0.271 OA
BRANCH  13  14
ATOM     14  P   UNL     1      39.549 -25.770 -14.659  0.00  0.00    +0.473 P 
ATOM     15  O   UNL     1      40.867 -26.485 -14.731  0.00  0.00    -0.227 OA
BRANCH  14  16
ATOM     16  O   UNL     1      39.523 -24.298 -15.327  0.00  0.00    -0.303 OA
ATOM     17  H   UNL     1      40.206 -24.243 -16.012  0.00  0.00    +0.222 HD
ENDBRANCH  14  16
BRANCH  14  18
ATOM     18  O   UNL     1      38.320 -26.530 -15.385  0.00  0.00    -0.303 OA
ATOM     19  H   UNL     1      38.571 -26.753 -16.296  0.00  0.00    +0.222 HD
ENDBRANCH  14  18
ENDBRANCH  13  14
ENDBRANCH  12  13
ENDBRANCH   1  12
TORSDOF 11
ENDMDL
MODEL 7
REMARK VINA RESULT:      -5.7      1.363      2.065
REMARK  Name = 23615404
REMARK  11 active torsions:
REMARK  status: ('A' for Active; 'I' for Inactive)
REMARK    1  A    between atoms: C_1  and  O_2
REMARK    2  A    between atoms: C_1  and  C_4
REMARK    3  A    between atoms: C_1  and  C_12
REMARK    4  A    between atoms: C_4  and  O_5
REMARK    5  A    between atoms: C_4  and  C_8
REMARK    6  A    between atoms: C_8  and  C_9
REMARK    7  A    between atoms: C_9  and  O_10
REMARK    8  A    between atoms: C_12  and  O_13
REMARK    9  A    between atoms: O_13  and  P_14
REMARK   10  A    between atoms: P_14  and  O_16
REMARK   11  A    between atoms: P_14  and  O_18
REMARK                            x       y       z     vdW  Elec       q    Type
REMARK                         _______ _______ _______ _____ _____    ______ ____
ROOT
ATOM      1  C   UNL     1      36.423 -26.037 -14.579  0.00  0.00    +0.175 C 
ENDROOT
BRANCH   1   2
ATOM      2  O   UNL     1      36.516 -26.760 -15.809  0.00  0.00    -0.379 OA
ATOM      3  H   UNL     1      37.381 -27.195 -15.864  0.00  0.00    +0.211 HD
ENDBRANCH   1   2
BRANCH   1   4
ATOM      4  C   UNL     1      36.354 -24.533 -14.863  0.00  0.00    +0.200 C 
BRANCH   4   5
ATOM      5  O   UNL     1      37.362 -24.180 -15.799  0.00  0.00    -0.375 OA
ATOM      6  H   UNL     1      38.137 -23.839 -15.325  0.00  0.00    +0.211 HD
ENDBRANCH   4   5
BRANCH   4   8
ATOM      7  O   UNL     1      34.866 -23.701 -16.573  0.00  0.00    -0.291 OA
ATOM      8  C   UNL     1      34.997 -24.102 -15.416  0.00  0.00    +0.209 C 
BRANCH   8   9
ATOM      9  C   UNL     1      33.810 -24.219 -14.478  0.00  0.00    +0.205 C 
BRANCH   9  10
ATOM     10  O   UNL     1      34.064 -23.536 -13.268  0.00  0.00    -0.375 OA
ATOM     11  H   UNL     1      34.694 -22.815 -13.430  0.00  0.00    +0.211 HD
ENDBRANCH   9  10
ENDBRANCH   8   9
ENDBRANCH   4   8
ENDBRANCH   1   4
BRANCH   1  12
ATOM     12  C   UNL     1      37.649 -26.401 -13.743  0.00  0.00    +0.186 C 
BRANCH  12  13
ATOM     13  O   UNL     1      38.691 -26.828 -14.614  0.00  0.00    -0.271 OA
BRANCH  13  14
ATOM     14  P   UNL     1      40.081 -26.004 -14.605  0.00  0.00    +0.473 P 
ATOM     15  O   UNL     1      41.257 -26.747 -14.042  0.00  0.00    -0.227 OA
BRANCH  14  16
ATOM     16  O   UNL     1      39.707 -24.624 -13.849  0.00  0.00    -0.303 OA
ATOM     17  H   UNL     1      38.834 -24.322 -14.143  0.00  0.00    +0.222 HD
ENDBRANCH  14  16
BRANCH  14  18
ATOM     18  O   UNL     1      40.236 -25.552 -16.151  0.00  0.00    -0.303 OA
ATOM     19  H   UNL     1      41.096 -25.847 -16.488  0.00  0.00    +0.222 HD
ENDBRANCH  14  18
ENDBRANCH  13  14
ENDBRANCH  12  13
ENDBRANCH   1  12
TORSDOF 11
ENDMDL
MODEL 8
REMARK VINA RESULT:      -5.7      2.585      4.420
REMARK  Name = 23615404
REMARK  11 active torsions:
REMARK  status: ('A' for Active; 'I' for Inactive)
REMARK    1  A    between atoms: C_1  and  O_2
REMARK    2  A    between atoms: C_1  and  C_4
REMARK    3  A    between atoms: C_1  and  C_12
REMARK    4  A    between atoms: C_4  and  O_5
REMARK    5  A    between atoms: C_4  and  C_8
REMARK    6  A    between atoms: C_8  and  C_9
REMARK    7  A    between atoms: C_9  and  O_10
REMARK    8  A    between atoms: C_12  and  O_13
REMARK    9  A    between atoms: O_13  and  P_14
REMARK   10  A    between atoms: P_14  and  O_16
REMARK   11  A    between atoms: P_14  and  O_18
REMARK                            x       y       z     vdW  Elec       q    Type
REMARK                         _______ _______ _______ _____ _____    ______ ____
ROOT
ATOM      1  C   UNL     1      36.671 -25.496 -14.984  0.00  0.00    +0.175 C 
ENDROOT
BRANCH   1   2
ATOM      2  O   UNL     1      36.098 -26.541 -15.773  0.00  0.00    -0.379 OA
ATOM      3  H   UNL     1      36.257 -27.396 -15.344  0.00  0.00    +0.211 HD
ENDBRANCH   1   2
BRANCH   1   4
ATOM      4  C   UNL     1      37.960 -25.991 -14.320  0.00  0.00    +0.200 C 
BRANCH   4   5
ATOM      5  O   UNL     1      38.244 -27.311 -14.762  0.00  0.00    -0.375 OA
ATOM      6  H   UNL     1      37.550 -27.603 -15.374  0.00  0.00    +0.211 HD
ENDBRANCH   4   5
BRANCH   4   8
ATOM      7  O   UNL     1      39.046 -24.068 -15.296  0.00  0.00    -0.291 OA
ATOM      8  C   UNL     1      39.159 -25.099 -14.631  0.00  0.00    +0.209 C 
BRANCH   8   9
ATOM      9  C   UNL     1      40.496 -25.528 -14.055  0.00  0.00    +0.205 C 
BRANCH   9  10
ATOM     10  O   UNL     1      40.968 -26.687 -14.709  0.00  0.00    -0.375 OA
ATOM     11  H   UNL     1      41.249 -27.340 -14.048  0.00  0.00    +0.211 HD
ENDBRANCH   9  10
ENDBRANCH   8   9
ENDBRANCH   4   8
ENDBRANCH   1   4
BRANCH   1  12
ATOM     12  C   UNL     1      35.624 -25.080 -13.951  0.00  0.00    +0.186 C 
BRANCH  12  13
ATOM     13  O   UNL     1      36.125 -25.359 -12.648  0.00  0.00    -0.271 OA
BRANCH  13  14
ATOM     14  P   UNL     1      35.851 -24.281 -11.477  0.00  0.00    +0.473 P 
ATOM     15  O   UNL     1      37.022 -23.408 -11.130  0.00  0.00    -0.227 OA
BRANCH  14  16
ATOM     16  O   UNL     1      35.268 -25.172 -10.259  0.00  0.00    -0.303 OA
ATOM     17  H   UNL     1      34.301 -25.202 -10.317  0.00  0.00    +0.222 HD
ENDBRANCH  14  16
BRANCH  14  18
ATOM     18  O   UNL     1      34.547 -23.491 -12.018  0.00  0.00    -0.303 OA
ATOM     19  H   UNL     1      34.014 -24.088 -12.566  0.00  0.00    +0.222 HD
ENDBRANCH  14  18
ENDBRANCH  13  14
ENDBRANCH  12  13
ENDBRANCH   1  12
TORSDOF 11
ENDMDL
MODEL 9
REMARK VINA RESULT:      -5.4      2.306      3.317
REMARK  Name = 23615404
REMARK  11 active torsions:
REMARK  status: ('A' for Active; 'I' for Inactive)
REMARK    1  A    between atoms: C_1  and  O_2
REMARK    2  A    between atoms: C_1  and  C_4
REMARK    3  A    between atoms: C_1  and  C_12
REMARK    4  A    between atoms: C_4  and  O_5
REMARK    5  A    between atoms: C_4  and  C_8
REMARK    6  A    between atoms: C_8  and  C_9
REMARK    7  A    between atoms: C_9  and  O_10
REMARK    8  A    between atoms: C_12  and  O_13
REMARK    9  A    between atoms: O_13  and  P_14
REMARK   10  A    between atoms: P_14  and  O_16
REMARK   11  A    between atoms: P_14  and  O_18
REMARK                            x       y       z     vdW  Elec       q    Type
REMARK                         _______ _______ _______ _____ _____    ______ ____
ROOT
ATOM      1  C   UNL     1      37.000 -24.992 -12.294  0.00  0.00    +0.175 C 
ENDROOT
BRANCH   1   2
ATOM      2  O   UNL     1      37.114 -26.404 -12.100  0.00  0.00    -0.379 OA
ATOM      3  H   UNL     1      36.255 -26.824 -12.266  0.00  0.00    +0.211 HD
ENDBRANCH   1   2
BRANCH   1   4
ATOM      4  C   UNL     1      35.991 -24.699 -13.409  0.00  0.00    +0.200 C 
BRANCH   4   5
ATOM      5  O   UNL     1      35.782 -25.874 -14.181  0.00  0.00    -0.375 OA
ATOM      6  H   UNL     1      36.462 -26.530 -13.960  0.00  0.00    +0.211 HD
ENDBRANCH   4   5
BRANCH   4   8
ATOM      7  O   UNL     1      34.531 -23.747 -11.739  0.00  0.00    -0.291 OA
ATOM      8  C   UNL     1      34.645 -24.219 -12.871  0.00  0.00    +0.209 C 
BRANCH   8   9
ATOM      9  C   UNL     1      33.458 -24.324 -13.810  0.00  0.00    +0.205 C 
BRANCH   9  10
ATOM     10  O   UNL     1      32.468 -25.170 -13.264  0.00  0.00    -0.375 OA
ATOM     11  H   UNL     1      31.965 -24.687 -12.588  0.00  0.00    +0.211 HD
ENDBRANCH   9  10
ENDBRANCH   8   9
ENDBRANCH   4   8
ENDBRANCH   1   4
BRANCH   1  12
ATOM     12  C   UNL     1      38.393 -24.467 -12.637  0.00  0.00    +0.186 C 
BRANCH  12  13
ATOM     13  O   UNL     1      39.220 -25.562 -13.016  0.00  0.00    -0.271 OA
BRANCH  13  14
ATOM     14  P   UNL     1      39.518 -25.788 -14.587  0.00  0.00    +0.473 P 
ATOM     15  O   UNL     1      40.927 -26.187 -14.917  0.00  0.00    -0.227 OA
BRANCH  14  16
ATOM     16  O   UNL     1      39.007 -24.418 -15.278  0.00  0.00    -0.303 OA
ATOM     17  H   UNL     1      39.441 -23.662 -14.854  0.00  0.00    +0.222 HD
ENDBRANCH  14  16
BRANCH  14  18
ATOM     18  O   UNL     1      38.387 -26.863 -15.013  0.00  0.00    -0.303 OA
ATOM     19  H   UNL     1      38.690 -27.360 -15.789  0.00  0.00    +0.222 HD
ENDBRANCH  14  18
ENDBRANCH  13  14
ENDBRANCH  12  13
ENDBRANCH   1  12
TORSDOF 11
ENDMDL
