MODEL 1
REMARK VINA RESULT:     -10.0      0.000      0.000
REMARK  Name = 107930
REMARK  1 active torsions:
REMARK  status: ('A' for Active; 'I' for Inactive)
REMARK    1  A    between atoms: C_19  and  O_23
REMARK                            x       y       z     vdW  Elec       q    Type
REMARK                         _______ _______ _______ _____ _____    ______ ____
ROOT
ATOM      1 CL   UNL     1      31.070 -11.196 -17.922  0.00  0.00    -0.079 Cl
ATOM      2  N   UNL     1      34.127 -11.802 -24.292  0.00  0.00    +0.387 N 
ATOM      3  C   UNL     1      34.110 -10.380 -23.881  0.00  0.00    -0.050 C 
ATOM      4  C   UNL     1      32.685  -9.787 -23.613  0.00  0.00    +0.025 C 
ATOM      5  C   UNL     1      34.940  -9.521 -24.856  0.00  0.00    -0.016 C 
ATOM      6  C   UNL     1      32.513  -8.316 -23.996  0.00  0.00    -0.024 C 
ATOM      7  C   UNL     1      32.281 -10.119 -22.169  0.00  0.00    -0.021 C 
ATOM      8  C   UNL     1      34.995  -8.075 -24.376  0.00  0.00    +0.024 C 
ATOM      9  C   UNL     1      33.607  -7.502 -24.333  0.00  0.00    -0.026 C 
ATOM     10  C   UNL     1      33.664 -12.732 -23.253  0.00  0.00    -0.073 C 
ATOM     11  C   UNL     1      32.205 -12.590 -22.794  0.00  0.00    +0.003 C 
ATOM     12  C   UNL     1      32.026 -11.461 -21.808  0.00  0.00    -0.027 C 
ATOM     13  C   UNL     1      33.532 -12.095 -25.594  0.00  0.00    -0.101 C 
ATOM     14  C   UNL     1      31.220  -7.759 -24.028  0.00  0.00    -0.004 C 
ATOM     15  C   UNL     1      32.209  -9.134 -21.167  0.00  0.00    +0.033 C 
ATOM     16  C   UNL     1      33.404  -6.145 -24.627  0.00  0.00    -0.005 C 
ATOM     17  C   UNL     1      31.642 -11.768 -20.491  0.00  0.00    +0.010 C 
ATOM     18  C   UNL     1      31.026  -6.414 -24.340  0.00  0.00    -0.000 C 
ATOM     19  C   UNL     1      31.832  -9.454 -19.861  0.00  0.00    +0.144 C 
ATOM     20  C   UNL     1      32.120  -5.605 -24.631  0.00  0.00    -0.000 C 
ATOM     21  C   UNL     1      31.539 -10.770 -19.525  0.00  0.00    +0.091 C 
ATOM     22  H   UNL     1      35.123 -11.975 -24.421  0.00  0.00    -0.080 HD
ENDROOT
BRANCH  19  23
ATOM     23  O   UNL     1      31.765  -8.455 -18.936  0.00  0.00    -0.505 OA
ATOM     24  H   UNL     1      31.251  -7.691 -19.109  0.00  0.00    +0.292 HD
ENDBRANCH  19  23
TORSDOF 1
ENDMDL
MODEL 2
REMARK VINA RESULT:      -9.4     13.955     17.101
REMARK  Name = 107930
REMARK  1 active torsions:
REMARK  status: ('A' for Active; 'I' for Inactive)
REMARK    1  A    between atoms: C_19  and  O_23
REMARK                            x       y       z     vdW  Elec       q    Type
REMARK                         _______ _______ _______ _____ _____    ______ ____
ROOT
ATOM      1 CL   UNL     1      34.490 -21.025 -20.014  0.00  0.00    -0.079 Cl
ATOM      2  N   UNL     1      32.101 -23.700 -13.896  0.00  0.00    +0.387 N 
ATOM      3  C   UNL     1      33.576 -23.582 -13.846  0.00  0.00    -0.050 C 
ATOM      4  C   UNL     1      34.341 -24.388 -14.949  0.00  0.00    +0.025 C 
ATOM      5  C   UNL     1      34.097 -23.873 -12.424  0.00  0.00    -0.016 C 
ATOM      6  C   UNL     1      35.685 -24.970 -14.512  0.00  0.00    -0.024 C 
ATOM      7  C   UNL     1      34.402 -23.534 -16.224  0.00  0.00    -0.021 C 
ATOM      8  C   UNL     1      35.606 -23.660 -12.358  0.00  0.00    +0.024 C 
ATOM      9  C   UNL     1      36.294 -24.607 -13.298  0.00  0.00    -0.026 C 
ATOM     10  C   UNL     1      31.493 -23.111 -15.097  0.00  0.00    -0.073 C 
ATOM     11  C   UNL     1      31.871 -23.741 -16.445  0.00  0.00    +0.003 C 
ATOM     12  C   UNL     1      33.215 -23.264 -16.941  0.00  0.00    -0.027 C 
ATOM     13  C   UNL     1      31.558 -25.023 -13.598  0.00  0.00    -0.101 C 
ATOM     14  C   UNL     1      36.332 -25.910 -15.338  0.00  0.00    -0.004 C 
ATOM     15  C   UNL     1      35.602 -22.957 -16.681  0.00  0.00    +0.033 C 
ATOM     16  C   UNL     1      37.552 -25.129 -12.964  0.00  0.00    -0.005 C 
ATOM     17  C   UNL     1      33.269 -22.495 -18.116  0.00  0.00    +0.010 C 
ATOM     18  C   UNL     1      37.574 -26.437 -14.988  0.00  0.00    -0.000 C 
ATOM     19  C   UNL     1      35.639 -22.190 -17.847  0.00  0.00    +0.144 C 
ATOM     20  C   UNL     1      38.188 -26.040 -13.805  0.00  0.00    -0.000 C 
ATOM     21  C   UNL     1      34.475 -21.967 -18.570  0.00  0.00    +0.091 C 
ATOM     22  H   UNL     1      31.814 -23.121 -13.106  0.00  0.00    -0.080 HD
ENDROOT
BRANCH  19  23
ATOM     23  O   UNL     1      36.834 -21.669 -18.248  0.00  0.00    -0.505 OA
ATOM     24  H   UNL     1      37.596 -21.781 -17.716  0.00  0.00    +0.292 HD
ENDBRANCH  19  23
TORSDOF 1
ENDMDL
MODEL 3
REMARK VINA RESULT:      -8.6      3.304      4.926
REMARK  Name = 107930
REMARK  1 active torsions:
REMARK  status: ('A' for Active; 'I' for Inactive)
REMARK    1  A    between atoms: C_19  and  O_23
REMARK                            x       y       z     vdW  Elec       q    Type
REMARK                         _______ _______ _______ _____ _____    ______ ____
ROOT
ATOM      1 CL   UNL     1      35.378 -17.871 -21.230  0.00  0.00    -0.079 Cl
ATOM      2  N   UNL     1      33.723 -13.308 -26.399  0.00  0.00    +0.387 N 
ATOM      3  C   UNL     1      33.874 -12.578 -25.121  0.00  0.00    -0.050 C 
ATOM      4  C   UNL     1      32.908 -13.042 -23.978  0.00  0.00    +0.025 C 
ATOM      5  C   UNL     1      33.834 -11.055 -25.355  0.00  0.00    -0.016 C 
ATOM      6  C   UNL     1      32.432 -11.930 -23.042  0.00  0.00    -0.024 C 
ATOM      7  C   UNL     1      33.538 -14.247 -23.265  0.00  0.00    -0.021 C 
ATOM      8  C   UNL     1      34.082 -10.309 -24.048  0.00  0.00    +0.024 C 
ATOM      9  C   UNL     1      33.003 -10.646 -23.059  0.00  0.00    -0.026 C 
ATOM     10  C   UNL     1      34.092 -14.728 -26.326  0.00  0.00    -0.073 C 
ATOM     11  C   UNL     1      33.252 -15.616 -25.397  0.00  0.00    +0.003 C 
ATOM     12  C   UNL     1      33.663 -15.476 -23.951  0.00  0.00    -0.027 C 
ATOM     13  C   UNL     1      32.459 -13.105 -27.103  0.00  0.00    -0.101 C 
ATOM     14  C   UNL     1      31.379 -12.190 -22.143  0.00  0.00    -0.004 C 
ATOM     15  C   UNL     1      34.051 -14.158 -21.957  0.00  0.00    +0.033 C 
ATOM     16  C   UNL     1      32.567  -9.675 -22.146  0.00  0.00    -0.005 C 
ATOM     17  C   UNL     1      34.226 -16.586 -23.297  0.00  0.00    +0.010 C 
ATOM     18  C   UNL     1      30.939 -11.211 -21.252  0.00  0.00    -0.000 C 
ATOM     19  C   UNL     1      34.613 -15.267 -21.323  0.00  0.00    +0.144 C 
ATOM     20  C   UNL     1      31.540  -9.957 -21.248  0.00  0.00    -0.000 C 
ATOM     21  C   UNL     1      34.692 -16.484 -21.988  0.00  0.00    +0.091 C 
ATOM     22  H   UNL     1      34.420 -12.852 -26.988  0.00  0.00    -0.080 HD
ENDROOT
BRANCH  19  23
ATOM     23  O   UNL     1      35.081 -15.125 -20.050  0.00  0.00    -0.505 OA
ATOM     24  H   UNL     1      35.964 -15.362 -19.846  0.00  0.00    +0.292 HD
ENDBRANCH  19  23
TORSDOF 1
ENDMDL
MODEL 4
REMARK VINA RESULT:      -7.6      3.114      4.627
REMARK  Name = 107930
REMARK  1 active torsions:
REMARK  status: ('A' for Active; 'I' for Inactive)
REMARK    1  A    between atoms: C_19  and  O_23
REMARK                            x       y       z     vdW  Elec       q    Type
REMARK                         _______ _______ _______ _____ _____    ______ ____
ROOT
ATOM      1 CL   UNL     1      33.638 -15.229 -25.853  0.00  0.00    -0.079 Cl
ATOM      2  N   UNL     1      31.040 -10.648 -21.103  0.00  0.00    +0.387 N 
ATOM      3  C   UNL     1      31.344  -9.938 -22.366  0.00  0.00    -0.050 C 
ATOM      4  C   UNL     1      32.839 -10.017 -22.824  0.00  0.00    +0.025 C 
ATOM      5  C   UNL     1      30.808  -8.493 -22.320  0.00  0.00    -0.016 C 
ATOM      6  C   UNL     1      33.368  -8.765 -23.527  0.00  0.00    -0.024 C 
ATOM      7  C   UNL     1      33.042 -11.320 -23.610  0.00  0.00    -0.021 C 
ATOM      8  C   UNL     1      31.043  -7.797 -23.656  0.00  0.00    +0.024 C 
ATOM      9  C   UNL     1      32.516  -7.728 -23.941  0.00  0.00    -0.026 C 
ATOM     10  C   UNL     1      31.197 -12.107 -21.184  0.00  0.00    -0.073 C 
ATOM     11  C   UNL     1      32.609 -12.638 -21.471  0.00  0.00    +0.003 C 
ATOM     12  C   UNL     1      32.959 -12.560 -22.938  0.00  0.00    -0.027 C 
ATOM     13  C   UNL     1      31.654 -10.097 -19.898  0.00  0.00    -0.101 C 
ATOM     14  C   UNL     1      34.752  -8.636 -23.755  0.00  0.00    -0.004 C 
ATOM     15  C   UNL     1      33.254 -11.330 -25.001  0.00  0.00    +0.033 C 
ATOM     16  C   UNL     1      33.041  -6.623 -24.627  0.00  0.00    -0.005 C 
ATOM     17  C   UNL     1      33.157 -13.755 -23.651  0.00  0.00    +0.010 C 
ATOM     18  C   UNL     1      35.267  -7.525 -24.421  0.00  0.00    -0.000 C 
ATOM     19  C   UNL     1      33.444 -12.525 -25.698  0.00  0.00    +0.144 C 
ATOM     20  C   UNL     1      34.411  -6.523 -24.865  0.00  0.00    -0.000 C 
ATOM     21  C   UNL     1      33.406 -13.737 -25.021  0.00  0.00    +0.091 C 
ATOM     22  H   UNL     1      30.043 -10.465 -20.990  0.00  0.00    -0.080 HD
ENDROOT
BRANCH  19  23
ATOM     23  O   UNL     1      33.661 -12.470 -27.043  0.00  0.00    -0.505 OA
ATOM     24  H   UNL     1      34.479 -12.756 -27.397  0.00  0.00    +0.292 HD
ENDBRANCH  19  23
TORSDOF 1
ENDMDL
MODEL 5
REMARK VINA RESULT:      -7.2     13.312     16.138
REMARK  Name = 107930
REMARK  1 active torsions:
REMARK  status: ('A' for Active; 'I' for Inactive)
REMARK    1  A    between atoms: C_19  and  O_23
REMARK                            x       y       z     vdW  Elec       q    Type
REMARK                         _______ _______ _______ _____ _____    ______ ____
ROOT
ATOM      1 CL   UNL     1      35.365 -20.916 -21.000  0.00  0.00    -0.079 Cl
ATOM      2  N   UNL     1      37.428 -23.824 -14.870  0.00  0.00    +0.387 N 
ATOM      3  C   UNL     1      36.047 -24.253 -15.184  0.00  0.00    -0.050 C 
ATOM      4  C   UNL     1      35.011 -23.087 -15.330  0.00  0.00    +0.025 C 
ATOM      5  C   UNL     1      35.579 -25.347 -14.204  0.00  0.00    -0.016 C 
ATOM      6  C   UNL     1      33.598 -23.410 -14.842  0.00  0.00    -0.024 C 
ATOM      7  C   UNL     1      35.079 -22.550 -16.767  0.00  0.00    -0.021 C 
ATOM      8  C   UNL     1      34.192 -25.849 -14.589  0.00  0.00    +0.024 C 
ATOM      9  C   UNL     1      33.205 -24.719 -14.515  0.00  0.00    -0.026 C 
ATOM     10  C   UNL     1      38.075 -23.053 -15.940  0.00  0.00    -0.073 C 
ATOM     11  C   UNL     1      37.439 -21.703 -16.304  0.00  0.00    +0.003 C 
ATOM     12  C   UNL     1      36.236 -21.864 -17.202  0.00  0.00    -0.027 C 
ATOM     13  C   UNL     1      37.621 -23.211 -13.558  0.00  0.00    -0.101 C 
ATOM     14  C   UNL     1      32.663 -22.367 -14.699  0.00  0.00    -0.004 C 
ATOM     15  C   UNL     1      34.044 -22.765 -17.696  0.00  0.00    +0.033 C 
ATOM     16  C   UNL     1      31.883 -24.974 -14.120  0.00  0.00    -0.005 C 
ATOM     17  C   UNL     1      36.296 -21.359 -18.512  0.00  0.00    +0.010 C 
ATOM     18  C   UNL     1      31.356 -22.628 -14.287  0.00  0.00    -0.000 C 
ATOM     19  C   UNL     1      34.121 -22.262 -18.996  0.00  0.00    +0.144 C 
ATOM     20  C   UNL     1      30.965 -23.932 -14.007  0.00  0.00    -0.000 C 
ATOM     21  C   UNL     1      35.242 -21.550 -19.402  0.00  0.00    +0.091 C 
ATOM     22  H   UNL     1      37.920 -24.716 -14.811  0.00  0.00    -0.080 HD
ENDROOT
BRANCH  19  23
ATOM     23  O   UNL     1      33.080 -22.490 -19.848  0.00  0.00    -0.505 OA
ATOM     24  H   UNL     1      33.247 -22.719 -20.741  0.00  0.00    +0.292 HD
ENDBRANCH  19  23
TORSDOF 1
ENDMDL
