MODEL 1
REMARK VINA RESULT:      -6.7      0.000      0.000
REMARK  Name = 439224
REMARK  8 active torsions:
REMARK  status: ('A' for Active; 'I' for Inactive)
REMARK    1  A    between atoms: CA_1  and  N_3
REMARK    2  A    between atoms: CA_1  and  C_13
REMARK    3  A    between atoms: CA_1  and  CB_16
REMARK    4  A    between atoms: C_4  and  C_6
REMARK    5  A    between atoms: C_6  and  C_7
REMARK    6  A    between atoms: C_7  and  N_8
REMARK    7  A    between atoms: C_13  and  O_14
REMARK    8  A    between atoms: CB_16  and  CG_19
REMARK                            x       y       z     vdW  Elec       q    Type
REMARK                         _______ _______ _______ _____ _____    ______ ____
ROOT
ATOM      1  CA  HIS A   1      39.084 -25.007 -14.228  0.00  0.00    +0.177 C 
ENDROOT
BRANCH   1   3
ATOM      2  O   UNK A   0      37.698 -22.500 -14.150  0.00  0.00    -0.275 OA
ATOM      3  N   HIS A   1      38.217 -24.475 -15.252  0.00  0.00    -0.297 N 
ATOM      4  C   UNK A   0      37.589 -23.245 -15.119  0.00  0.00    +0.221 C 
ATOM      5  H   HIS A   1      38.067 -25.002 -16.069  0.00  0.00    +0.150 HD
BRANCH   4   6
ATOM      6  C   UNK A   0      36.735 -22.918 -16.331  0.00  0.00    +0.061 C 
BRANCH   6   7
ATOM      7  C   UNK A   0      35.245 -23.076 -16.050  0.00  0.00    -0.077 C 
BRANCH   7   8
ATOM      8  N   UNK A   0      34.951 -22.729 -14.665  0.00  0.00    +0.381 N 
ATOM      9  H   UNK A   0      35.819 -22.501 -14.180  0.00  0.00    -0.089 HD
ATOM     10  H   UNK A   0      34.503 -23.521 -14.204  0.00  0.00    -0.089 HD
ATOM     11  H   UNK A   0      34.327 -21.923 -14.641  0.00  0.00    -0.089 HD
ENDBRANCH   7   8
ENDBRANCH   6   7
ENDBRANCH   4   6
ENDBRANCH   1   3
BRANCH   1  13
ATOM     12  OXT HIS A   1      41.052 -26.413 -14.168  0.00  0.00    -0.248 OA
ATOM     13  C   HIS A   1      40.217 -25.818 -14.842  0.00  0.00    +0.332 C 
BRANCH  13  14
ATOM     14  O   HIS A   1      40.238 -25.832 -16.196  0.00  0.00    -0.479 OA
ATOM     15  H   HIS A   1      40.109 -26.637 -16.658  0.00  0.00    +0.295 HD
ENDBRANCH  13  14
ENDBRANCH   1  13
BRANCH   1  16
ATOM     16  CB  HIS A   1      38.306 -25.868 -13.224  0.00  0.00    +0.073 C 
BRANCH  16  19
ATOM     17  ND1 HIS A   1      37.873 -24.034 -11.595  0.00  0.00    -0.319 N 
ATOM     18  NE2 HIS A   1      35.686 -24.152 -11.230  0.00  0.00    -0.315 N 
ATOM     19  CG  HIS A   1      37.396 -25.047 -12.342  0.00  0.00    +0.040 C 
ATOM     20  CD2 HIS A   1      36.068 -25.122 -12.123  0.00  0.00    +0.069 C 
ATOM     21  CE1 HIS A   1      36.797 -23.516 -10.931  0.00  0.00    +0.182 C 
ATOM     22  HD1 HIS A   1      38.807 -23.730 -11.538  0.00  0.00    +0.148 HD
ATOM     23  HE2 HIS A   1      34.780 -23.974 -10.887  0.00  0.00    +0.148 HD
ENDBRANCH  16  19
ENDBRANCH   1  16
TORSDOF 8
ENDMDL
MODEL 2
REMARK VINA RESULT:      -6.6      8.508     10.774
REMARK  Name = 439224
REMARK  8 active torsions:
REMARK  status: ('A' for Active; 'I' for Inactive)
REMARK    1  A    between atoms: CA_1  and  N_3
REMARK    2  A    between atoms: CA_1  and  C_13
REMARK    3  A    between atoms: CA_1  and  CB_16
REMARK    4  A    between atoms: C_4  and  C_6
REMARK    5  A    between atoms: C_6  and  C_7
REMARK    6  A    between atoms: C_7  and  N_8
REMARK    7  A    between atoms: C_13  and  O_14
REMARK    8  A    between atoms: CB_16  and  CG_19
REMARK                            x       y       z     vdW  Elec       q    Type
REMARK                         _______ _______ _______ _____ _____    ______ ____
ROOT
ATOM      1  CA  HIS A   1      34.644 -17.779 -21.459  0.00  0.00    +0.177 C 
ENDROOT
BRANCH   1   3
ATOM      2  O   UNK A   0      35.006 -15.214 -20.234  0.00  0.00    -0.275 OA
ATOM      3  N   HIS A   1      33.653 -16.736 -21.345  0.00  0.00    -0.297 N 
ATOM      4  C   UNK A   0      33.927 -15.522 -20.731  0.00  0.00    +0.221 C 
ATOM      5  H   HIS A   1      32.754 -16.891 -21.715  0.00  0.00    +0.150 HD
BRANCH   4   6
ATOM      6  C   UNK A   0      32.720 -14.602 -20.743  0.00  0.00    +0.061 C 
BRANCH   6   7
ATOM      7  C   UNK A   0      32.606 -13.813 -22.043  0.00  0.00    -0.077 C 
BRANCH   7   8
ATOM      8  N   UNK A   0      33.883 -13.806 -22.745  0.00  0.00    +0.381 N 
ATOM      9  H   UNK A   0      34.259 -12.858 -22.757  0.00  0.00    -0.089 HD
ATOM     10  H   UNK A   0      33.746 -14.129 -23.703  0.00  0.00    -0.089 HD
ATOM     11  H   UNK A   0      34.538 -14.425 -22.268  0.00  0.00    -0.089 HD
ENDBRANCH   7   8
ENDBRANCH   6   7
ENDBRANCH   4   6
ENDBRANCH   1   3
BRANCH   1  13
ATOM     12  OXT HIS A   1      35.904 -18.576 -23.365  0.00  0.00    -0.248 OA
ATOM     13  C   HIS A   1      35.455 -17.621 -22.739  0.00  0.00    +0.332 C 
BRANCH  13  14
ATOM     14  O   HIS A   1      35.648 -16.340 -23.136  0.00  0.00    -0.479 OA
ATOM     15  H   HIS A   1      35.861 -15.682 -22.505  0.00  0.00    +0.295 HD
ENDBRANCH  13  14
ENDBRANCH   1  13
BRANCH   1  16
ATOM     16  CB  HIS A   1      34.003 -19.171 -21.413  0.00  0.00    +0.073 C 
BRANCH  16  19
ATOM     17  ND1 HIS A   1      36.090 -20.021 -20.353  0.00  0.00    -0.319 N 
ATOM     18  NE2 HIS A   1      35.404 -21.742 -19.129  0.00  0.00    -0.315 N 
ATOM     19  CG  HIS A   1      34.759 -20.127 -20.520  0.00  0.00    +0.040 C 
ATOM     20  CD2 HIS A   1      34.338 -21.170 -19.779  0.00  0.00    +0.069 C 
ATOM     21  CE1 HIS A   1      36.443 -21.027 -19.497  0.00  0.00    +0.182 C 
ATOM     22  HD1 HIS A   1      36.688 -19.356 -20.763  0.00  0.00    +0.148 HD
ATOM     23  HE2 HIS A   1      35.392 -22.518 -18.523  0.00  0.00    +0.148 HD
ENDBRANCH  16  19
ENDBRANCH   1  16
TORSDOF 8
ENDMDL
MODEL 3
REMARK VINA RESULT:      -6.5      8.425     11.157
REMARK  Name = 439224
REMARK  8 active torsions:
REMARK  status: ('A' for Active; 'I' for Inactive)
REMARK    1  A    between atoms: CA_1  and  N_3
REMARK    2  A    between atoms: CA_1  and  C_13
REMARK    3  A    between atoms: CA_1  and  CB_16
REMARK    4  A    between atoms: C_4  and  C_6
REMARK    5  A    between atoms: C_6  and  C_7
REMARK    6  A    between atoms: C_7  and  N_8
REMARK    7  A    between atoms: C_13  and  O_14
REMARK    8  A    between atoms: CB_16  and  CG_19
REMARK                            x       y       z     vdW  Elec       q    Type
REMARK                         _______ _______ _______ _____ _____    ______ ____
ROOT
ATOM      1  CA  HIS A   1      34.506 -18.334 -21.551  0.00  0.00    +0.177 C 
ENDROOT
BRANCH   1   3
ATOM      2  O   UNK A   0      32.865 -20.507 -20.658  0.00  0.00    -0.275 OA
ATOM      3  N   HIS A   1      34.916 -19.421 -20.694  0.00  0.00    -0.297 N 
ATOM      4  C   UNK A   0      34.042 -20.431 -20.317  0.00  0.00    +0.221 C 
ATOM      5  H   HIS A   1      35.844 -19.447 -20.368  0.00  0.00    +0.150 HD
BRANCH   4   6
ATOM      6  C   UNK A   0      34.718 -21.450 -19.418  0.00  0.00    +0.061 C 
BRANCH   6   7
ATOM      7  C   UNK A   0      33.864 -22.696 -19.211  0.00  0.00    -0.077 C 
BRANCH   7   8
ATOM      8  N   UNK A   0      32.691 -22.379 -18.405  0.00  0.00    +0.381 N 
ATOM      9  H   UNK A   0      32.108 -21.707 -18.903  0.00  0.00    -0.089 HD
ATOM     10  H   UNK A   0      32.989 -21.977 -17.516  0.00  0.00    -0.089 HD
ATOM     11  H   UNK A   0      32.157 -23.230 -18.232  0.00  0.00    -0.089 HD
ENDBRANCH   7   8
ENDBRANCH   6   7
ENDBRANCH   4   6
ENDBRANCH   1   3
BRANCH   1  13
ATOM     12  OXT HIS A   1      34.666 -19.297 -23.764  0.00  0.00    -0.248 OA
ATOM     13  C   HIS A   1      35.095 -18.489 -22.946  0.00  0.00    +0.332 C 
BRANCH  13  14
ATOM     14  O   HIS A   1      36.137 -17.668 -23.219  0.00  0.00    -0.479 OA
ATOM     15  H   HIS A   1      36.977 -18.029 -23.422  0.00  0.00    +0.295 HD
ENDBRANCH  13  14
ENDBRANCH   1  13
BRANCH   1  16
ATOM     16  CB  HIS A   1      34.905 -16.975 -20.962  0.00  0.00    +0.073 C 
BRANCH  16  19
ATOM     17  ND1 HIS A   1      34.452 -15.016 -22.431  0.00  0.00    -0.319 N 
ATOM     18  NE2 HIS A   1      32.407 -14.375 -21.850  0.00  0.00    -0.315 N 
ATOM     19  CG  HIS A   1      34.031 -15.849 -21.462  0.00  0.00    +0.040 C 
ATOM     20  CD2 HIS A   1      32.789 -15.464 -21.106  0.00  0.00    +0.069 C 
ATOM     21  CE1 HIS A   1      33.431 -14.130 -22.637  0.00  0.00    +0.182 C 
ATOM     22  HD1 HIS A   1      35.319 -15.038 -22.896  0.00  0.00    +0.148 HD
ATOM     23  HE2 HIS A   1      31.554 -13.885 -21.803  0.00  0.00    +0.148 HD
ENDBRANCH  16  19
ENDBRANCH   1  16
TORSDOF 8
ENDMDL
MODEL 4
REMARK VINA RESULT:      -6.5      4.279      5.993
REMARK  Name = 439224
REMARK  8 active torsions:
REMARK  status: ('A' for Active; 'I' for Inactive)
REMARK    1  A    between atoms: CA_1  and  N_3
REMARK    2  A    between atoms: CA_1  and  C_13
REMARK    3  A    between atoms: CA_1  and  CB_16
REMARK    4  A    between atoms: C_4  and  C_6
REMARK    5  A    between atoms: C_6  and  C_7
REMARK    6  A    between atoms: C_7  and  N_8
REMARK    7  A    between atoms: C_13  and  O_14
REMARK    8  A    between atoms: CB_16  and  CG_19
REMARK                            x       y       z     vdW  Elec       q    Type
REMARK                         _______ _______ _______ _____ _____    ______ ____
ROOT
ATOM      1  CA  HIS A   1      33.739 -23.534 -16.631  0.00  0.00    +0.177 C 
ENDROOT
BRANCH   1   3
ATOM      2  O   UNK A   0      33.885 -23.596 -19.492  0.00  0.00    -0.275 OA
ATOM      3  N   HIS A   1      34.347 -22.537 -17.480  0.00  0.00    -0.297 N 
ATOM      4  C   UNK A   0      34.365 -22.659 -18.862  0.00  0.00    +0.221 C 
ATOM      5  H   HIS A   1      34.760 -21.747 -17.065  0.00  0.00    +0.150 HD
BRANCH   4   6
ATOM      6  C   UNK A   0      35.062 -21.481 -19.519  0.00  0.00    +0.061 C 
BRANCH   6   7
ATOM      7  C   UNK A   0      34.083 -20.556 -20.234  0.00  0.00    -0.077 C 
BRANCH   7   8
ATOM      8  N   UNK A   0      32.720 -20.817 -19.788  0.00  0.00    +0.381 N 
ATOM      9  H   UNK A   0      32.743 -21.267 -18.873  0.00  0.00    -0.089 HD
ATOM     10  H   UNK A   0      32.255 -21.431 -20.457  0.00  0.00    -0.089 HD
ATOM     11  H   UNK A   0      32.209 -19.937 -19.721  0.00  0.00    -0.089 HD
ENDBRANCH   7   8
ENDBRANCH   6   7
ENDBRANCH   4   6
ENDBRANCH   1   3
BRANCH   1  13
ATOM     12  OXT HIS A   1      31.556 -23.810 -15.624  0.00  0.00    -0.248 OA
ATOM     13  C   HIS A   1      32.239 -23.304 -16.509  0.00  0.00    +0.332 C 
BRANCH  13  14
ATOM     14  O   HIS A   1      31.708 -22.498 -17.460  0.00  0.00    -0.479 OA
ATOM     15  H   HIS A   1      31.470 -22.851 -18.294  0.00  0.00    +0.295 HD
ENDBRANCH  13  14
ENDBRANCH   1  13
BRANCH   1  16
ATOM     16  CB  HIS A   1      34.382 -23.553 -15.238  0.00  0.00    +0.073 C 
BRANCH  16  19
ATOM     17  ND1 HIS A   1      35.550 -25.743 -15.031  0.00  0.00    -0.319 N 
ATOM     18  NE2 HIS A   1      37.703 -25.213 -15.175  0.00  0.00    -0.315 N 
ATOM     19  CG  HIS A   1      35.626 -24.408 -15.187  0.00  0.00    +0.040 C 
ATOM     20  CD2 HIS A   1      36.931 -24.082 -15.275  0.00  0.00    +0.069 C 
ATOM     21  CE1 HIS A   1      36.841 -26.195 -15.028  0.00  0.00    +0.182 C 
ATOM     22  HD1 HIS A   1      34.734 -26.283 -14.937  0.00  0.00    +0.148 HD
ATOM     23  HE2 HIS A   1      38.685 -25.275 -15.205  0.00  0.00    +0.148 HD
ENDBRANCH  16  19
ENDBRANCH   1  16
TORSDOF 8
ENDMDL
MODEL 5
REMARK VINA RESULT:      -6.4     10.575     13.220
REMARK  Name = 439224
REMARK  8 active torsions:
REMARK  status: ('A' for Active; 'I' for Inactive)
REMARK    1  A    between atoms: CA_1  and  N_3
REMARK    2  A    between atoms: CA_1  and  C_13
REMARK    3  A    between atoms: CA_1  and  CB_16
REMARK    4  A    between atoms: C_4  and  C_6
REMARK    5  A    between atoms: C_6  and  C_7
REMARK    6  A    between atoms: C_7  and  N_8
REMARK    7  A    between atoms: C_13  and  O_14
REMARK    8  A    between atoms: CB_16  and  CG_19
REMARK                            x       y       z     vdW  Elec       q    Type
REMARK                         _______ _______ _______ _____ _____    ______ ____
ROOT
ATOM      1  CA  HIS A   1      34.199 -16.342 -23.778  0.00  0.00    +0.177 C 
ENDROOT
BRANCH   1   3
ATOM      2  O   UNK A   0      33.879 -17.147 -21.047  0.00  0.00    -0.275 OA
ATOM      3  N   HIS A   1      35.065 -17.230 -23.039  0.00  0.00    -0.297 N 
ATOM      4  C   UNK A   0      34.822 -17.561 -21.714  0.00  0.00    +0.221 C 
ATOM      5  H   HIS A   1      35.851 -17.614 -23.491  0.00  0.00    +0.150 HD
BRANCH   4   6
ATOM      6  C   UNK A   0      35.876 -18.509 -21.170  0.00  0.00    +0.061 C 
BRANCH   6   7
ATOM      7  C   UNK A   0      35.358 -19.937 -21.038  0.00  0.00    -0.077 C 
BRANCH   7   8
ATOM      8  N   UNK A   0      33.938 -19.932 -20.710  0.00  0.00    +0.381 N 
ATOM      9  H   UNK A   0      33.493 -19.120 -21.137  0.00  0.00    -0.089 HD
ATOM     10  H   UNK A   0      33.823 -19.888 -19.697  0.00  0.00    -0.089 HD
ATOM     11  H   UNK A   0      33.503 -20.783 -21.065  0.00  0.00    -0.089 HD
ENDBRANCH   7   8
ENDBRANCH   6   7
ENDBRANCH   4   6
ENDBRANCH   1   3
BRANCH   1  13
ATOM     12  OXT HIS A   1      33.956 -15.834 -26.131  0.00  0.00    -0.248 OA
ATOM     13  C   HIS A   1      34.238 -16.658 -25.267  0.00  0.00    +0.332 C 
BRANCH  13  14
ATOM     14  O   HIS A   1      34.605 -17.926 -25.570  0.00  0.00    -0.479 OA
ATOM     15  H   HIS A   1      34.298 -18.327 -26.359  0.00  0.00    +0.295 HD
ENDBRANCH  13  14
ENDBRANCH   1  13
BRANCH   1  16
ATOM     16  CB  HIS A   1      34.572 -14.872 -23.544  0.00  0.00    +0.073 C 
BRANCH  16  19
ATOM     17  ND1 HIS A   1      33.346 -14.208 -21.480  0.00  0.00    -0.319 N 
ATOM     18  NE2 HIS A   1      31.781 -12.815 -22.216  0.00  0.00    -0.315 N 
ATOM     19  CG  HIS A   1      33.491 -14.111 -22.814  0.00  0.00    +0.040 C 
ATOM     20  CD2 HIS A   1      32.542 -13.266 -23.266  0.00  0.00    +0.069 C 
ATOM     21  CE1 HIS A   1      32.290 -13.402 -21.156  0.00  0.00    +0.182 C 
ATOM     22  HD1 HIS A   1      33.889 -14.749 -20.864  0.00  0.00    +0.148 HD
ATOM     23  HE2 HIS A   1      31.020 -12.191 -22.250  0.00  0.00    +0.148 HD
ENDBRANCH  16  19
ENDBRANCH   1  16
TORSDOF 8
ENDMDL
MODEL 6
REMARK VINA RESULT:      -6.3      3.018      4.734
REMARK  Name = 439224
REMARK  8 active torsions:
REMARK  status: ('A' for Active; 'I' for Inactive)
REMARK    1  A    between atoms: CA_1  and  N_3
REMARK    2  A    between atoms: CA_1  and  C_13
REMARK    3  A    between atoms: CA_1  and  CB_16
REMARK    4  A    between atoms: C_4  and  C_6
REMARK    5  A    between atoms: C_6  and  C_7
REMARK    6  A    between atoms: C_7  and  N_8
REMARK    7  A    between atoms: C_13  and  O_14
REMARK    8  A    between atoms: CB_16  and  CG_19
REMARK                            x       y       z     vdW  Elec       q    Type
REMARK                         _______ _______ _______ _____ _____    ______ ____
ROOT
ATOM      1  CA  HIS A   1      35.683 -24.201 -12.489  0.00  0.00    +0.177 C 
ENDROOT
BRANCH   1   3
ATOM      2  O   UNK A   0      33.945 -24.893 -14.660  0.00  0.00    -0.275 OA
ATOM      3  N   HIS A   1      34.411 -23.590 -12.797  0.00  0.00    -0.297 N 
ATOM      4  C   UNK A   0      33.641 -23.999 -13.876  0.00  0.00    +0.221 C 
ATOM      5  H   HIS A   1      34.082 -22.862 -12.224  0.00  0.00    +0.150 HD
BRANCH   4   6
ATOM      6  C   UNK A   0      32.353 -23.201 -13.980  0.00  0.00    +0.061 C 
BRANCH   6   7
ATOM      7  C   UNK A   0      31.179 -24.054 -14.444  0.00  0.00    -0.077 C 
BRANCH   7   8
ATOM      8  N   UNK A   0      30.951 -25.153 -13.515  0.00  0.00    +0.381 N 
ATOM      9  H   UNK A   0      31.832 -25.411 -13.071  0.00  0.00    -0.089 HD
ATOM     10  H   UNK A   0      30.579 -25.956 -14.022  0.00  0.00    -0.089 HD
ATOM     11  H   UNK A   0      30.283 -24.863 -12.801  0.00  0.00    -0.089 HD
ENDBRANCH   7   8
ENDBRANCH   6   7
ENDBRANCH   4   6
ENDBRANCH   1   3
BRANCH   1  13
ATOM     12  OXT HIS A   1      35.333 -24.902 -10.200  0.00  0.00    -0.248 OA
ATOM     13  C   HIS A   1      35.943 -24.187 -10.989  0.00  0.00    +0.332 C 
BRANCH  13  14
ATOM     14  O   HIS A   1      36.902 -23.319 -10.585  0.00  0.00    -0.479 OA
ATOM     15  H   HIS A   1      37.249 -23.376  -9.717  0.00  0.00    +0.295 HD
ENDBRANCH  13  14
ENDBRANCH   1  13
BRANCH   1  16
ATOM     16  CB  HIS A   1      36.833 -23.505 -13.228  0.00  0.00    +0.073 C 
BRANCH  16  19
ATOM     17  ND1 HIS A   1      38.264 -24.569 -14.966  0.00  0.00    -0.319 N 
ATOM     18  NE2 HIS A   1      39.501 -26.017 -13.824  0.00  0.00    -0.315 N 
ATOM     19  CG  HIS A   1      37.904 -24.472 -13.673  0.00  0.00    +0.040 C 
ATOM     20  CD2 HIS A   1      38.653 -25.349 -12.976  0.00  0.00    +0.069 C 
ATOM     21  CE1 HIS A   1      39.241 -25.524 -15.015  0.00  0.00    +0.182 C 
ATOM     22  HD1 HIS A   1      37.897 -24.058 -15.723  0.00  0.00    +0.148 HD
ATOM     23  HE2 HIS A   1      40.159 -26.712 -13.592  0.00  0.00    +0.148 HD
ENDBRANCH  16  19
ENDBRANCH   1  16
TORSDOF 8
ENDMDL
MODEL 7
REMARK VINA RESULT:      -6.3      2.572      4.028
REMARK  Name = 439224
REMARK  8 active torsions:
REMARK  status: ('A' for Active; 'I' for Inactive)
REMARK    1  A    between atoms: CA_1  and  N_3
REMARK    2  A    between atoms: CA_1  and  C_13
REMARK    3  A    between atoms: CA_1  and  CB_16
REMARK    4  A    between atoms: C_4  and  C_6
REMARK    5  A    between atoms: C_6  and  C_7
REMARK    6  A    between atoms: C_7  and  N_8
REMARK    7  A    between atoms: C_13  and  O_14
REMARK    8  A    between atoms: CB_16  and  CG_19
REMARK                            x       y       z     vdW  Elec       q    Type
REMARK                         _______ _______ _______ _____ _____    ______ ____
ROOT
ATOM      1  CA  HIS A   1      36.164 -24.429 -12.335  0.00  0.00    +0.177 C 
ENDROOT
BRANCH   1   3
ATOM      2  O   UNK A   0      34.229 -24.328 -14.447  0.00  0.00    -0.275 OA
ATOM      3  N   HIS A   1      36.235 -23.614 -13.524  0.00  0.00    -0.297 N 
ATOM      4  C   UNK A   0      35.242 -23.636 -14.493  0.00  0.00    +0.221 C 
ATOM      5  H   HIS A   1      37.013 -23.024 -13.651  0.00  0.00    +0.150 HD
BRANCH   4   6
ATOM      6  C   UNK A   0      35.555 -22.690 -15.639  0.00  0.00    +0.061 C 
BRANCH   6   7
ATOM      7  C   UNK A   0      37.053 -22.484 -15.827  0.00  0.00    -0.077 C 
BRANCH   7   8
ATOM      8  N   UNK A   0      37.308 -21.257 -16.571  0.00  0.00    +0.381 N 
ATOM      9  H   UNK A   0      37.331 -20.467 -15.927  0.00  0.00    -0.089 HD
ATOM     10  H   UNK A   0      36.564 -21.114 -17.256  0.00  0.00    -0.089 HD
ATOM     11  H   UNK A   0      38.204 -21.330 -17.052  0.00  0.00    -0.089 HD
ENDBRANCH   7   8
ENDBRANCH   6   7
ENDBRANCH   4   6
ENDBRANCH   1   3
BRANCH   1  13
ATOM     12  OXT HIS A   1      37.618 -22.840 -11.235  0.00  0.00    -0.248 OA
ATOM     13  C   HIS A   1      36.742 -23.692 -11.135  0.00  0.00    +0.332 C 
BRANCH  13  14
ATOM     14  O   HIS A   1      36.217 -24.053  -9.939  0.00  0.00    -0.479 OA
ATOM     15  H   HIS A   1      35.414 -23.670  -9.645  0.00  0.00    +0.295 HD
ENDBRANCH  13  14
ENDBRANCH   1  13
BRANCH   1  16
ATOM     16  CB  HIS A   1      36.889 -25.767 -12.528  0.00  0.00    +0.073 C 
BRANCH  16  19
ATOM     17  ND1 HIS A   1      39.214 -25.119 -13.143  0.00  0.00    -0.319 N 
ATOM     18  NE2 HIS A   1      39.400 -25.749 -15.264  0.00  0.00    -0.315 N 
ATOM     19  CG  HIS A   1      38.039 -25.667 -13.503  0.00  0.00    +0.040 C 
ATOM     20  CD2 HIS A   1      38.147 -26.051 -14.790  0.00  0.00    +0.069 C 
ATOM     21  CE1 HIS A   1      40.016 -25.188 -14.248  0.00  0.00    +0.182 C 
ATOM     22  HD1 HIS A   1      39.448 -24.743 -12.264  0.00  0.00    +0.148 HD
ATOM     23  HE2 HIS A   1      39.757 -25.915 -16.166  0.00  0.00    +0.148 HD
ENDBRANCH  16  19
ENDBRANCH   1  16
TORSDOF 8
ENDMDL
MODEL 8
REMARK VINA RESULT:      -6.3      3.214      4.946
REMARK  Name = 439224
REMARK  8 active torsions:
REMARK  status: ('A' for Active; 'I' for Inactive)
REMARK    1  A    between atoms: CA_1  and  N_3
REMARK    2  A    between atoms: CA_1  and  C_13
REMARK    3  A    between atoms: CA_1  and  CB_16
REMARK    4  A    between atoms: C_4  and  C_6
REMARK    5  A    between atoms: C_6  and  C_7
REMARK    6  A    between atoms: C_7  and  N_8
REMARK    7  A    between atoms: C_13  and  O_14
REMARK    8  A    between atoms: CB_16  and  CG_19
REMARK                            x       y       z     vdW  Elec       q    Type
REMARK                         _______ _______ _______ _____ _____    ______ ____
ROOT
ATOM      1  CA  HIS A   1      34.923 -24.280 -13.934  0.00  0.00    +0.177 C 
ENDROOT
BRANCH   1   3
ATOM      2  O   UNK A   0      32.189 -24.917 -13.357  0.00  0.00    -0.275 OA
ATOM      3  N   HIS A   1      33.770 -23.471 -14.248  0.00  0.00    -0.297 N 
ATOM      4  C   UNK A   0      32.481 -23.869 -13.925  0.00  0.00    +0.221 C 
ATOM      5  H   HIS A   1      33.903 -22.610 -14.706  0.00  0.00    +0.150 HD
BRANCH   4   6
ATOM      6  C   UNK A   0      31.451 -22.843 -14.363  0.00  0.00    +0.061 C 
BRANCH   6   7
ATOM      7  C   UNK A   0      30.894 -23.136 -15.751  0.00  0.00    -0.077 C 
BRANCH   7   8
ATOM      8  N   UNK A   0      30.229 -24.433 -15.767  0.00  0.00    +0.381 N 
ATOM      9  H   UNK A   0      29.218 -24.297 -15.778  0.00  0.00    -0.089 HD
ATOM     10  H   UNK A   0      30.491 -24.960 -14.933  0.00  0.00    -0.089 HD
ATOM     11  H   UNK A   0      30.511 -24.950 -16.599  0.00  0.00    -0.089 HD
ENDBRANCH   7   8
ENDBRANCH   6   7
ENDBRANCH   4   6
ENDBRANCH   1   3
BRANCH   1  13
ATOM     12  OXT HIS A   1      36.096 -23.159 -12.140  0.00  0.00    -0.248 OA
ATOM     13  C   HIS A   1      35.356 -24.073 -12.489  0.00  0.00    +0.332 C 
BRANCH  13  14
ATOM     14  O   HIS A   1      34.863 -24.980 -11.612  0.00  0.00    -0.479 OA
ATOM     15  H   HIS A   1      34.256 -24.711 -10.952  0.00  0.00    +0.295 HD
ENDBRANCH  13  14
ENDBRANCH   1  13
BRANCH   1  16
ATOM     16  CB  HIS A   1      36.093 -23.982 -14.880  0.00  0.00    +0.073 C 
BRANCH  16  19
ATOM     17  ND1 HIS A   1      38.494 -24.635 -14.981  0.00  0.00    -0.319 N 
ATOM     18  NE2 HIS A   1      38.486 -26.783 -14.415  0.00  0.00    -0.315 N 
ATOM     19  CG  HIS A   1      37.216 -24.983 -14.745  0.00  0.00    +0.040 C 
ATOM     20  CD2 HIS A   1      37.206 -26.286 -14.401  0.00  0.00    +0.069 C 
ATOM     21  CE1 HIS A   1      39.237 -25.764 -14.769  0.00  0.00    +0.182 C 
ATOM     22  HD1 HIS A   1      38.827 -23.750 -15.252  0.00  0.00    +0.148 HD
ATOM     23  HE2 HIS A   1      38.777 -27.700 -14.208  0.00  0.00    +0.148 HD
ENDBRANCH  16  19
ENDBRANCH   1  16
TORSDOF 8
ENDMDL
MODEL 9
REMARK VINA RESULT:      -6.2      3.851      6.053
REMARK  Name = 439224
REMARK  8 active torsions:
REMARK  status: ('A' for Active; 'I' for Inactive)
REMARK    1  A    between atoms: CA_1  and  N_3
REMARK    2  A    between atoms: CA_1  and  C_13
REMARK    3  A    between atoms: CA_1  and  CB_16
REMARK    4  A    between atoms: C_4  and  C_6
REMARK    5  A    between atoms: C_6  and  C_7
REMARK    6  A    between atoms: C_7  and  N_8
REMARK    7  A    between atoms: C_13  and  O_14
REMARK    8  A    between atoms: CB_16  and  CG_19
REMARK                            x       y       z     vdW  Elec       q    Type
REMARK                         _______ _______ _______ _____ _____    ______ ____
ROOT
ATOM      1  CA  HIS A   1      33.929 -23.847 -15.876  0.00  0.00    +0.177 C 
ENDROOT
BRANCH   1   3
ATOM      2  O   UNK A   0      35.702 -26.089 -15.671  0.00  0.00    -0.275 OA
ATOM      3  N   HIS A   1      35.221 -23.863 -15.230  0.00  0.00    -0.297 N 
ATOM      4  C   UNK A   0      36.008 -25.005 -15.185  0.00  0.00    +0.221 C 
ATOM      5  H   HIS A   1      35.553 -23.037 -14.810  0.00  0.00    +0.150 HD
BRANCH   4   6
ATOM      6  C   UNK A   0      37.314 -24.756 -14.452  0.00  0.00    +0.061 C 
BRANCH   6   7
ATOM      7  C   UNK A   0      38.029 -26.052 -14.087  0.00  0.00    -0.077 C 
BRANCH   7   8
ATOM      8  N   UNK A   0      37.130 -26.940 -13.360  0.00  0.00    +0.381 N 
ATOM      9  H   UNK A   0      36.760 -26.454 -12.543  0.00  0.00    -0.089 HD
ATOM     10  H   UNK A   0      37.642 -27.770 -13.058  0.00  0.00    -0.089 HD
ATOM     11  H   UNK A   0      36.360 -27.218 -13.968  0.00  0.00    -0.089 HD
ENDBRANCH   7   8
ENDBRANCH   6   7
ENDBRANCH   4   6
ENDBRANCH   1   3
BRANCH   1  13
ATOM     12  OXT HIS A   1      35.040 -22.663 -17.669  0.00  0.00    -0.248 OA
ATOM     13  C   HIS A   1      33.999 -23.126 -17.215  0.00  0.00    +0.332 C 
BRANCH  13  14
ATOM     14  O   HIS A   1      32.817 -23.028 -17.870  0.00  0.00    -0.479 OA
ATOM     15  H   HIS A   1      32.755 -22.508 -18.647  0.00  0.00    +0.295 HD
ENDBRANCH  13  14
ENDBRANCH   1  13
BRANCH   1  16
ATOM     16  CB  HIS A   1      32.864 -23.197 -14.984  0.00  0.00    +0.073 C 
BRANCH  16  19
ATOM     17  ND1 HIS A   1      30.669 -24.066 -15.779  0.00  0.00    -0.319 N 
ATOM     18  NE2 HIS A   1      30.037 -25.464 -14.173  0.00  0.00    -0.315 N 
ATOM     19  CG  HIS A   1      31.630 -24.056 -14.837  0.00  0.00    +0.040 C 
ATOM     20  CD2 HIS A   1      31.251 -24.904 -13.860  0.00  0.00    +0.069 C 
ATOM     21  CE1 HIS A   1      29.714 -24.937 -15.334  0.00  0.00    +0.182 C 
ATOM     22  HD1 HIS A   1      30.655 -23.550 -16.616  0.00  0.00    +0.148 HD
ATOM     23  HE2 HIS A   1      29.521 -26.115 -13.644  0.00  0.00    +0.148 HD
ENDBRANCH  16  19
ENDBRANCH   1  16
TORSDOF 8
ENDMDL
