MODEL 1
REMARK VINA RESULT:      -5.4      0.000      0.000
REMARK  Name = 3763
REMARK  3 active torsions:
REMARK  status: ('A' for Active; 'I' for Inactive)
REMARK    1  A    between atoms: C_2  and  C_6
REMARK    2  A    between atoms: C_2  and  O_7
REMARK    3  A    between atoms: O_7  and  C_10
REMARK                            x       y       z     vdW  Elec       q    Type
REMARK                         _______ _______ _______ _____ _____    ______ ____
ROOT
ATOM      1 CL   UNL     1      34.600 -19.042 -23.597  0.00  0.00    -0.073 Cl
ATOM      2  C   UNL     1      34.963 -19.528 -21.920  0.00  0.00    +0.294 C 
ENDROOT
BRANCH   2   6
ATOM      3  F   UNL     1      35.623 -17.563 -20.780  0.00  0.00    -0.166 F 
ATOM      4  F   UNL     1      36.915 -18.286 -22.376  0.00  0.00    -0.166 F 
ATOM      5  F   UNL     1      36.838 -19.352 -20.474  0.00  0.00    -0.166 F 
ATOM      6  C   UNL     1      36.093 -18.680 -21.377  0.00  0.00    +0.437 C 
ENDBRANCH   2   6
BRANCH   2   7
ATOM      7  O   UNL     1      33.816 -19.316 -21.097  0.00  0.00    -0.278 OA
BRANCH   7  10
ATOM      8  F   UNL     1      32.359 -20.149 -19.616  0.00  0.00    -0.166 F 
ATOM      9  F   UNL     1      34.426 -20.828 -19.540  0.00  0.00    -0.166 F 
ATOM     10  C   UNL     1      33.425 -20.478 -20.385  0.00  0.00    +0.451 C 
ENDBRANCH   7  10
ENDBRANCH   2   7
TORSDOF 3
ENDMDL
MODEL 2
REMARK VINA RESULT:      -5.3      2.229      2.716
REMARK  Name = 3763
REMARK  3 active torsions:
REMARK  status: ('A' for Active; 'I' for Inactive)
REMARK    1  A    between atoms: C_2  and  C_6
REMARK    2  A    between atoms: C_2  and  O_7
REMARK    3  A    between atoms: O_7  and  C_10
REMARK                            x       y       z     vdW  Elec       q    Type
REMARK                         _______ _______ _______ _____ _____    ______ ____
ROOT
ATOM      1 CL   UNL     1      32.838 -20.065 -20.363  0.00  0.00    -0.073 Cl
ATOM      2  C   UNL     1      34.522 -20.277 -20.910  0.00  0.00    +0.294 C 
ENDROOT
BRANCH   2   6
ATOM      3  F   UNL     1      34.181 -18.057 -21.655  0.00  0.00    -0.166 F 
ATOM      4  F   UNL     1      34.577 -19.578 -23.161  0.00  0.00    -0.166 F 
ATOM      5  F   UNL     1      36.191 -18.887 -21.868  0.00  0.00    -0.166 F 
ATOM      6  C   UNL     1      34.876 -19.189 -21.901  0.00  0.00    +0.437 C 
ENDBRANCH   2   6
BRANCH   2   7
ATOM      7  O   UNL     1      35.409 -20.167 -19.797  0.00  0.00    -0.278 OA
BRANCH   7  10
ATOM      8  F   UNL     1      37.159 -21.492 -20.234  0.00  0.00    -0.166 F 
ATOM      9  F   UNL     1      35.227 -22.414 -19.835  0.00  0.00    -0.166 F 
ATOM     10  C   UNL     1      36.042 -21.392 -19.473  0.00  0.00    +0.451 C 
ENDBRANCH   7  10
ENDBRANCH   2   7
TORSDOF 3
ENDMDL
MODEL 3
REMARK VINA RESULT:      -5.2      1.821      2.468
REMARK  Name = 3763
REMARK  3 active torsions:
REMARK  status: ('A' for Active; 'I' for Inactive)
REMARK    1  A    between atoms: C_2  and  C_6
REMARK    2  A    between atoms: C_2  and  O_7
REMARK    3  A    between atoms: O_7  and  C_10
REMARK                            x       y       z     vdW  Elec       q    Type
REMARK                         _______ _______ _______ _____ _____    ______ ____
ROOT
ATOM      1 CL   UNL     1      34.951 -19.274 -22.946  0.00  0.00    -0.073 Cl
ATOM      2  C   UNL     1      35.668 -18.184 -21.730  0.00  0.00    +0.294 C 
ENDROOT
BRANCH   2   6
ATOM      3  F   UNL     1      35.098 -16.383 -20.306  0.00  0.00    -0.166 F 
ATOM      4  F   UNL     1      33.480 -17.639 -21.042  0.00  0.00    -0.166 F 
ATOM      5  F   UNL     1      34.471 -16.244 -22.395  0.00  0.00    -0.166 F 
ATOM      6  C   UNL     1      34.675 -17.100 -21.370  0.00  0.00    +0.437 C 
ENDBRANCH   2   6
BRANCH   2   7
ATOM      7  O   UNL     1      35.971 -18.917 -20.544  0.00  0.00    -0.278 OA
BRANCH   7  10
ATOM      8  F   UNL     1      34.412 -20.388 -19.900  0.00  0.00    -0.166 F 
ATOM      9  F   UNL     1      36.488 -21.041 -19.991  0.00  0.00    -0.166 F 
ATOM     10  C   UNL     1      35.560 -20.272 -20.611  0.00  0.00    +0.451 C 
ENDBRANCH   7  10
ENDBRANCH   2   7
TORSDOF 3
ENDMDL
MODEL 4
REMARK VINA RESULT:      -5.2      1.861      2.310
REMARK  Name = 3763
REMARK  3 active torsions:
REMARK  status: ('A' for Active; 'I' for Inactive)
REMARK    1  A    between atoms: C_2  and  C_6
REMARK    2  A    between atoms: C_2  and  O_7
REMARK    3  A    between atoms: O_7  and  C_10
REMARK                            x       y       z     vdW  Elec       q    Type
REMARK                         _______ _______ _______ _____ _____    ______ ____
ROOT
ATOM      1 CL   UNL     1      34.997 -16.924 -20.886  0.00  0.00    -0.073 Cl
ATOM      2  C   UNL     1      34.363 -18.352 -21.745  0.00  0.00    +0.294 C 
ENDROOT
BRANCH   2   6
ATOM      3  F   UNL     1      34.938 -19.809 -23.518  0.00  0.00    -0.166 F 
ATOM      4  F   UNL     1      36.476 -18.454 -22.784  0.00  0.00    -0.166 F 
ATOM      5  F   UNL     1      34.822 -17.675 -23.973  0.00  0.00    -0.166 F 
ATOM      6  C   UNL     1      35.150 -18.571 -23.019  0.00  0.00    +0.437 C 
ENDBRANCH   2   6
BRANCH   2   7
ATOM      7  O   UNL     1      34.512 -19.513 -20.927  0.00  0.00    -0.278 OA
BRANCH   7  10
ATOM      8  F   UNL     1      32.347 -19.181 -20.467  0.00  0.00    -0.166 F 
ATOM      9  F   UNL     1      33.391 -20.806 -19.460  0.00  0.00    -0.166 F 
ATOM     10  C   UNL     1      33.279 -20.149 -20.641  0.00  0.00    +0.451 C 
ENDBRANCH   7  10
ENDBRANCH   2   7
TORSDOF 3
ENDMDL
MODEL 5
REMARK VINA RESULT:      -5.2      2.691      3.636
REMARK  Name = 3763
REMARK  3 active torsions:
REMARK  status: ('A' for Active; 'I' for Inactive)
REMARK    1  A    between atoms: C_2  and  C_6
REMARK    2  A    between atoms: C_2  and  O_7
REMARK    3  A    between atoms: O_7  and  C_10
REMARK                            x       y       z     vdW  Elec       q    Type
REMARK                         _______ _______ _______ _____ _____    ______ ____
ROOT
ATOM      1 CL   UNL     1      34.843 -16.927 -25.257  0.00  0.00    -0.073 Cl
ATOM      2  C   UNL     1      34.653 -17.225 -23.510  0.00  0.00    +0.294 C 
ENDROOT
BRANCH   2   6
ATOM      3  F   UNL     1      34.514 -19.160 -22.156  0.00  0.00    -0.166 F 
ATOM      4  F   UNL     1      36.496 -18.484 -22.750  0.00  0.00    -0.166 F 
ATOM      5  F   UNL     1      35.186 -19.427 -24.218  0.00  0.00    -0.166 F 
ATOM      6  C   UNL     1      35.212 -18.588 -23.161  0.00  0.00    +0.437 C 
ENDBRANCH   2   6
BRANCH   2   7
ATOM      7  O   UNL     1      35.383 -16.245 -22.771  0.00  0.00    -0.278 OA
BRANCH   7  10
ATOM      8  F   UNL     1      35.143 -16.502 -20.560  0.00  0.00    -0.166 F 
ATOM      9  F   UNL     1      33.374 -16.087 -21.761  0.00  0.00    -0.166 F 
ATOM     10  C   UNL     1      34.690 -15.791 -21.622  0.00  0.00    +0.451 C 
ENDBRANCH   7  10
ENDBRANCH   2   7
TORSDOF 3
ENDMDL
MODEL 6
REMARK VINA RESULT:      -5.1      3.067      3.984
REMARK  Name = 3763
REMARK  3 active torsions:
REMARK  status: ('A' for Active; 'I' for Inactive)
REMARK    1  A    between atoms: C_2  and  C_6
REMARK    2  A    between atoms: C_2  and  O_7
REMARK    3  A    between atoms: O_7  and  C_10
REMARK                            x       y       z     vdW  Elec       q    Type
REMARK                         _______ _______ _______ _____ _____    ______ ____
ROOT
ATOM      1 CL   UNL     1      34.480 -14.520 -22.610  0.00  0.00    -0.073 Cl
ATOM      2  C   UNL     1      35.030 -16.216 -22.572  0.00  0.00    +0.294 C 
ENDROOT
BRANCH   2   6
ATOM      3  F   UNL     1      33.594 -17.412 -21.121  0.00  0.00    -0.166 F 
ATOM      4  F   UNL     1      34.802 -15.820 -20.258  0.00  0.00    -0.166 F 
ATOM      5  F   UNL     1      35.744 -17.694 -20.857  0.00  0.00    -0.166 F 
ATOM      6  C   UNL     1      34.794 -16.796 -21.194  0.00  0.00    +0.437 C 
ENDBRANCH   2   6
BRANCH   2   7
ATOM      7  O   UNL     1      34.281 -16.988 -23.510  0.00  0.00    -0.278 OA
BRANCH   7  10
ATOM      8  F   UNL     1      34.756 -18.029 -25.434  0.00  0.00    -0.166 F 
ATOM      9  F   UNL     1      34.633 -19.212 -23.609  0.00  0.00    -0.166 F 
ATOM     10  C   UNL     1      35.044 -18.021 -24.109  0.00  0.00    +0.451 C 
ENDBRANCH   7  10
ENDBRANCH   2   7
TORSDOF 3
ENDMDL
MODEL 7
REMARK VINA RESULT:      -5.1      2.007      2.448
REMARK  Name = 3763
REMARK  3 active torsions:
REMARK  status: ('A' for Active; 'I' for Inactive)
REMARK    1  A    between atoms: C_2  and  C_6
REMARK    2  A    between atoms: C_2  and  O_7
REMARK    3  A    between atoms: O_7  and  C_10
REMARK                            x       y       z     vdW  Elec       q    Type
REMARK                         _______ _______ _______ _____ _____    ______ ____
ROOT
ATOM      1 CL   UNL     1      34.596 -16.619 -21.026  0.00  0.00    -0.073 Cl
ATOM      2  C   UNL     1      34.743 -18.322 -21.534  0.00  0.00    +0.294 C 
ENDROOT
BRANCH   2   6
ATOM      3  F   UNL     1      35.218 -17.311 -23.620  0.00  0.00    -0.166 F 
ATOM      4  F   UNL     1      35.074 -19.482 -23.560  0.00  0.00    -0.166 F 
ATOM      5  F   UNL     1      36.809 -18.485 -22.692  0.00  0.00    -0.166 F 
ATOM      6  C   UNL     1      35.473 -18.397 -22.858  0.00  0.00    +0.437 C 
ENDBRANCH   2   6
BRANCH   2   7
ATOM      7  O   UNL     1      35.502 -19.050 -20.569  0.00  0.00    -0.278 OA
BRANCH   7  10
ATOM      8  F   UNL     1      35.843 -21.251 -20.791  0.00  0.00    -0.166 F 
ATOM      9  F   UNL     1      33.817 -20.483 -21.003  0.00  0.00    -0.166 F 
ATOM     10  C   UNL     1      34.969 -20.336 -20.305  0.00  0.00    +0.451 C 
ENDBRANCH   7  10
ENDBRANCH   2   7
TORSDOF 3
ENDMDL
MODEL 8
REMARK VINA RESULT:      -5.0      8.647      9.280
REMARK  Name = 3763
REMARK  3 active torsions:
REMARK  status: ('A' for Active; 'I' for Inactive)
REMARK    1  A    between atoms: C_2  and  C_6
REMARK    2  A    between atoms: C_2  and  O_7
REMARK    3  A    between atoms: O_7  and  C_10
REMARK                            x       y       z     vdW  Elec       q    Type
REMARK                         _______ _______ _______ _____ _____    ______ ____
ROOT
ATOM      1 CL   UNL     1      42.423 -13.124 -17.624  0.00  0.00    -0.073 Cl
ATOM      2  C   UNL     1      41.327 -14.480 -17.994  0.00  0.00    +0.294 C 
ENDROOT
BRANCH   2   6
ATOM      3  F   UNL     1      41.845 -16.780 -17.796  0.00  0.00    -0.166 F 
ATOM      4  F   UNL     1      43.454 -15.428 -18.363  0.00  0.00    -0.166 F 
ATOM      5  F   UNL     1      41.888 -15.914 -19.801  0.00  0.00    -0.166 F 
ATOM      6  C   UNL     1      42.129 -15.661 -18.497  0.00  0.00    +0.437 C 
ENDBRANCH   2   6
BRANCH   2   7
ATOM      7  O   UNL     1      40.642 -14.884 -16.809  0.00  0.00    -0.278 OA
BRANCH   7  10
ATOM      8  F   UNL     1      41.434 -15.688 -14.876  0.00  0.00    -0.166 F 
ATOM      9  F   UNL     1      40.622 -13.667 -14.911  0.00  0.00    -0.166 F 
ATOM     10  C   UNL     1      41.350 -14.561 -15.624  0.00  0.00    +0.451 C 
ENDBRANCH   7  10
ENDBRANCH   2   7
TORSDOF 3
ENDMDL
MODEL 9
REMARK VINA RESULT:      -5.0      1.946      3.682
REMARK  Name = 3763
REMARK  3 active torsions:
REMARK  status: ('A' for Active; 'I' for Inactive)
REMARK    1  A    between atoms: C_2  and  C_6
REMARK    2  A    between atoms: C_2  and  O_7
REMARK    3  A    between atoms: O_7  and  C_10
REMARK                            x       y       z     vdW  Elec       q    Type
REMARK                         _______ _______ _______ _____ _____    ______ ____
ROOT
ATOM      1 CL   UNL     1      32.943 -20.382 -20.576  0.00  0.00    -0.073 Cl
ATOM      2  C   UNL     1      34.689 -20.132 -20.312  0.00  0.00    +0.294 C 
ENDROOT
BRANCH   2   6
ATOM      3  F   UNL     1      35.915 -21.195 -18.590  0.00  0.00    -0.166 F 
ATOM      4  F   UNL     1      36.252 -21.868 -20.633  0.00  0.00    -0.166 F 
ATOM      5  F   UNL     1      34.393 -22.382 -19.614  0.00  0.00    -0.166 F 
ATOM      6  C   UNL     1      35.311 -21.406 -19.780  0.00  0.00    +0.437 C 
ENDBRANCH   2   6
BRANCH   2   7
ATOM      7  O   UNL     1      35.324 -19.814 -21.550  0.00  0.00    -0.278 OA
BRANCH   7  10
ATOM      8  F   UNL     1      36.328 -18.181 -22.705  0.00  0.00    -0.166 F 
ATOM      9  F   UNL     1      37.408 -19.110 -21.058  0.00  0.00    -0.166 F 
ATOM     10  C   UNL     1      36.182 -18.691 -21.458  0.00  0.00    +0.451 C 
ENDBRANCH   7  10
ENDBRANCH   2   7
TORSDOF 3
ENDMDL
