MODEL 1
REMARK VINA RESULT:      -9.9      0.000      0.000
REMARK  Name = 115355
REMARK  4 active torsions:
REMARK  status: ('A' for Active; 'I' for Inactive)
REMARK    1  A    between atoms: C_1  and  C_15
REMARK    2  A    between atoms: C_2  and  N_13
REMARK    3  A    between atoms: C_4  and  C_10
REMARK    4  A    between atoms: C_15  and  C_18
REMARK                            x       y       z     vdW  Elec       q    Type
REMARK                         _______ _______ _______ _____ _____    ______ ____
ROOT
ATOM      1  C   UNL     1      33.585 -24.067 -15.146  0.00  0.00    +0.058 C 
ATOM      2  C   UNL     1      33.171 -23.514 -16.339  0.00  0.00    +0.146 C 
ATOM      3  C   UNL     1      32.732 -24.230 -14.073  0.00  0.00    +0.004 C 
ATOM      4  C   UNL     1      30.961 -23.258 -15.398  0.00  0.00    +0.073 C 
ATOM      5  C   UNL     1      31.844 -23.104 -16.466  0.00  0.00    +0.028 C 
ATOM      6  C   UNL     1      31.405 -23.821 -14.201  0.00  0.00    +0.004 C 
ENDROOT
BRANCH   4  10
ATOM      7  F   UNL     1      28.636 -23.820 -15.313  0.00  0.00    -0.166 F 
ATOM      8  F   UNL     1      29.190 -21.825 -14.667  0.00  0.00    -0.166 F 
ATOM      9  F   UNL     1      29.258 -22.338 -16.779  0.00  0.00    -0.166 F 
ATOM     10  C   UNL     1      29.542 -22.820 -15.534  0.00  0.00    +0.419 C 
ENDBRANCH   4  10
BRANCH   2  13
ATOM     11  O   UNL     1      33.807 -23.953 -18.510  0.00  0.00    -0.126 OA
ATOM     12  O   UNL     1      35.048 -22.595 -17.312  0.00  0.00    -0.126 OA
ATOM     13  N   UNL     1      34.052 -23.345 -17.442  0.00  0.00    +0.058 N 
ENDBRANCH   2  13
BRANCH   1  15
ATOM     14  O   UNL     1      35.443 -25.420 -15.674  0.00  0.00    -0.290 OA
ATOM     15  C   UNL     1      34.994 -24.518 -14.971  0.00  0.00    +0.188 C 
BRANCH  15  18
ATOM     16  O   UNL     1      37.412 -22.543 -15.185  0.00  0.00    -0.295 OA
ATOM     17  O   UNL     1      34.920 -24.591 -11.849  0.00  0.00    -0.295 OA
ATOM     18  C   UNL     1      35.846 -23.858 -13.934  0.00  0.00    +0.176 C 
ATOM     19  C   UNL     1      38.315 -25.003 -12.789  0.00  0.00    +0.016 C 
ATOM     20  C   UNL     1      38.330 -24.535 -14.235  0.00  0.00    +0.066 C 
ATOM     21  C   UNL     1      36.983 -25.644 -12.439  0.00  0.00    +0.066 C 
ATOM     22  C   UNL     1      37.226 -23.531 -14.473  0.00  0.00    +0.165 C 
ATOM     23  C   UNL     1      35.858 -24.656 -12.644  0.00  0.00    +0.165 C 
ENDBRANCH  15  18
ENDBRANCH   1  15
TORSDOF 4
ENDMDL
MODEL 2
REMARK VINA RESULT:      -9.9      1.047      2.127
REMARK  Name = 115355
REMARK  4 active torsions:
REMARK  status: ('A' for Active; 'I' for Inactive)
REMARK    1  A    between atoms: C_1  and  C_15
REMARK    2  A    between atoms: C_2  and  N_13
REMARK    3  A    between atoms: C_4  and  C_10
REMARK    4  A    between atoms: C_15  and  C_18
REMARK                            x       y       z     vdW  Elec       q    Type
REMARK                         _______ _______ _______ _____ _____    ______ ____
ROOT
ATOM      1  C   UNL     1      33.060 -23.213 -15.248  0.00  0.00    +0.058 C 
ATOM      2  C   UNL     1      32.547 -23.152 -16.526  0.00  0.00    +0.146 C 
ATOM      3  C   UNL     1      32.259 -23.142 -14.127  0.00  0.00    +0.004 C 
ATOM      4  C   UNL     1      30.336 -22.941 -15.577  0.00  0.00    +0.073 C 
ATOM      5  C   UNL     1      31.169 -23.014 -16.692  0.00  0.00    +0.028 C 
ATOM      6  C   UNL     1      30.881 -23.005 -14.294  0.00  0.00    +0.004 C 
ENDROOT
BRANCH   4  10
ATOM      7  F   UNL     1      28.316 -21.797 -14.995  0.00  0.00    -0.166 F 
ATOM      8  F   UNL     1      28.492 -22.507 -17.037  0.00  0.00    -0.166 F 
ATOM      9  F   UNL     1      28.177 -23.925 -15.420  0.00  0.00    -0.166 F 
ATOM     10  C   UNL     1      28.863 -22.794 -15.754  0.00  0.00    +0.419 C 
ENDBRANCH   4  10
BRANCH   2  13
ATOM     11  O   UNL     1      33.681 -22.161 -18.272  0.00  0.00    -0.126 OA
ATOM     12  O   UNL     1      33.776 -24.345 -18.070  0.00  0.00    -0.126 OA
ATOM     13  N   UNL     1      33.376 -23.223 -17.680  0.00  0.00    +0.058 N 
ENDBRANCH   2  13
BRANCH   1  15
ATOM     14  O   UNL     1      35.307 -22.545 -15.515  0.00  0.00    -0.290 OA
ATOM     15  C   UNL     1      34.527 -23.361 -15.030  0.00  0.00    +0.188 C 
BRANCH  15  18
ATOM     16  O   UNL     1      34.687 -23.838 -11.942  0.00  0.00    -0.295 OA
ATOM     17  O   UNL     1      35.710 -26.136 -15.842  0.00  0.00    -0.295 OA
ATOM     18  C   UNL     1      35.029 -24.512 -14.217  0.00  0.00    +0.176 C 
ATOM     19  C   UNL     1      37.812 -24.848 -13.292  0.00  0.00    +0.016 C 
ATOM     20  C   UNL     1      36.963 -23.753 -12.668  0.00  0.00    +0.066 C 
ATOM     21  C   UNL     1      37.514 -24.988 -14.775  0.00  0.00    +0.066 C 
ATOM     22  C   UNL     1      35.495 -24.062 -12.845  0.00  0.00    +0.165 C 
ATOM     23  C   UNL     1      36.055 -25.321 -14.986  0.00  0.00    +0.165 C 
ENDBRANCH  15  18
ENDBRANCH   1  15
TORSDOF 4
ENDMDL
MODEL 3
REMARK VINA RESULT:      -9.2     14.050     16.067
REMARK  Name = 115355
REMARK  4 active torsions:
REMARK  status: ('A' for Active; 'I' for Inactive)
REMARK    1  A    between atoms: C_1  and  C_15
REMARK    2  A    between atoms: C_2  and  N_13
REMARK    3  A    between atoms: C_4  and  C_10
REMARK    4  A    between atoms: C_15  and  C_18
REMARK                            x       y       z     vdW  Elec       q    Type
REMARK                         _______ _______ _______ _____ _____    ______ ____
ROOT
ATOM      1  C   UNL     1      32.463 -11.040 -22.848  0.00  0.00    +0.058 C 
ATOM      2  C   UNL     1      32.088 -11.973 -21.905  0.00  0.00    +0.146 C 
ATOM      3  C   UNL     1      33.263 -11.361 -23.926  0.00  0.00    +0.004 C 
ATOM      4  C   UNL     1      33.340 -13.639 -23.126  0.00  0.00    +0.073 C 
ATOM      5  C   UNL     1      32.532 -13.287 -22.045  0.00  0.00    +0.028 C 
ATOM      6  C   UNL     1      33.706 -12.676 -24.066  0.00  0.00    +0.004 C 
ENDROOT
BRANCH   4  10
ATOM      7  F   UNL     1      33.411 -15.639 -24.439  0.00  0.00    -0.166 F 
ATOM      8  F   UNL     1      35.176 -15.167 -23.269  0.00  0.00    -0.166 F 
ATOM      9  F   UNL     1      33.370 -15.860 -22.275  0.00  0.00    -0.166 F 
ATOM     10  C   UNL     1      33.815 -15.045 -23.276  0.00  0.00    +0.419 C 
ENDBRANCH   4  10
BRANCH   2  13
ATOM     11  O   UNL     1      30.051 -11.399 -20.991  0.00  0.00    -0.126 OA
ATOM     12  O   UNL     1      31.780 -11.593 -19.652  0.00  0.00    -0.126 OA
ATOM     13  N   UNL     1      31.266 -11.638 -20.794  0.00  0.00    +0.058 N 
ENDBRANCH   2  13
BRANCH   1  15
ATOM     14  O   UNL     1      30.868  -9.317 -23.072  0.00  0.00    -0.290 OA
ATOM     15  C   UNL     1      32.008  -9.626 -22.734  0.00  0.00    +0.188 C 
BRANCH  15  18
ATOM     16  O   UNL     1      32.531  -8.540 -19.846  0.00  0.00    -0.295 OA
ATOM     17  O   UNL     1      34.189  -7.877 -24.129  0.00  0.00    -0.295 OA
ATOM     18  C   UNL     1      32.956  -8.597 -22.204  0.00  0.00    +0.176 C 
ATOM     19  C   UNL     1      32.375  -5.711 -21.985  0.00  0.00    +0.016 C 
ATOM     20  C   UNL     1      31.656  -6.672 -21.053  0.00  0.00    +0.066 C 
ATOM     21  C   UNL     1      32.546  -6.318 -23.367  0.00  0.00    +0.066 C 
ATOM     22  C   UNL     1      32.433  -7.962 -20.929  0.00  0.00    +0.165 C 
ATOM     23  C   UNL     1      33.341  -7.599 -23.280  0.00  0.00    +0.165 C 
ENDBRANCH  15  18
ENDBRANCH   1  15
TORSDOF 4
ENDMDL
MODEL 4
REMARK VINA RESULT:      -9.0      1.244      2.206
REMARK  Name = 115355
REMARK  4 active torsions:
REMARK  status: ('A' for Active; 'I' for Inactive)
REMARK    1  A    between atoms: C_1  and  C_15
REMARK    2  A    between atoms: C_2  and  N_13
REMARK    3  A    between atoms: C_4  and  C_10
REMARK    4  A    between atoms: C_15  and  C_18
REMARK                            x       y       z     vdW  Elec       q    Type
REMARK                         _______ _______ _______ _____ _____    ______ ____
ROOT
ATOM      1  C   UNL     1      34.014 -23.910 -14.251  0.00  0.00    +0.058 C 
ATOM      2  C   UNL     1      33.863 -23.306 -15.481  0.00  0.00    +0.146 C 
ATOM      3  C   UNL     1      32.940 -24.384 -13.525  0.00  0.00    +0.004 C 
ATOM      4  C   UNL     1      31.478 -23.640 -15.299  0.00  0.00    +0.073 C 
ATOM      5  C   UNL     1      32.581 -23.170 -16.011  0.00  0.00    +0.028 C 
ATOM      6  C   UNL     1      31.658 -24.248 -14.056  0.00  0.00    +0.004 C 
ENDROOT
BRANCH   4  10
ATOM      7  F   UNL     1      29.535 -24.682 -16.230  0.00  0.00    -0.166 F 
ATOM      8  F   UNL     1      29.216 -22.921 -15.003  0.00  0.00    -0.166 F 
ATOM      9  F   UNL     1      30.081 -22.717 -16.987  0.00  0.00    -0.166 F 
ATOM     10  C   UNL     1      30.107 -23.494 -15.866  0.00  0.00    +0.419 C 
ENDBRANCH   4  10
BRANCH   2  13
ATOM     11  O   UNL     1      35.082 -23.142 -17.431  0.00  0.00    -0.126 OA
ATOM     12  O   UNL     1      35.806 -22.076 -15.654  0.00  0.00    -0.126 OA
ATOM     13  N   UNL     1      34.972 -22.817 -16.226  0.00  0.00    +0.058 N 
ENDBRANCH   2  13
BRANCH   1  15
ATOM     14  O   UNL     1      35.959 -23.103 -13.186  0.00  0.00    -0.290 OA
ATOM     15  C   UNL     1      35.368 -24.075 -13.652  0.00  0.00    +0.188 C 
BRANCH  15  18
ATOM     16  O   UNL     1      36.527 -25.813 -11.322  0.00  0.00    -0.295 OA
ATOM     17  O   UNL     1      35.896 -26.174 -15.906  0.00  0.00    -0.295 OA
ATOM     18  C   UNL     1      35.993 -25.435 -13.628  0.00  0.00    +0.176 C 
ATOM     19  C   UNL     1      38.871 -25.985 -13.983  0.00  0.00    +0.016 C 
ATOM     20  C   UNL     1      38.410 -25.307 -12.704  0.00  0.00    +0.066 C 
ATOM     21  C   UNL     1      38.069 -25.495 -15.177  0.00  0.00    +0.066 C 
ATOM     22  C   UNL     1      36.947 -25.588 -12.459  0.00  0.00    +0.165 C 
ATOM     23  C   UNL     1      36.600 -25.784 -14.973  0.00  0.00    +0.165 C 
ENDBRANCH  15  18
ENDBRANCH   1  15
TORSDOF 4
ENDMDL
MODEL 5
REMARK VINA RESULT:      -8.9     14.161     16.112
REMARK  Name = 115355
REMARK  4 active torsions:
REMARK  status: ('A' for Active; 'I' for Inactive)
REMARK    1  A    between atoms: C_1  and  C_15
REMARK    2  A    between atoms: C_2  and  N_13
REMARK    3  A    between atoms: C_4  and  C_10
REMARK    4  A    between atoms: C_15  and  C_18
REMARK                            x       y       z     vdW  Elec       q    Type
REMARK                         _______ _______ _______ _____ _____    ______ ____
ROOT
ATOM      1  C   UNL     1      32.326 -10.849 -22.590  0.00  0.00    +0.058 C 
ATOM      2  C   UNL     1      33.272 -11.542 -23.315  0.00  0.00    +0.146 C 
ATOM      3  C   UNL     1      31.602 -11.436 -21.572  0.00  0.00    +0.004 C 
ATOM      4  C   UNL     1      32.788 -13.500 -21.986  0.00  0.00    +0.073 C 
ATOM      5  C   UNL     1      33.505 -12.882 -23.010  0.00  0.00    +0.028 C 
ATOM      6  C   UNL     1      31.836 -12.777 -21.267  0.00  0.00    +0.004 C 
ENDROOT
BRANCH   4  10
ATOM      7  F   UNL     1      34.030 -15.121 -20.738  0.00  0.00    -0.166 F 
ATOM      8  F   UNL     1      31.948 -15.575 -21.144  0.00  0.00    -0.166 F 
ATOM      9  F   UNL     1      33.410 -15.664 -22.751  0.00  0.00    -0.166 F 
ATOM     10  C   UNL     1      33.038 -14.933 -21.660  0.00  0.00    +0.419 C 
ENDBRANCH   4  10
BRANCH   2  13
ATOM     11  O   UNL     1      33.630 -11.090 -25.547  0.00  0.00    -0.126 OA
ATOM     12  O   UNL     1      35.033 -10.262 -24.076  0.00  0.00    -0.126 OA
ATOM     13  N   UNL     1      34.015 -10.935 -24.365  0.00  0.00    +0.058 N 
ENDBRANCH   2  13
BRANCH   1  15
ATOM     14  O   UNL     1      31.104  -9.107 -23.608  0.00  0.00    -0.290 OA
ATOM     15  C   UNL     1      32.049  -9.416 -22.885  0.00  0.00    +0.188 C 
BRANCH  15  18
ATOM     16  O   UNL     1      32.631  -8.594 -19.922  0.00  0.00    -0.295 OA
ATOM     17  O   UNL     1      33.995  -7.342 -24.178  0.00  0.00    -0.295 OA
ATOM     18  C   UNL     1      32.933  -8.366 -22.289  0.00  0.00    +0.176 C 
ATOM     19  C   UNL     1      32.122  -5.582 -21.733  0.00  0.00    +0.016 C 
ATOM     20  C   UNL     1      31.538  -6.697 -20.880  0.00  0.00    +0.066 C 
ATOM     21  C   UNL     1      32.269  -6.025 -23.179  0.00  0.00    +0.066 C 
ATOM     22  C   UNL     1      32.427  -7.917 -20.931  0.00  0.00    +0.165 C 
ATOM     23  C   UNL     1      33.173  -7.232 -23.267  0.00  0.00    +0.165 C 
ENDBRANCH  15  18
ENDBRANCH   1  15
TORSDOF 4
ENDMDL
MODEL 6
REMARK VINA RESULT:      -8.7      4.886      7.194
REMARK  Name = 115355
REMARK  4 active torsions:
REMARK  status: ('A' for Active; 'I' for Inactive)
REMARK    1  A    between atoms: C_1  and  C_15
REMARK    2  A    between atoms: C_2  and  N_13
REMARK    3  A    between atoms: C_4  and  C_10
REMARK    4  A    between atoms: C_15  and  C_18
REMARK                            x       y       z     vdW  Elec       q    Type
REMARK                         _______ _______ _______ _____ _____    ______ ____
ROOT
ATOM      1  C   UNL     1      36.270 -24.719 -13.441  0.00  0.00    +0.058 C 
ATOM      2  C   UNL     1      37.297 -24.253 -12.649  0.00  0.00    +0.146 C 
ATOM      3  C   UNL     1      36.496 -25.483 -14.567  0.00  0.00    +0.004 C 
ATOM      4  C   UNL     1      38.867 -25.336 -14.131  0.00  0.00    +0.073 C 
ATOM      5  C   UNL     1      38.611 -24.564 -12.999  0.00  0.00    +0.028 C 
ATOM      6  C   UNL     1      37.809 -25.796 -14.916  0.00  0.00    +0.004 C 
ENDROOT
BRANCH   4  10
ATOM      7  F   UNL     1      41.112 -24.591 -14.496  0.00  0.00    -0.166 F 
ATOM      8  F   UNL     1      40.857 -26.583 -13.674  0.00  0.00    -0.166 F 
ATOM      9  F   UNL     1      40.371 -26.199 -15.759  0.00  0.00    -0.166 F 
ATOM     10  C   UNL     1      40.272 -25.669 -14.505  0.00  0.00    +0.419 C 
ENDBRANCH   4  10
BRANCH   2  13
ATOM     11  O   UNL     1      37.242 -22.224 -11.555  0.00  0.00    -0.126 OA
ATOM     12  O   UNL     1      36.682 -24.030 -10.438  0.00  0.00    -0.126 OA
ATOM     13  N   UNL     1      37.062 -23.463 -11.490  0.00  0.00    +0.058 N 
ENDBRANCH   2  13
BRANCH   1  15
ATOM     14  O   UNL     1      34.249 -25.105 -12.287  0.00  0.00    -0.290 OA
ATOM     15  C   UNL     1      34.853 -24.408 -13.100  0.00  0.00    +0.188 C 
BRANCH  15  18
ATOM     16  O   UNL     1      32.000 -23.166 -12.775  0.00  0.00    -0.295 OA
ATOM     17  O   UNL     1      35.859 -22.344 -15.218  0.00  0.00    -0.295 OA
ATOM     18  C   UNL     1      34.185 -23.242 -13.758  0.00  0.00    +0.176 C 
ATOM     19  C   UNL     1      32.630 -23.374 -16.263  0.00  0.00    +0.016 C 
ATOM     20  C   UNL     1      32.050 -24.010 -15.011  0.00  0.00    +0.066 C 
ATOM     21  C   UNL     1      34.134 -23.573 -16.327  0.00  0.00    +0.066 C 
ATOM     22  C   UNL     1      32.676 -23.405 -13.777  0.00  0.00    +0.165 C 
ATOM     23  C   UNL     1      34.795 -22.956 -15.117  0.00  0.00    +0.165 C 
ENDBRANCH  15  18
ENDBRANCH   1  15
TORSDOF 4
ENDMDL
MODEL 7
REMARK VINA RESULT:      -8.6      4.086      5.992
REMARK  Name = 115355
REMARK  4 active torsions:
REMARK  status: ('A' for Active; 'I' for Inactive)
REMARK    1  A    between atoms: C_1  and  C_15
REMARK    2  A    between atoms: C_2  and  N_13
REMARK    3  A    between atoms: C_4  and  C_10
REMARK    4  A    between atoms: C_15  and  C_18
REMARK                            x       y       z     vdW  Elec       q    Type
REMARK                         _______ _______ _______ _____ _____    ______ ____
ROOT
ATOM      1  C   UNL     1      34.391 -23.082 -16.920  0.00  0.00    +0.058 C 
ATOM      2  C   UNL     1      35.692 -22.677 -16.709  0.00  0.00    +0.146 C 
ATOM      3  C   UNL     1      33.710 -22.797 -18.086  0.00  0.00    +0.004 C 
ATOM      4  C   UNL     1      35.677 -21.653 -18.897  0.00  0.00    +0.073 C 
ATOM      5  C   UNL     1      36.342 -21.954 -17.709  0.00  0.00    +0.028 C 
ATOM      6  C   UNL     1      34.361 -22.075 -19.086  0.00  0.00    +0.004 C 
ENDROOT
BRANCH   4  10
ATOM      7  F   UNL     1      35.550 -20.495 -20.988  0.00  0.00    -0.166 F 
ATOM      8  F   UNL     1      36.950 -19.725 -19.520  0.00  0.00    -0.166 F 
ATOM      9  F   UNL     1      37.380 -21.588 -20.556  0.00  0.00    -0.166 F 
ATOM     10  C   UNL     1      36.373 -20.880 -19.966  0.00  0.00    +0.419 C 
ENDBRANCH   4  10
BRANCH   2  13
ATOM     11  O   UNL     1      36.065 -22.369 -14.455  0.00  0.00    -0.126 OA
ATOM     12  O   UNL     1      37.313 -23.819 -15.532  0.00  0.00    -0.126 OA
ATOM     13  N   UNL     1      36.391 -22.970 -15.506  0.00  0.00    +0.058 N 
ENDBRANCH   2  13
BRANCH   1  15
ATOM     14  O   UNL     1      34.033 -24.992 -15.583  0.00  0.00    -0.290 OA
ATOM     15  C   UNL     1      33.664 -23.857 -15.876  0.00  0.00    +0.188 C 
BRANCH  15  18
ATOM     16  O   UNL     1      33.008 -23.344 -12.860  0.00  0.00    -0.295 OA
ATOM     17  O   UNL     1      31.048 -22.564 -16.994  0.00  0.00    -0.295 OA
ATOM     18  C   UNL     1      32.485 -23.234 -15.197  0.00  0.00    +0.176 C 
ATOM     19  C   UNL     1      30.067 -24.687 -14.328  0.00  0.00    +0.016 C 
ATOM     20  C   UNL     1      31.370 -24.928 -13.583  0.00  0.00    +0.066 C 
ATOM     21  C   UNL     1      30.317 -24.510 -15.816  0.00  0.00    +0.066 C 
ATOM     22  C   UNL     1      32.312 -23.765 -13.786  0.00  0.00    +0.165 C 
ATOM     23  C   UNL     1      31.239 -23.338 -16.055  0.00  0.00    +0.165 C 
ENDBRANCH  15  18
ENDBRANCH   1  15
TORSDOF 4
ENDMDL
MODEL 8
REMARK VINA RESULT:      -8.6     10.550     12.272
REMARK  Name = 115355
REMARK  4 active torsions:
REMARK  status: ('A' for Active; 'I' for Inactive)
REMARK    1  A    between atoms: C_1  and  C_15
REMARK    2  A    between atoms: C_2  and  N_13
REMARK    3  A    between atoms: C_4  and  C_10
REMARK    4  A    between atoms: C_15  and  C_18
REMARK                            x       y       z     vdW  Elec       q    Type
REMARK                         _______ _______ _______ _____ _____    ______ ____
ROOT
ATOM      1  C   UNL     1      33.533 -14.436 -22.323  0.00  0.00    +0.058 C 
ATOM      2  C   UNL     1      32.997 -13.481 -23.160  0.00  0.00    +0.146 C 
ATOM      3  C   UNL     1      33.321 -14.424 -20.960  0.00  0.00    +0.004 C 
ATOM      4  C   UNL     1      31.984 -12.431 -21.235  0.00  0.00    +0.073 C 
ATOM      5  C   UNL     1      32.214 -12.467 -22.610  0.00  0.00    +0.028 C 
ATOM      6  C   UNL     1      32.538 -13.410 -20.409  0.00  0.00    +0.004 C 
ENDROOT
BRANCH   4  10
ATOM      7  F   UNL     1      31.559 -10.088 -20.988  0.00  0.00    -0.166 F 
ATOM      8  F   UNL     1      29.834 -11.404 -21.022  0.00  0.00    -0.166 F 
ATOM      9  F   UNL     1      31.138 -11.370 -19.282  0.00  0.00    -0.166 F 
ATOM     10  C   UNL     1      31.147 -11.346 -20.647  0.00  0.00    +0.419 C 
ENDBRANCH   4  10
BRANCH   2  13
ATOM     11  O   UNL     1      33.967 -12.625 -25.068  0.00  0.00    -0.126 OA
ATOM     12  O   UNL     1      32.656 -14.376 -25.258  0.00  0.00    -0.126 OA
ATOM     13  N   UNL     1      33.218 -13.495 -24.565  0.00  0.00    +0.058 N 
ENDBRANCH   2  13
BRANCH   1  15
ATOM     14  O   UNL     1      35.531 -15.312 -23.218  0.00  0.00    -0.290 OA
ATOM     15  C   UNL     1      34.373 -15.536 -22.873  0.00  0.00    +0.188 C 
BRANCH  15  18
ATOM     16  O   UNL     1      33.073 -17.462 -20.778  0.00  0.00    -0.295 OA
ATOM     17  O   UNL     1      33.971 -17.423 -25.331  0.00  0.00    -0.295 OA
ATOM     18  C   UNL     1      33.787 -16.907 -22.998  0.00  0.00    +0.176 C 
ATOM     19  C   UNL     1      35.299 -19.428 -22.724  0.00  0.00    +0.016 C 
ATOM     20  C   UNL     1      35.064 -18.580 -21.484  0.00  0.00    +0.066 C 
ATOM     21  C   UNL     1      35.552 -18.554 -23.940  0.00  0.00    +0.066 C 
ATOM     22  C   UNL     1      33.875 -17.671 -21.690  0.00  0.00    +0.165 C 
ATOM     23  C   UNL     1      34.370 -17.647 -24.187  0.00  0.00    +0.165 C 
ENDBRANCH  15  18
ENDBRANCH   1  15
TORSDOF 4
ENDMDL
MODEL 9
REMARK VINA RESULT:      -8.6      9.326     10.939
REMARK  Name = 115355
REMARK  4 active torsions:
REMARK  status: ('A' for Active; 'I' for Inactive)
REMARK    1  A    between atoms: C_1  and  C_15
REMARK    2  A    between atoms: C_2  and  N_13
REMARK    3  A    between atoms: C_4  and  C_10
REMARK    4  A    between atoms: C_15  and  C_18
REMARK                            x       y       z     vdW  Elec       q    Type
REMARK                         _______ _______ _______ _____ _____    ______ ____
ROOT
ATOM      1  C   UNL     1      34.742 -16.580 -22.508  0.00  0.00    +0.058 C 
ATOM      2  C   UNL     1      34.139 -15.380 -22.200  0.00  0.00    +0.146 C 
ATOM      3  C   UNL     1      34.887 -17.021 -23.807  0.00  0.00    +0.004 C 
ATOM      4  C   UNL     1      33.792 -15.004 -24.561  0.00  0.00    +0.073 C 
ATOM      5  C   UNL     1      33.658 -14.583 -23.238  0.00  0.00    +0.028 C 
ATOM      6  C   UNL     1      34.407 -16.223 -24.846  0.00  0.00    +0.004 C 
ENDROOT
BRANCH   4  10
ATOM      7  F   UNL     1      31.916 -14.155 -25.780  0.00  0.00    -0.166 F 
ATOM      8  F   UNL     1      33.621 -12.834 -25.553  0.00  0.00    -0.166 F 
ATOM      9  F   UNL     1      33.744 -14.542 -26.893  0.00  0.00    -0.166 F 
ATOM     10  C   UNL     1      33.278 -14.151 -25.671  0.00  0.00    +0.419 C 
ENDBRANCH   4  10
BRANCH   2  13
ATOM     11  O   UNL     1      34.951 -14.348 -20.305  0.00  0.00    -0.126 OA
ATOM     12  O   UNL     1      32.899 -15.127 -20.272  0.00  0.00    -0.126 OA
ATOM     13  N   UNL     1      33.989 -14.929 -20.859  0.00  0.00    +0.058 N 
ENDBRANCH   2  13
BRANCH   1  15
ATOM     14  O   UNL     1      35.449 -17.007 -20.298  0.00  0.00    -0.290 OA
ATOM     15  C   UNL     1      35.270 -17.459 -21.426  0.00  0.00    +0.188 C 
BRANCH  15  18
ATOM     16  O   UNL     1      33.442 -19.873 -22.216  0.00  0.00    -0.295 OA
ATOM     17  O   UNL     1      37.961 -19.039 -21.570  0.00  0.00    -0.295 OA
ATOM     18  C   UNL     1      35.575 -18.891 -21.736  0.00  0.00    +0.176 C 
ATOM     19  C   UNL     1      35.695 -21.067 -19.745  0.00  0.00    +0.016 C 
ATOM     20  C   UNL     1      34.343 -20.460 -20.081  0.00  0.00    +0.066 C 
ATOM     21  C   UNL     1      36.780 -20.004 -19.730  0.00  0.00    +0.066 C 
ATOM     22  C   UNL     1      34.391 -19.790 -21.434  0.00  0.00    +0.165 C 
ATOM     23  C   UNL     1      36.870 -19.330 -21.079  0.00  0.00    +0.165 C 
ENDBRANCH  15  18
ENDBRANCH   1  15
TORSDOF 4
ENDMDL
