MODEL 1
REMARK VINA RESULT:      -9.7      0.000      0.000
REMARK  Name = 10708341
REMARK  7 active torsions:
REMARK  status: ('A' for Active; 'I' for Inactive)
REMARK    1  A    between atoms: C_3  and  C_14
REMARK    2  A    between atoms: C_14  and  C_15
REMARK    3  A    between atoms: C_15  and  C_16
REMARK    4  A    between atoms: C_16  and  C_17
REMARK    5  A    between atoms: C_17  and  C_18
REMARK    6  A    between atoms: C_18  and  C_20
REMARK    7  A    between atoms: C_20  and  O_21
REMARK                            x       y       z     vdW  Elec       q    Type
REMARK                         _______ _______ _______ _____ _____    ______ ____
ROOT
ATOM      1  O   UNL     1      34.927 -16.392 -20.416  0.00  0.00    -0.287 OA
ATOM      2  O   UNL     1      33.145 -14.828 -25.198  0.00  0.00    -0.287 OA
ATOM      3  C   UNL     1      34.912 -16.774 -22.762  0.00  0.00    +0.016 C 
ATOM      4  C   UNL     1      34.479 -16.367 -23.971  0.00  0.00    +0.016 C 
ATOM      5  C   UNL     1      34.517 -16.043 -21.519  0.00  0.00    +0.192 C 
ATOM      6  C   UNL     1      33.624 -14.880 -21.639  0.00  0.00    +0.042 C 
ATOM      7  C   UNL     1      33.164 -14.469 -22.885  0.00  0.00    +0.042 C 
ATOM      8  C   UNL     1      33.564 -15.191 -24.103  0.00  0.00    +0.192 C 
ATOM      9  C   UNL     1      34.857 -17.003 -25.282  0.00  0.00    +0.034 C 
ATOM     10  C   UNL     1      33.236 -14.183 -20.486  0.00  0.00    +0.003 C 
ATOM     11  C   UNL     1      32.313 -13.360 -22.985  0.00  0.00    +0.003 C 
ATOM     12  C   UNL     1      32.388 -13.080 -20.589  0.00  0.00    +0.000 C 
ATOM     13  C   UNL     1      31.927 -12.668 -21.837  0.00  0.00    +0.000 C 
ENDROOT
BRANCH   3  14
ATOM     14  C   UNL     1      35.792 -17.971 -22.520  0.00  0.00    +0.029 C 
BRANCH  14  15
ATOM     15  C   UNL     1      35.006 -19.271 -22.649  0.00  0.00    +0.005 C 
BRANCH  15  16
ATOM     16  C   UNL     1      34.081 -19.528 -21.455  0.00  0.00    +0.001 C 
BRANCH  16  17
ATOM     17  C   UNL     1      34.718 -20.406 -20.372  0.00  0.00    +0.012 C 
BRANCH  17  18
ATOM     18  C   UNL     1      33.693 -21.292 -19.662  0.00  0.00    +0.109 C 
BRANCH  18  20
ATOM     19  O   UNL     1      33.827 -23.696 -19.297  0.00  0.00    -0.250 OA
ATOM     20  C   UNL     1      34.283 -22.575 -19.123  0.00  0.00    +0.314 C 
BRANCH  20  21
ATOM     21  O   UNL     1      35.396 -22.336 -18.380  0.00  0.00    -0.480 OA
ATOM     22  H   UNL     1      35.648 -21.455 -18.184  0.00  0.00    +0.295 HD
ENDBRANCH  20  21
ENDBRANCH  18  20
ENDBRANCH  17  18
ENDBRANCH  16  17
ENDBRANCH  15  16
ENDBRANCH  14  15
ENDBRANCH   3  14
TORSDOF 7
ENDMDL
MODEL 2
REMARK VINA RESULT:      -9.5      1.473      2.151
REMARK  Name = 10708341
REMARK  7 active torsions:
REMARK  status: ('A' for Active; 'I' for Inactive)
REMARK    1  A    between atoms: C_3  and  C_14
REMARK    2  A    between atoms: C_14  and  C_15
REMARK    3  A    between atoms: C_15  and  C_16
REMARK    4  A    between atoms: C_16  and  C_17
REMARK    5  A    between atoms: C_17  and  C_18
REMARK    6  A    between atoms: C_18  and  C_20
REMARK    7  A    between atoms: C_20  and  O_21
REMARK                            x       y       z     vdW  Elec       q    Type
REMARK                         _______ _______ _______ _____ _____    ______ ____
ROOT
ATOM      1  O   UNL     1      34.443 -16.150 -20.639  0.00  0.00    -0.287 OA
ATOM      2  O   UNL     1      34.241 -17.416 -25.821  0.00  0.00    -0.287 OA
ATOM      3  C   UNL     1      34.667 -17.847 -22.288  0.00  0.00    +0.016 C 
ATOM      4  C   UNL     1      34.636 -18.162 -23.598  0.00  0.00    +0.016 C 
ATOM      5  C   UNL     1      34.392 -16.452 -21.827  0.00  0.00    +0.192 C 
ATOM      6  C   UNL     1      34.064 -15.429 -22.833  0.00  0.00    +0.042 C 
ATOM      7  C   UNL     1      34.017 -15.757 -24.184  0.00  0.00    +0.042 C 
ATOM      8  C   UNL     1      34.295 -17.132 -24.628  0.00  0.00    +0.192 C 
ATOM      9  C   UNL     1      34.944 -19.521 -24.165  0.00  0.00    +0.034 C 
ATOM     10  C   UNL     1      33.798 -14.115 -22.424  0.00  0.00    +0.003 C 
ATOM     11  C   UNL     1      33.703 -14.773 -25.131  0.00  0.00    +0.003 C 
ATOM     12  C   UNL     1      33.485 -13.138 -23.370  0.00  0.00    +0.000 C 
ATOM     13  C   UNL     1      33.437 -13.467 -24.721  0.00  0.00    +0.000 C 
ENDROOT
BRANCH   3  14
ATOM     14  C   UNL     1      34.949 -18.820 -21.175  0.00  0.00    +0.029 C 
BRANCH  14  15
ATOM     15  C   UNL     1      36.449 -18.977 -20.944  0.00  0.00    +0.005 C 
BRANCH  15  16
ATOM     16  C   UNL     1      36.801 -20.253 -20.173  0.00  0.00    +0.001 C 
BRANCH  16  17
ATOM     17  C   UNL     1      35.753 -21.361 -20.323  0.00  0.00    +0.012 C 
BRANCH  17  18
ATOM     18  C   UNL     1      35.193 -21.820 -18.975  0.00  0.00    +0.109 C 
BRANCH  18  20
ATOM     19  O   UNL     1      32.773 -22.046 -18.816  0.00  0.00    -0.250 OA
ATOM     20  C   UNL     1      33.862 -22.528 -19.092  0.00  0.00    +0.314 C 
BRANCH  20  21
ATOM     21  O   UNL     1      34.017 -23.807 -19.525  0.00  0.00    -0.480 OA
ATOM     22  H   UNL     1      34.783 -24.049 -20.007  0.00  0.00    +0.295 HD
ENDBRANCH  20  21
ENDBRANCH  18  20
ENDBRANCH  17  18
ENDBRANCH  16  17
ENDBRANCH  15  16
ENDBRANCH  14  15
ENDBRANCH   3  14
TORSDOF 7
ENDMDL
MODEL 3
REMARK VINA RESULT:      -9.4      6.794     10.014
REMARK  Name = 10708341
REMARK  7 active torsions:
REMARK  status: ('A' for Active; 'I' for Inactive)
REMARK    1  A    between atoms: C_3  and  C_14
REMARK    2  A    between atoms: C_14  and  C_15
REMARK    3  A    between atoms: C_15  and  C_16
REMARK    4  A    between atoms: C_16  and  C_17
REMARK    5  A    between atoms: C_17  and  C_18
REMARK    6  A    between atoms: C_18  and  C_20
REMARK    7  A    between atoms: C_20  and  O_21
REMARK                            x       y       z     vdW  Elec       q    Type
REMARK                         _______ _______ _______ _____ _____    ______ ____
ROOT
ATOM      1  O   UNL     1      37.523 -22.390 -15.377  0.00  0.00    -0.287 OA
ATOM      2  O   UNL     1      32.507 -23.511 -16.818  0.00  0.00    -0.287 OA
ATOM      3  C   UNL     1      35.415 -23.284 -14.737  0.00  0.00    +0.016 C 
ATOM      4  C   UNL     1      34.156 -23.586 -15.107  0.00  0.00    +0.016 C 
ATOM      5  C   UNL     1      36.366 -22.645 -15.697  0.00  0.00    +0.192 C 
ATOM      6  C   UNL     1      35.891 -22.330 -17.053  0.00  0.00    +0.042 C 
ATOM      7  C   UNL     1      34.586 -22.626 -17.431  0.00  0.00    +0.042 C 
ATOM      8  C   UNL     1      33.660 -23.262 -16.480  0.00  0.00    +0.192 C 
ATOM      9  C   UNL     1      33.141 -24.272 -14.232  0.00  0.00    +0.034 C 
ATOM     10  C   UNL     1      36.763 -21.725 -17.969  0.00  0.00    +0.003 C 
ATOM     11  C   UNL     1      34.146 -22.319 -18.726  0.00  0.00    +0.003 C 
ATOM     12  C   UNL     1      36.321 -21.420 -19.258  0.00  0.00    +0.000 C 
ATOM     13  C   UNL     1      35.015 -21.717 -19.636  0.00  0.00    +0.000 C 
ENDROOT
BRANCH   3  14
ATOM     14  C   UNL     1      35.992 -23.525 -13.367  0.00  0.00    +0.029 C 
BRANCH  14  15
ATOM     15  C   UNL     1      36.370 -24.990 -13.174  0.00  0.00    +0.005 C 
BRANCH  15  16
ATOM     16  C   UNL     1      37.608 -25.173 -12.291  0.00  0.00    +0.001 C 
BRANCH  16  17
ATOM     17  C   UNL     1      38.925 -24.915 -13.030  0.00  0.00    +0.012 C 
BRANCH  17  18
ATOM     18  C   UNL     1      38.941 -25.536 -14.428  0.00  0.00    +0.109 C 
BRANCH  18  20
ATOM     19  O   UNL     1      41.141 -26.518 -14.074  0.00  0.00    -0.250 OA
ATOM     20  C   UNL     1      40.299 -26.060 -14.834  0.00  0.00    +0.314 C 
BRANCH  20  21
ATOM     21  O   UNL     1      40.498 -25.941 -16.174  0.00  0.00    -0.480 OA
ATOM     22  H   UNL     1      40.259 -26.643 -16.746  0.00  0.00    +0.295 HD
ENDBRANCH  20  21
ENDBRANCH  18  20
ENDBRANCH  17  18
ENDBRANCH  16  17
ENDBRANCH  15  16
ENDBRANCH  14  15
ENDBRANCH   3  14
TORSDOF 7
ENDMDL
MODEL 4
REMARK VINA RESULT:      -9.4      5.950      9.085
REMARK  Name = 10708341
REMARK  7 active torsions:
REMARK  status: ('A' for Active; 'I' for Inactive)
REMARK    1  A    between atoms: C_3  and  C_14
REMARK    2  A    between atoms: C_14  and  C_15
REMARK    3  A    between atoms: C_15  and  C_16
REMARK    4  A    between atoms: C_16  and  C_17
REMARK    5  A    between atoms: C_17  and  C_18
REMARK    6  A    between atoms: C_18  and  C_20
REMARK    7  A    between atoms: C_20  and  O_21
REMARK                            x       y       z     vdW  Elec       q    Type
REMARK                         _______ _______ _______ _____ _____    ______ ____
ROOT
ATOM      1  O   UNL     1      32.167 -22.736 -17.989  0.00  0.00    -0.287 OA
ATOM      2  O   UNL     1      37.190 -22.587 -16.188  0.00  0.00    -0.287 OA
ATOM      3  C   UNL     1      33.679 -23.302 -16.243  0.00  0.00    +0.016 C 
ATOM      4  C   UNL     1      34.942 -23.246 -15.780  0.00  0.00    +0.016 C 
ATOM      5  C   UNL     1      33.320 -22.712 -17.570  0.00  0.00    +0.192 C 
ATOM      6  C   UNL     1      34.383 -22.088 -18.373  0.00  0.00    +0.042 C 
ATOM      7  C   UNL     1      35.691 -22.044 -17.902  0.00  0.00    +0.042 C 
ATOM      8  C   UNL     1      36.032 -22.621 -16.592  0.00  0.00    +0.192 C 
ATOM      9  C   UNL     1      35.393 -23.765 -14.441  0.00  0.00    +0.034 C 
ATOM     10  C   UNL     1      34.072 -21.533 -19.622  0.00  0.00    +0.003 C 
ATOM     11  C   UNL     1      36.694 -21.447 -18.678  0.00  0.00    +0.003 C 
ATOM     12  C   UNL     1      35.073 -20.940 -20.393  0.00  0.00    +0.000 C 
ATOM     13  C   UNL     1      36.382 -20.896 -19.921  0.00  0.00    +0.000 C 
ENDROOT
BRANCH   3  14
ATOM     14  C   UNL     1      32.526 -23.951 -15.526  0.00  0.00    +0.029 C 
BRANCH  14  15
ATOM     15  C   UNL     1      31.851 -22.976 -14.566  0.00  0.00    +0.005 C 
BRANCH  15  16
ATOM     16  C   UNL     1      30.548 -23.526 -13.979  0.00  0.00    +0.001 C 
BRANCH  16  17
ATOM     17  C   UNL     1      29.741 -24.369 -14.973  0.00  0.00    +0.012 C 
BRANCH  17  18
ATOM     18  C   UNL     1      28.448 -23.677 -15.409  0.00  0.00    +0.109 C 
BRANCH  18  20
ATOM     19  O   UNL     1      27.694 -23.794 -17.722  0.00  0.00    -0.250 OA
ATOM     20  C   UNL     1      28.432 -23.310 -16.876  0.00  0.00    +0.314 C 
BRANCH  20  21
ATOM     21  O   UNL     1      29.373 -22.372 -17.164  0.00  0.00    -0.480 OA
ATOM     22  H   UNL     1      29.132 -21.592 -17.624  0.00  0.00    +0.295 HD
ENDBRANCH  20  21
ENDBRANCH  18  20
ENDBRANCH  17  18
ENDBRANCH  16  17
ENDBRANCH  15  16
ENDBRANCH  14  15
ENDBRANCH   3  14
TORSDOF 7
ENDMDL
MODEL 5
REMARK VINA RESULT:      -9.3      3.198      7.402
REMARK  Name = 10708341
REMARK  7 active torsions:
REMARK  status: ('A' for Active; 'I' for Inactive)
REMARK    1  A    between atoms: C_3  and  C_14
REMARK    2  A    between atoms: C_14  and  C_15
REMARK    3  A    between atoms: C_15  and  C_16
REMARK    4  A    between atoms: C_16  and  C_17
REMARK    5  A    between atoms: C_17  and  C_18
REMARK    6  A    between atoms: C_18  and  C_20
REMARK    7  A    between atoms: C_20  and  O_21
REMARK                            x       y       z     vdW  Elec       q    Type
REMARK                         _______ _______ _______ _____ _____    ______ ____
ROOT
ATOM      1  O   UNL     1      34.557 -14.684 -21.097  0.00  0.00    -0.287 OA
ATOM      2  O   UNL     1      33.978 -17.238 -25.748  0.00  0.00    -0.287 OA
ATOM      3  C   UNL     1      33.936 -14.542 -23.387  0.00  0.00    +0.016 C 
ATOM      4  C   UNL     1      33.770 -15.191 -24.556  0.00  0.00    +0.016 C 
ATOM      5  C   UNL     1      34.427 -15.261 -22.172  0.00  0.00    +0.192 C 
ATOM      6  C   UNL     1      34.749 -16.692 -22.283  0.00  0.00    +0.042 C 
ATOM      7  C   UNL     1      34.593 -17.360 -23.493  0.00  0.00    +0.042 C 
ATOM      8  C   UNL     1      34.102 -16.644 -24.681  0.00  0.00    +0.192 C 
ATOM      9  C   UNL     1      33.237 -14.570 -25.819  0.00  0.00    +0.034 C 
ATOM     10  C   UNL     1      35.216 -17.386 -21.158  0.00  0.00    +0.003 C 
ATOM     11  C   UNL     1      34.904 -18.723 -23.584  0.00  0.00    +0.003 C 
ATOM     12  C   UNL     1      35.525 -18.744 -21.253  0.00  0.00    +0.000 C 
ATOM     13  C   UNL     1      35.369 -19.412 -22.464  0.00  0.00    +0.000 C 
ENDROOT
BRANCH   3  14
ATOM     14  C   UNL     1      33.678 -13.074 -23.173  0.00  0.00    +0.029 C 
BRANCH  14  15
ATOM     15  C   UNL     1      32.210 -12.811 -22.852  0.00  0.00    +0.005 C 
BRANCH  15  16
ATOM     16  C   UNL     1      31.964 -12.550 -21.363  0.00  0.00    +0.001 C 
BRANCH  16  17
ATOM     17  C   UNL     1      30.894 -11.484 -21.103  0.00  0.00    +0.012 C 
BRANCH  17  18
ATOM     18  C   UNL     1      31.275 -10.544 -19.957  0.00  0.00    +0.109 C 
BRANCH  18  20
ATOM     19  O   UNL     1      31.973  -8.841 -21.552  0.00  0.00    -0.250 OA
ATOM     20  C   UNL     1      32.001  -9.301 -20.419  0.00  0.00    +0.314 C 
BRANCH  20  21
ATOM     21  O   UNL     1      32.730  -8.749 -19.414  0.00  0.00    -0.480 OA
ATOM     22  H   UNL     1      33.498  -8.250 -19.612  0.00  0.00    +0.295 HD
ENDBRANCH  20  21
ENDBRANCH  18  20
ENDBRANCH  17  18
ENDBRANCH  16  17
ENDBRANCH  15  16
ENDBRANCH  14  15
ENDBRANCH   3  14
TORSDOF 7
ENDMDL
MODEL 6
REMARK VINA RESULT:      -9.1      3.516      7.746
REMARK  Name = 10708341
REMARK  7 active torsions:
REMARK  status: ('A' for Active; 'I' for Inactive)
REMARK    1  A    between atoms: C_3  and  C_14
REMARK    2  A    between atoms: C_14  and  C_15
REMARK    3  A    between atoms: C_15  and  C_16
REMARK    4  A    between atoms: C_16  and  C_17
REMARK    5  A    between atoms: C_17  and  C_18
REMARK    6  A    between atoms: C_18  and  C_20
REMARK    7  A    between atoms: C_20  and  O_21
REMARK                            x       y       z     vdW  Elec       q    Type
REMARK                         _______ _______ _______ _____ _____    ______ ____
ROOT
ATOM      1  O   UNL     1      33.572 -14.274 -21.244  0.00  0.00    -0.287 OA
ATOM      2  O   UNL     1      34.311 -16.736 -25.923  0.00  0.00    -0.287 OA
ATOM      3  C   UNL     1      33.269 -14.213 -23.602  0.00  0.00    +0.016 C 
ATOM      4  C   UNL     1      33.437 -14.843 -24.780  0.00  0.00    +0.016 C 
ATOM      5  C   UNL     1      33.743 -14.830 -22.325  0.00  0.00    +0.192 C 
ATOM      6  C   UNL     1      34.420 -16.135 -22.383  0.00  0.00    +0.042 C 
ATOM      7  C   UNL     1      34.608 -16.779 -23.601  0.00  0.00    +0.042 C 
ATOM      8  C   UNL     1      34.132 -16.166 -24.851  0.00  0.00    +0.192 C 
ATOM      9  C   UNL     1      32.954 -14.330 -26.110  0.00  0.00    +0.034 C 
ATOM     10  C   UNL     1      34.878 -16.730 -21.200  0.00  0.00    +0.003 C 
ATOM     11  C   UNL     1      35.256 -18.021 -23.642  0.00  0.00    +0.003 C 
ATOM     12  C   UNL     1      35.523 -17.967 -21.244  0.00  0.00    +0.000 C 
ATOM     13  C   UNL     1      35.712 -18.612 -22.463  0.00  0.00    +0.000 C 
ENDROOT
BRANCH   3  14
ATOM     14  C   UNL     1      32.628 -12.861 -23.432  0.00  0.00    +0.029 C 
BRANCH  14  15
ATOM     15  C   UNL     1      33.650 -11.740 -23.595  0.00  0.00    +0.005 C 
BRANCH  15  16
ATOM     16  C   UNL     1      33.003 -10.354 -23.682  0.00  0.00    +0.001 C 
BRANCH  16  17
ATOM     17  C   UNL     1      32.038 -10.061 -22.527  0.00  0.00    +0.012 C 
BRANCH  17  18
ATOM     18  C   UNL     1      32.347  -8.733 -21.832  0.00  0.00    +0.109 C 
BRANCH  18  20
ATOM     19  O   UNL     1      31.812  -9.711 -19.667  0.00  0.00    -0.250 OA
ATOM     20  C   UNL     1      32.360  -8.837 -20.324  0.00  0.00    +0.314 C 
BRANCH  20  21
ATOM     21  O   UNL     1      33.046  -7.807 -19.761  0.00  0.00    -0.480 OA
ATOM     22  H   UNL     1      33.741  -7.393 -20.233  0.00  0.00    +0.295 HD
ENDBRANCH  20  21
ENDBRANCH  18  20
ENDBRANCH  17  18
ENDBRANCH  16  17
ENDBRANCH  15  16
ENDBRANCH  14  15
ENDBRANCH   3  14
TORSDOF 7
ENDMDL
MODEL 7
REMARK VINA RESULT:      -8.9      1.698      3.071
REMARK  Name = 10708341
REMARK  7 active torsions:
REMARK  status: ('A' for Active; 'I' for Inactive)
REMARK    1  A    between atoms: C_3  and  C_14
REMARK    2  A    between atoms: C_14  and  C_15
REMARK    3  A    between atoms: C_15  and  C_16
REMARK    4  A    between atoms: C_16  and  C_17
REMARK    5  A    between atoms: C_17  and  C_18
REMARK    6  A    between atoms: C_18  and  C_20
REMARK    7  A    between atoms: C_20  and  O_21
REMARK                            x       y       z     vdW  Elec       q    Type
REMARK                         _______ _______ _______ _____ _____    ______ ____
ROOT
ATOM      1  O   UNL     1      34.741 -17.994 -24.988  0.00  0.00    -0.287 OA
ATOM      2  O   UNL     1      33.798 -13.844 -21.765  0.00  0.00    -0.287 OA
ATOM      3  C   UNL     1      34.861 -17.112 -22.784  0.00  0.00    +0.016 C 
ATOM      4  C   UNL     1      34.604 -16.072 -21.966  0.00  0.00    +0.016 C 
ATOM      5  C   UNL     1      34.534 -17.042 -24.241  0.00  0.00    +0.192 C 
ATOM      6  C   UNL     1      33.944 -15.804 -24.772  0.00  0.00    +0.042 C 
ATOM      7  C   UNL     1      33.693 -14.724 -23.932  0.00  0.00    +0.042 C 
ATOM      8  C   UNL     1      34.013 -14.805 -22.498  0.00  0.00    +0.192 C 
ATOM      9  C   UNL     1      34.851 -16.061 -20.482  0.00  0.00    +0.034 C 
ATOM     10  C   UNL     1      33.634 -15.714 -26.136  0.00  0.00    +0.003 C 
ATOM     11  C   UNL     1      33.132 -13.550 -24.451  0.00  0.00    +0.003 C 
ATOM     12  C   UNL     1      33.076 -14.542 -26.650  0.00  0.00    +0.000 C 
ATOM     13  C   UNL     1      32.825 -13.462 -25.809  0.00  0.00    +0.000 C 
ENDROOT
BRANCH   3  14
ATOM     14  C   UNL     1      35.498 -18.407 -22.356  0.00  0.00    +0.029 C 
BRANCH  14  15
ATOM     15  C   UNL     1      34.451 -19.496 -22.146  0.00  0.00    +0.005 C 
BRANCH  15  16
ATOM     16  C   UNL     1      33.562 -19.238 -20.925  0.00  0.00    +0.001 C 
BRANCH  16  17
ATOM     17  C   UNL     1      33.153 -20.519 -20.190  0.00  0.00    +0.012 C 
BRANCH  17  18
ATOM     18  C   UNL     1      34.360 -21.312 -19.686  0.00  0.00    +0.109 C 
BRANCH  18  20
ATOM     19  O   UNL     1      34.803 -22.957 -17.944  0.00  0.00    -0.250 OA
ATOM     20  C   UNL     1      34.004 -22.339 -18.635  0.00  0.00    +0.314 C 
BRANCH  20  21
ATOM     21  O   UNL     1      32.660 -22.525 -18.558  0.00  0.00    -0.480 OA
ATOM     22  H   UNL     1      32.212 -22.376 -17.749  0.00  0.00    +0.295 HD
ENDBRANCH  20  21
ENDBRANCH  18  20
ENDBRANCH  17  18
ENDBRANCH  16  17
ENDBRANCH  15  16
ENDBRANCH  14  15
ENDBRANCH   3  14
TORSDOF 7
ENDMDL
MODEL 8
REMARK VINA RESULT:      -8.9      3.177      8.839
REMARK  Name = 10708341
REMARK  7 active torsions:
REMARK  status: ('A' for Active; 'I' for Inactive)
REMARK    1  A    between atoms: C_3  and  C_14
REMARK    2  A    between atoms: C_14  and  C_15
REMARK    3  A    between atoms: C_15  and  C_16
REMARK    4  A    between atoms: C_16  and  C_17
REMARK    5  A    between atoms: C_17  and  C_18
REMARK    6  A    between atoms: C_18  and  C_20
REMARK    7  A    between atoms: C_20  and  O_21
REMARK                            x       y       z     vdW  Elec       q    Type
REMARK                         _______ _______ _______ _____ _____    ______ ____
ROOT
ATOM      1  O   UNL     1      32.273 -23.104 -17.851  0.00  0.00    -0.287 OA
ATOM      2  O   UNL     1      37.381 -22.068 -16.695  0.00  0.00    -0.287 OA
ATOM      3  C   UNL     1      34.348 -22.215 -18.598  0.00  0.00    +0.016 C 
ATOM      4  C   UNL     1      35.642 -21.973 -18.314  0.00  0.00    +0.016 C 
ATOM      5  C   UNL     1      33.447 -22.856 -17.592  0.00  0.00    +0.192 C 
ATOM      6  C   UNL     1      33.997 -23.198 -16.272  0.00  0.00    +0.042 C 
ATOM      7  C   UNL     1      35.329 -22.934 -15.971  0.00  0.00    +0.042 C 
ATOM      8  C   UNL     1      36.209 -22.308 -16.971  0.00  0.00    +0.192 C 
ATOM      9  C   UNL     1      36.639 -21.378 -19.272  0.00  0.00    +0.034 C 
ATOM     10  C   UNL     1      33.170 -23.795 -15.310  0.00  0.00    +0.003 C 
ATOM     11  C   UNL     1      35.840 -23.264 -14.709  0.00  0.00    +0.003 C 
ATOM     12  C   UNL     1      33.682 -24.122 -14.053  0.00  0.00    +0.000 C 
ATOM     13  C   UNL     1      35.015 -23.857 -13.753  0.00  0.00    +0.000 C 
ENDROOT
BRANCH   3  14
ATOM     14  C   UNL     1      33.672 -21.870 -19.899  0.00  0.00    +0.029 C 
BRANCH  14  15
ATOM     15  C   UNL     1      33.013 -20.496 -19.833  0.00  0.00    +0.005 C 
BRANCH  15  16
ATOM     16  C   UNL     1      33.273 -19.651 -21.083  0.00  0.00    +0.001 C 
BRANCH  16  17
ATOM     17  C   UNL     1      34.757 -19.556 -21.454  0.00  0.00    +0.012 C 
BRANCH  17  18
ATOM     18  C   UNL     1      35.215 -18.112 -21.666  0.00  0.00    +0.109 C 
BRANCH  18  20
ATOM     19  O   UNL     1      34.986 -18.430 -24.070  0.00  0.00    -0.250 OA
ATOM     20  C   UNL     1      35.262 -17.708 -23.122  0.00  0.00    +0.314 C 
BRANCH  20  21
ATOM     21  O   UNL     1      35.680 -16.423 -23.268  0.00  0.00    -0.480 OA
ATOM     22  H   UNL     1      35.652 -16.014 -24.110  0.00  0.00    +0.295 HD
ENDBRANCH  20  21
ENDBRANCH  18  20
ENDBRANCH  17  18
ENDBRANCH  16  17
ENDBRANCH  15  16
ENDBRANCH  14  15
ENDBRANCH   3  14
TORSDOF 7
ENDMDL
MODEL 9
REMARK VINA RESULT:      -8.9      3.455      8.240
REMARK  Name = 10708341
REMARK  7 active torsions:
REMARK  status: ('A' for Active; 'I' for Inactive)
REMARK    1  A    between atoms: C_3  and  C_14
REMARK    2  A    between atoms: C_14  and  C_15
REMARK    3  A    between atoms: C_15  and  C_16
REMARK    4  A    between atoms: C_16  and  C_17
REMARK    5  A    between atoms: C_17  and  C_18
REMARK    6  A    between atoms: C_18  and  C_20
REMARK    7  A    between atoms: C_20  and  O_21
REMARK                            x       y       z     vdW  Elec       q    Type
REMARK                         _______ _______ _______ _____ _____    ______ ____
ROOT
ATOM      1  O   UNL     1      33.559 -14.604 -21.415  0.00  0.00    -0.287 OA
ATOM      2  O   UNL     1      34.626 -17.270 -25.915  0.00  0.00    -0.287 OA
ATOM      3  C   UNL     1      33.379 -14.672 -23.785  0.00  0.00    +0.016 C 
ATOM      4  C   UNL     1      33.630 -15.355 -24.918  0.00  0.00    +0.016 C 
ATOM      5  C   UNL     1      33.805 -15.207 -22.455  0.00  0.00    +0.192 C 
ATOM      6  C   UNL     1      34.528 -16.487 -22.410  0.00  0.00    +0.042 C 
ATOM      7  C   UNL     1      34.801 -17.185 -23.582  0.00  0.00    +0.042 C 
ATOM      8  C   UNL     1      34.372 -16.654 -24.885  0.00  0.00    +0.192 C 
ATOM      9  C   UNL     1      33.201 -14.926 -26.296  0.00  0.00    +0.034 C 
ATOM     10  C   UNL     1      34.942 -17.006 -21.176  0.00  0.00    +0.003 C 
ATOM     11  C   UNL     1      35.491 -18.404 -23.524  0.00  0.00    +0.003 C 
ATOM     12  C   UNL     1      35.629 -18.219 -21.122  0.00  0.00    +0.000 C 
ATOM     13  C   UNL     1      35.903 -18.917 -22.295  0.00  0.00    +0.000 C 
ENDROOT
BRANCH   3  14
ATOM     14  C   UNL     1      32.686 -13.337 -23.719  0.00  0.00    +0.029 C 
BRANCH  14  15
ATOM     15  C   UNL     1      33.687 -12.202 -23.531  0.00  0.00    +0.005 C 
BRANCH  15  16
ATOM     16  C   UNL     1      34.064 -11.517 -24.848  0.00  0.00    +0.001 C 
BRANCH  16  17
ATOM     17  C   UNL     1      34.610 -10.097 -24.660  0.00  0.00    +0.012 C 
BRANCH  17  18
ATOM     18  C   UNL     1      33.729  -9.250 -23.740  0.00  0.00    +0.109 C 
BRANCH  18  20
ATOM     19  O   UNL     1      33.503  -6.878 -24.244  0.00  0.00    -0.250 OA
ATOM     20  C   UNL     1      34.122  -7.791 -23.714  0.00  0.00    +0.314 C 
BRANCH  20  21
ATOM     21  O   UNL     1      35.286  -7.601 -23.039  0.00  0.00    -0.480 OA
ATOM     22  H   UNL     1      35.375  -7.915 -22.161  0.00  0.00    +0.295 HD
ENDBRANCH  20  21
ENDBRANCH  18  20
ENDBRANCH  17  18
ENDBRANCH  16  17
ENDBRANCH  15  16
ENDBRANCH  14  15
ENDBRANCH   3  14
TORSDOF 7
ENDMDL
