MODEL 1
REMARK VINA RESULT:     -10.6      0.000      0.000
REMARK  Name = 11500493
REMARK  5 active torsions:
REMARK  status: ('A' for Active; 'I' for Inactive)
REMARK    1  A    between atoms: C_1  and  C_15
REMARK    2  A    between atoms: C_2  and  C_8
REMARK    3  A    between atoms: C_11  and  O_13
REMARK    4  A    between atoms: C_15  and  N_16
REMARK    5  A    between atoms: N_16  and  C_19
REMARK                            x       y       z     vdW  Elec       q    Type
REMARK                         _______ _______ _______ _____ _____    ______ ____
ROOT
ATOM      1  C   UNL     1      34.588 -16.409 -22.618  0.00  0.00    -0.003 C 
ATOM      2  C   UNL     1      34.444 -18.741 -22.009  0.00  0.00    +0.001 C 
ATOM      3  C   UNL     1      34.372 -17.394 -21.656  0.00  0.00    -0.003 C 
ATOM      4  C   UNL     1      34.876 -16.770 -23.934  0.00  0.00    -0.003 C 
ATOM      5  C   UNL     1      34.732 -19.103 -23.325  0.00  0.00    +0.000 C 
ATOM      6  C   UNL     1      34.948 -18.117 -24.287  0.00  0.00    -0.000 C 
ENDROOT
BRANCH   2   8
ATOM      7  N   UNL     1      32.662 -20.998 -19.636  0.00  0.00    -0.239 NA
ATOM      8  C   UNL     1      34.220 -19.764 -21.010  0.00  0.00    +0.022 C 
ATOM      9  C   UNL     1      35.280 -20.482 -20.472  0.00  0.00    +0.040 C 
ATOM     10  C   UNL     1      32.941 -20.055 -20.565  0.00  0.00    +0.099 C 
ATOM     11  C   UNL     1      35.032 -21.460 -19.514  0.00  0.00    +0.158 C 
ATOM     12  C   UNL     1      33.718 -21.677 -19.133  0.00  0.00    +0.136 C 
BRANCH  11  13
ATOM     13  O   UNL     1      36.046 -22.178 -18.971  0.00  0.00    -0.470 OA
ATOM     14  C   UNL     1      36.517 -21.774 -17.683  0.00  0.00    +0.253 C 
ENDBRANCH  11  13
ENDBRANCH   2   8
BRANCH   1  15
ATOM     15  C   UNL     1      34.512 -14.967 -22.240  0.00  0.00    +0.114 C 
BRANCH  15  16
ATOM     16  N   UNL     1      33.733 -14.180 -23.197  0.00  0.00    -0.327 N 
ATOM     17  H   UNL     1      33.680 -14.493 -24.130  0.00  0.00    +0.147 HD
BRANCH  16  19
ATOM     18  N   UNL     1      32.654 -10.638 -23.184  0.00  0.00    -0.228 NA
ATOM     19  C   UNL     1      33.070 -13.025 -22.855  0.00  0.00    +0.077 C 
ATOM     20  C   UNL     1      33.286 -11.793 -23.491  0.00  0.00    +0.139 C 
ATOM     21  C   UNL     1      32.115 -13.018 -21.822  0.00  0.00    +0.019 C 
ATOM     22  C   UNL     1      31.445 -11.850 -21.477  0.00  0.00    +0.022 C 
ATOM     23  C   UNL     1      31.749 -10.697 -22.181  0.00  0.00    +0.100 C 
ATOM     24  N   UNL     1      34.240 -11.763 -24.539  0.00  0.00    -0.342 N 
ATOM     25  H   UNL     1      34.424 -10.921 -25.013  0.00  0.00    +0.144 HD
ATOM     26  H   UNL     1      34.719 -12.587 -24.792  0.00  0.00    +0.144 HD
ENDBRANCH  16  19
ENDBRANCH  15  16
ENDBRANCH   1  15
TORSDOF 5
ENDMDL
MODEL 2
REMARK VINA RESULT:     -10.5      1.250      1.582
REMARK  Name = 11500493
REMARK  5 active torsions:
REMARK  status: ('A' for Active; 'I' for Inactive)
REMARK    1  A    between atoms: C_1  and  C_15
REMARK    2  A    between atoms: C_2  and  C_8
REMARK    3  A    between atoms: C_11  and  O_13
REMARK    4  A    between atoms: C_15  and  N_16
REMARK    5  A    between atoms: N_16  and  C_19
REMARK                            x       y       z     vdW  Elec       q    Type
REMARK                         _______ _______ _______ _____ _____    ______ ____
ROOT
ATOM      1  C   UNL     1      34.616 -16.083 -22.937  0.00  0.00    -0.003 C 
ATOM      2  C   UNL     1      34.812 -18.405 -22.300  0.00  0.00    +0.001 C 
ATOM      3  C   UNL     1      34.750 -17.057 -21.948  0.00  0.00    -0.003 C 
ATOM      4  C   UNL     1      34.544 -16.457 -24.278  0.00  0.00    -0.003 C 
ATOM      5  C   UNL     1      34.740 -18.779 -23.642  0.00  0.00    +0.000 C 
ATOM      6  C   UNL     1      34.606 -17.805 -24.631  0.00  0.00    -0.000 C 
ENDROOT
BRANCH   2   8
ATOM      7  N   UNL     1      36.384 -20.622 -19.748  0.00  0.00    -0.239 NA
ATOM      8  C   UNL     1      34.951 -19.415 -21.274  0.00  0.00    +0.022 C 
ATOM      9  C   UNL     1      33.851 -20.135 -20.826  0.00  0.00    +0.040 C 
ATOM     10  C   UNL     1      36.185 -19.692 -20.709  0.00  0.00    +0.099 C 
ATOM     11  C   UNL     1      34.015 -21.099 -19.838  0.00  0.00    +0.158 C 
ATOM     12  C   UNL     1      35.291 -21.303 -19.336  0.00  0.00    +0.136 C 
BRANCH  11  13
ATOM     13  O   UNL     1      32.960 -21.817 -19.380  0.00  0.00    -0.470 OA
ATOM     14  C   UNL     1      33.186 -22.665 -18.251  0.00  0.00    +0.253 C 
ENDBRANCH  11  13
ENDBRANCH   2   8
BRANCH   1  15
ATOM     15  C   UNL     1      34.551 -14.641 -22.560  0.00  0.00    +0.114 C 
BRANCH  15  16
ATOM     16  N   UNL     1      33.782 -13.848 -23.522  0.00  0.00    -0.327 N 
ATOM     17  H   UNL     1      33.727 -14.164 -24.453  0.00  0.00    +0.147 HD
BRANCH  16  19
ATOM     18  N   UNL     1      32.824 -10.272 -23.445  0.00  0.00    -0.228 NA
ATOM     19  C   UNL     1      33.133 -12.684 -23.185  0.00  0.00    +0.077 C 
ATOM     20  C   UNL     1      33.440 -11.437 -23.750  0.00  0.00    +0.139 C 
ATOM     21  C   UNL     1      32.100 -12.682 -22.230  0.00  0.00    +0.019 C 
ATOM     22  C   UNL     1      31.443 -11.505 -21.890  0.00  0.00    +0.022 C 
ATOM     23  C   UNL     1      31.840 -10.337 -22.520  0.00  0.00    +0.100 C 
ATOM     24  N   UNL     1      34.475 -11.401 -24.718  0.00  0.00    -0.342 N 
ATOM     25  H   UNL     1      34.724 -10.548 -25.141  0.00  0.00    +0.144 HD
ATOM     26  H   UNL     1      34.944 -12.231 -24.967  0.00  0.00    +0.144 HD
ENDBRANCH  16  19
ENDBRANCH  15  16
ENDBRANCH   1  15
TORSDOF 5
ENDMDL
MODEL 3
REMARK VINA RESULT:     -10.4      1.500      2.143
REMARK  Name = 11500493
REMARK  5 active torsions:
REMARK  status: ('A' for Active; 'I' for Inactive)
REMARK    1  A    between atoms: C_1  and  C_15
REMARK    2  A    between atoms: C_2  and  C_8
REMARK    3  A    between atoms: C_11  and  O_13
REMARK    4  A    between atoms: C_15  and  N_16
REMARK    5  A    between atoms: N_16  and  C_19
REMARK                            x       y       z     vdW  Elec       q    Type
REMARK                         _______ _______ _______ _____ _____    ______ ____
ROOT
ATOM      1  C   UNL     1      34.632 -16.571 -22.866  0.00  0.00    -0.003 C 
ATOM      2  C   UNL     1      34.483 -18.860 -22.111  0.00  0.00    +0.001 C 
ATOM      3  C   UNL     1      34.372 -17.494 -21.854  0.00  0.00    -0.003 C 
ATOM      4  C   UNL     1      35.003 -17.014 -24.135  0.00  0.00    -0.003 C 
ATOM      5  C   UNL     1      34.853 -19.303 -23.380  0.00  0.00    +0.000 C 
ATOM      6  C   UNL     1      35.114 -18.380 -24.392  0.00  0.00    -0.000 C 
ENDROOT
BRANCH   2   8
ATOM      7  N   UNL     1      32.602 -20.900 -19.621  0.00  0.00    -0.239 NA
ATOM      8  C   UNL     1      34.213 -19.818 -21.060  0.00  0.00    +0.022 C 
ATOM      9  C   UNL     1      35.238 -20.560 -20.488  0.00  0.00    +0.040 C 
ATOM     10  C   UNL     1      32.923 -20.022 -20.598  0.00  0.00    +0.099 C 
ATOM     11  C   UNL     1      34.947 -21.474 -19.481  0.00  0.00    +0.158 C 
ATOM     12  C   UNL     1      33.625 -21.605 -19.087  0.00  0.00    +0.136 C 
BRANCH  11  13
ATOM     13  O   UNL     1      35.926 -22.213 -18.905  0.00  0.00    -0.470 OA
ATOM     14  C   UNL     1      36.671 -21.603 -17.848  0.00  0.00    +0.253 C 
ENDBRANCH  11  13
ENDBRANCH   2   8
BRANCH   1  15
ATOM     15  C   UNL     1      34.516 -15.109 -22.591  0.00  0.00    +0.114 C 
BRANCH  15  16
ATOM     16  N   UNL     1      33.338 -14.515 -23.225  0.00  0.00    -0.327 N 
ATOM     17  H   UNL     1      32.490 -14.501 -22.723  0.00  0.00    +0.147 HD
BRANCH  16  19
ATOM     18  N   UNL     1      33.723 -12.067 -25.977  0.00  0.00    -0.228 NA
ATOM     19  C   UNL     1      33.359 -13.973 -24.489  0.00  0.00    +0.077 C 
ATOM     20  C   UNL     1      33.691 -12.636 -24.750  0.00  0.00    +0.139 C 
ATOM     21  C   UNL     1      33.040 -14.753 -25.616  0.00  0.00    +0.019 C 
ATOM     22  C   UNL     1      33.062 -14.205 -26.893  0.00  0.00    +0.022 C 
ATOM     23  C   UNL     1      33.406 -12.869 -27.019  0.00  0.00    +0.100 C 
ATOM     24  N   UNL     1      34.020 -11.820 -23.638  0.00  0.00    -0.342 N 
ATOM     25  H   UNL     1      34.259 -10.875 -23.774  0.00  0.00    +0.144 HD
ATOM     26  H   UNL     1      34.009 -12.200 -22.730  0.00  0.00    +0.144 HD
ENDBRANCH  16  19
ENDBRANCH  15  16
ENDBRANCH   1  15
TORSDOF 5
ENDMDL
MODEL 4
REMARK VINA RESULT:     -10.3      3.336      9.109
REMARK  Name = 11500493
REMARK  5 active torsions:
REMARK  status: ('A' for Active; 'I' for Inactive)
REMARK    1  A    between atoms: C_1  and  C_15
REMARK    2  A    between atoms: C_2  and  C_8
REMARK    3  A    between atoms: C_11  and  O_13
REMARK    4  A    between atoms: C_15  and  N_16
REMARK    5  A    between atoms: N_16  and  C_19
REMARK                            x       y       z     vdW  Elec       q    Type
REMARK                         _______ _______ _______ _____ _____    ______ ____
ROOT
ATOM      1  C   UNL     1      34.204 -21.227 -19.621  0.00  0.00    -0.003 C 
ATOM      2  C   UNL     1      35.207 -19.621 -21.120  0.00  0.00    +0.001 C 
ATOM      3  C   UNL     1      34.073 -20.255 -20.611  0.00  0.00    -0.003 C 
ATOM      4  C   UNL     1      35.467 -21.567 -19.138  0.00  0.00    -0.003 C 
ATOM      5  C   UNL     1      36.471 -19.960 -20.637  0.00  0.00    +0.000 C 
ATOM      6  C   UNL     1      36.601 -20.933 -19.647  0.00  0.00    -0.000 C 
ENDROOT
BRANCH   2   8
ATOM      7  N   UNL     1      34.811 -18.074 -24.489  0.00  0.00    -0.239 NA
ATOM      8  C   UNL     1      35.071 -18.612 -22.148  0.00  0.00    +0.022 C 
ATOM      9  C   UNL     1      35.068 -17.261 -21.826  0.00  0.00    +0.040 C 
ATOM     10  C   UNL     1      34.942 -18.966 -23.480  0.00  0.00    +0.099 C 
ATOM     11  C   UNL     1      34.935 -16.314 -22.836  0.00  0.00    +0.158 C 
ATOM     12  C   UNL     1      34.812 -16.768 -24.139  0.00  0.00    +0.136 C 
BRANCH  11  13
ATOM     13  O   UNL     1      34.927 -14.988 -22.553  0.00  0.00    -0.470 OA
ATOM     14  C   UNL     1      34.128 -14.145 -23.388  0.00  0.00    +0.253 C 
ENDBRANCH  11  13
ENDBRANCH   2   8
BRANCH   1  15
ATOM     15  C   UNL     1      32.991 -21.906 -19.077  0.00  0.00    +0.114 C 
BRANCH  15  16
ATOM     16  N   UNL     1      33.328 -23.022 -18.191  0.00  0.00    -0.327 N 
ATOM     17  H   UNL     1      33.921 -23.731 -18.532  0.00  0.00    +0.147 HD
BRANCH  16  19
ATOM     18  N   UNL     1      33.255 -23.471 -14.516  0.00  0.00    -0.228 NA
ATOM     19  C   UNL     1      32.856 -23.127 -16.904  0.00  0.00    +0.077 C 
ATOM     20  C   UNL     1      33.681 -23.363 -15.795  0.00  0.00    +0.139 C 
ATOM     21  C   UNL     1      31.482 -23.001 -16.625  0.00  0.00    +0.019 C 
ATOM     22  C   UNL     1      31.005 -23.107 -15.323  0.00  0.00    +0.022 C 
ATOM     23  C   UNL     1      31.925 -23.341 -14.314  0.00  0.00    +0.100 C 
ATOM     24  N   UNL     1      35.072 -23.493 -16.038  0.00  0.00    -0.342 N 
ATOM     25  H   UNL     1      35.689 -23.659 -15.290  0.00  0.00    +0.144 HD
ATOM     26  H   UNL     1      35.419 -23.418 -16.957  0.00  0.00    +0.144 HD
ENDBRANCH  16  19
ENDBRANCH  15  16
ENDBRANCH   1  15
TORSDOF 5
ENDMDL
MODEL 5
REMARK VINA RESULT:     -10.3      9.952     12.505
REMARK  Name = 11500493
REMARK  5 active torsions:
REMARK  status: ('A' for Active; 'I' for Inactive)
REMARK    1  A    between atoms: C_1  and  C_15
REMARK    2  A    between atoms: C_2  and  C_8
REMARK    3  A    between atoms: C_11  and  O_13
REMARK    4  A    between atoms: C_15  and  N_16
REMARK    5  A    between atoms: N_16  and  C_19
REMARK                            x       y       z     vdW  Elec       q    Type
REMARK                         _______ _______ _______ _____ _____    ______ ____
ROOT
ATOM      1  C   UNL     1      34.500 -23.697 -14.249  0.00  0.00    -0.003 C 
ATOM      2  C   UNL     1      32.482 -23.542 -15.567  0.00  0.00    +0.001 C 
ATOM      3  C   UNL     1      33.112 -23.788 -14.347  0.00  0.00    -0.003 C 
ATOM      4  C   UNL     1      35.258 -23.359 -15.370  0.00  0.00    -0.003 C 
ATOM      5  C   UNL     1      33.240 -23.203 -16.688  0.00  0.00    +0.000 C 
ATOM      6  C   UNL     1      34.628 -23.112 -16.589  0.00  0.00    -0.000 C 
ENDROOT
BRANCH   2   8
ATOM      7  N   UNL     1      29.007 -24.811 -15.107  0.00  0.00    -0.239 NA
ATOM      8  C   UNL     1      31.042 -23.636 -15.669  0.00  0.00    +0.022 C 
ATOM      9  C   UNL     1      30.313 -22.697 -16.388  0.00  0.00    +0.040 C 
ATOM     10  C   UNL     1      30.350 -24.665 -15.052  0.00  0.00    +0.099 C 
ATOM     11  C   UNL     1      28.930 -22.813 -16.467  0.00  0.00    +0.158 C 
ATOM     12  C   UNL     1      28.330 -23.879 -15.815  0.00  0.00    +0.136 C 
BRANCH  11  13
ATOM     13  O   UNL     1      28.192 -21.911 -17.160  0.00  0.00    -0.470 OA
ATOM     14  C   UNL     1      26.777 -21.925 -16.952  0.00  0.00    +0.253 C 
ENDBRANCH  11  13
ENDBRANCH   2   8
BRANCH   1  15
ATOM     15  C   UNL     1      35.175 -23.962 -12.945  0.00  0.00    +0.114 C 
BRANCH  15  16
ATOM     16  N   UNL     1      35.798 -25.286 -12.899  0.00  0.00    -0.327 N 
ATOM     17  H   UNL     1      35.298 -26.027 -12.485  0.00  0.00    +0.147 HD
BRANCH  16  19
ATOM     18  N   UNL     1      38.493 -26.698 -15.010  0.00  0.00    -0.228 NA
ATOM     19  C   UNL     1      37.048 -25.545 -13.409  0.00  0.00    +0.077 C 
ATOM     20  C   UNL     1      37.280 -26.419 -14.481  0.00  0.00    +0.139 C 
ATOM     21  C   UNL     1      38.192 -24.930 -12.866  0.00  0.00    +0.019 C 
ATOM     22  C   UNL     1      39.456 -25.192 -13.382  0.00  0.00    +0.022 C 
ATOM     23  C   UNL     1      39.552 -26.076 -14.444  0.00  0.00    +0.100 C 
ATOM     24  N   UNL     1      36.150 -27.055 -15.054  0.00  0.00    -0.342 N 
ATOM     25  H   UNL     1      36.265 -27.677 -15.809  0.00  0.00    +0.144 HD
ATOM     26  H   UNL     1      35.250 -26.874 -14.697  0.00  0.00    +0.144 HD
ENDBRANCH  16  19
ENDBRANCH  15  16
ENDBRANCH   1  15
TORSDOF 5
ENDMDL
MODEL 6
REMARK VINA RESULT:     -10.2      3.071      8.249
REMARK  Name = 11500493
REMARK  5 active torsions:
REMARK  status: ('A' for Active; 'I' for Inactive)
REMARK    1  A    between atoms: C_1  and  C_15
REMARK    2  A    between atoms: C_2  and  C_8
REMARK    3  A    between atoms: C_11  and  O_13
REMARK    4  A    between atoms: C_15  and  N_16
REMARK    5  A    between atoms: N_16  and  C_19
REMARK                            x       y       z     vdW  Elec       q    Type
REMARK                         _______ _______ _______ _____ _____    ______ ____
ROOT
ATOM      1  C   UNL     1      35.149 -17.719 -23.017  0.00  0.00    -0.003 C 
ATOM      2  C   UNL     1      34.025 -15.674 -23.640  0.00  0.00    +0.001 C 
ATOM      3  C   UNL     1      34.606 -16.484 -22.665  0.00  0.00    -0.003 C 
ATOM      4  C   UNL     1      35.111 -18.145 -24.344  0.00  0.00    -0.003 C 
ATOM      5  C   UNL     1      33.988 -16.100 -24.968  0.00  0.00    +0.000 C 
ATOM      6  C   UNL     1      34.530 -17.335 -25.320  0.00  0.00    -0.000 C 
ENDROOT
BRANCH   2   8
ATOM      7  N   UNL     1      32.050 -13.106 -21.797  0.00  0.00    -0.239 NA
ATOM      8  C   UNL     1      33.463 -14.392 -23.275  0.00  0.00    +0.022 C 
ATOM      9  C   UNL     1      33.763 -13.247 -24.002  0.00  0.00    +0.040 C 
ATOM     10  C   UNL     1      32.609 -14.272 -22.192  0.00  0.00    +0.099 C 
ATOM     11  C   UNL     1      33.208 -12.029 -23.626  0.00  0.00    +0.158 C 
ATOM     12  C   UNL     1      32.364 -12.012 -22.526  0.00  0.00    +0.136 C 
BRANCH  11  13
ATOM     13  O   UNL     1      33.484 -10.894 -24.315  0.00  0.00    -0.470 OA
ATOM     14  C   UNL     1      34.607 -10.921 -25.199  0.00  0.00    +0.253 C 
ENDBRANCH  11  13
ENDBRANCH   2   8
BRANCH   1  15
ATOM     15  C   UNL     1      35.769 -18.587 -21.973  0.00  0.00    +0.114 C 
BRANCH  15  16
ATOM     16  N   UNL     1      34.877 -18.813 -20.835  0.00  0.00    -0.327 N 
ATOM     17  H   UNL     1      34.434 -18.035 -20.422  0.00  0.00    +0.147 HD
BRANCH  16  19
ATOM     18  N   UNL     1      33.051 -21.820 -19.679  0.00  0.00    -0.228 NA
ATOM     19  C   UNL     1      34.626 -20.061 -20.315  0.00  0.00    +0.077 C 
ATOM     20  C   UNL     1      33.337 -20.599 -20.184  0.00  0.00    +0.139 C 
ATOM     21  C   UNL     1      35.678 -20.885 -19.873  0.00  0.00    +0.019 C 
ATOM     22  C   UNL     1      35.424 -22.147 -19.348  0.00  0.00    +0.022 C 
ATOM     23  C   UNL     1      34.105 -22.564 -19.272  0.00  0.00    +0.100 C 
ATOM     24  N   UNL     1      32.253 -19.797 -20.620  0.00  0.00    -0.342 N 
ATOM     25  H   UNL     1      31.331 -20.134 -20.548  0.00  0.00    +0.144 HD
ATOM     26  H   UNL     1      32.423 -18.902 -20.996  0.00  0.00    +0.144 HD
ENDBRANCH  16  19
ENDBRANCH  15  16
ENDBRANCH   1  15
TORSDOF 5
ENDMDL
MODEL 7
REMARK VINA RESULT:     -10.2      5.280      8.682
REMARK  Name = 11500493
REMARK  5 active torsions:
REMARK  status: ('A' for Active; 'I' for Inactive)
REMARK    1  A    between atoms: C_1  and  C_15
REMARK    2  A    between atoms: C_2  and  C_8
REMARK    3  A    between atoms: C_11  and  O_13
REMARK    4  A    between atoms: C_15  and  N_16
REMARK    5  A    between atoms: N_16  and  C_19
REMARK                            x       y       z     vdW  Elec       q    Type
REMARK                         _______ _______ _______ _____ _____    ______ ____
ROOT
ATOM      1  C   UNL     1      36.377 -22.379 -16.723  0.00  0.00    -0.003 C 
ATOM      2  C   UNL     1      34.835 -23.400 -15.169  0.00  0.00    +0.001 C 
ATOM      3  C   UNL     1      35.079 -22.757 -16.383  0.00  0.00    -0.003 C 
ATOM      4  C   UNL     1      37.432 -22.642 -15.850  0.00  0.00    -0.003 C 
ATOM      5  C   UNL     1      35.891 -23.664 -14.296  0.00  0.00    +0.000 C 
ATOM      6  C   UNL     1      37.189 -23.286 -14.636  0.00  0.00    -0.000 C 
ENDROOT
BRANCH   2   8
ATOM      7  N   UNL     1      32.003 -24.903 -13.267  0.00  0.00    -0.239 NA
ATOM      8  C   UNL     1      33.488 -23.793 -14.816  0.00  0.00    +0.022 C 
ATOM      9  C   UNL     1      32.412 -23.468 -15.631  0.00  0.00    +0.040 C 
ATOM     10  C   UNL     1      33.236 -24.505 -13.655  0.00  0.00    +0.099 C 
ATOM     11  C   UNL     1      31.129 -23.859 -15.265  0.00  0.00    +0.158 C 
ATOM     12  C   UNL     1      30.979 -24.569 -14.084  0.00  0.00    +0.136 C 
BRANCH  11  13
ATOM     13  O   UNL     1      30.058 -23.554 -16.039  0.00  0.00    -0.470 OA
ATOM     14  C   UNL     1      28.843 -24.264 -15.784  0.00  0.00    +0.253 C 
ENDBRANCH  11  13
ENDBRANCH   2   8
BRANCH   1  15
ATOM     15  C   UNL     1      36.637 -21.689 -18.020  0.00  0.00    +0.114 C 
BRANCH  15  16
ATOM     16  N   UNL     1      35.682 -22.078 -19.060  0.00  0.00    -0.327 N 
ATOM     17  H   UNL     1      35.593 -23.034 -19.282  0.00  0.00    +0.147 HD
BRANCH  16  19
ATOM     18  N   UNL     1      32.701 -20.322 -20.379  0.00  0.00    -0.228 NA
ATOM     19  C   UNL     1      34.903 -21.172 -19.739  0.00  0.00    +0.077 C 
ATOM     20  C   UNL     1      33.501 -21.194 -19.725  0.00  0.00    +0.139 C 
ATOM     21  C   UNL     1      35.488 -20.147 -20.507  0.00  0.00    +0.019 C 
ATOM     22  C   UNL     1      34.699 -19.231 -21.194  0.00  0.00    +0.022 C 
ATOM     23  C   UNL     1      33.323 -19.361 -21.098  0.00  0.00    +0.100 C 
ATOM     24  N   UNL     1      32.877 -22.212 -18.960  0.00  0.00    -0.342 N 
ATOM     25  H   UNL     1      31.895 -22.267 -18.920  0.00  0.00    +0.144 HD
ATOM     26  H   UNL     1      33.427 -22.865 -18.468  0.00  0.00    +0.144 HD
ENDBRANCH  16  19
ENDBRANCH  15  16
ENDBRANCH   1  15
TORSDOF 5
ENDMDL
MODEL 8
REMARK VINA RESULT:     -10.2      3.385      9.470
REMARK  Name = 11500493
REMARK  5 active torsions:
REMARK  status: ('A' for Active; 'I' for Inactive)
REMARK    1  A    between atoms: C_1  and  C_15
REMARK    2  A    between atoms: C_2  and  C_8
REMARK    3  A    between atoms: C_11  and  O_13
REMARK    4  A    between atoms: C_15  and  N_16
REMARK    5  A    between atoms: N_16  and  C_19
REMARK                            x       y       z     vdW  Elec       q    Type
REMARK                         _______ _______ _______ _____ _____    ______ ____
ROOT
ATOM      1  C   UNL     1      35.269 -21.269 -19.395  0.00  0.00    -0.003 C 
ATOM      2  C   UNL     1      34.387 -19.729 -21.032  0.00  0.00    +0.001 C 
ATOM      3  C   UNL     1      35.475 -20.286 -20.362  0.00  0.00    -0.003 C 
ATOM      4  C   UNL     1      33.975 -21.695 -19.097  0.00  0.00    -0.003 C 
ATOM      5  C   UNL     1      33.092 -20.155 -20.735  0.00  0.00    +0.000 C 
ATOM      6  C   UNL     1      32.886 -21.138 -19.768  0.00  0.00    -0.000 C 
ENDROOT
BRANCH   2   8
ATOM      7  N   UNL     1      34.963 -18.144 -24.357  0.00  0.00    -0.239 NA
ATOM      8  C   UNL     1      34.600 -18.709 -22.036  0.00  0.00    +0.022 C 
ATOM      9  C   UNL     1      34.649 -17.365 -21.691  0.00  0.00    +0.040 C 
ATOM     10  C   UNL     1      34.761 -19.046 -23.370  0.00  0.00    +0.099 C 
ATOM     11  C   UNL     1      34.854 -16.408 -22.678  0.00  0.00    +0.158 C 
ATOM     12  C   UNL     1      35.005 -16.845 -23.984  0.00  0.00    +0.136 C 
BRANCH  11  13
ATOM     13  O   UNL     1      34.905 -15.088 -22.372  0.00  0.00    -0.470 OA
ATOM     14  C   UNL     1      34.204 -14.188 -23.233  0.00  0.00    +0.253 C 
ENDBRANCH  11  13
ENDBRANCH   2   8
BRANCH   1  15
ATOM     15  C   UNL     1      36.434 -21.864 -18.676  0.00  0.00    +0.114 C 
BRANCH  15  16
ATOM     16  N   UNL     1      36.351 -21.674 -17.227  0.00  0.00    -0.327 N 
ATOM     17  H   UNL     1      36.532 -20.778 -16.860  0.00  0.00    +0.147 HD
BRANCH  16  19
ATOM     18  N   UNL     1      36.709 -24.495 -14.855  0.00  0.00    -0.228 NA
ATOM     19  C   UNL     1      36.029 -22.686 -16.355  0.00  0.00    +0.077 C 
ATOM     20  C   UNL     1      36.986 -23.491 -15.718  0.00  0.00    +0.139 C 
ATOM     21  C   UNL     1      34.687 -22.977 -16.047  0.00  0.00    +0.019 C 
ATOM     22  C   UNL     1      34.363 -24.001 -15.164  0.00  0.00    +0.022 C 
ATOM     23  C   UNL     1      35.401 -24.724 -14.601  0.00  0.00    +0.100 C 
ATOM     24  N   UNL     1      38.349 -23.225 -16.003  0.00  0.00    -0.342 N 
ATOM     25  H   UNL     1      39.055 -23.765 -15.580  0.00  0.00    +0.144 HD
ATOM     26  H   UNL     1      38.589 -22.500 -16.626  0.00  0.00    +0.144 HD
ENDBRANCH  16  19
ENDBRANCH  15  16
ENDBRANCH   1  15
TORSDOF 5
ENDMDL
MODEL 9
REMARK VINA RESULT:     -10.1      3.258      9.022
REMARK  Name = 11500493
REMARK  5 active torsions:
REMARK  status: ('A' for Active; 'I' for Inactive)
REMARK    1  A    between atoms: C_1  and  C_15
REMARK    2  A    between atoms: C_2  and  C_8
REMARK    3  A    between atoms: C_11  and  O_13
REMARK    4  A    between atoms: C_15  and  N_16
REMARK    5  A    between atoms: N_16  and  C_19
REMARK                            x       y       z     vdW  Elec       q    Type
REMARK                         _______ _______ _______ _____ _____    ______ ____
ROOT
ATOM      1  C   UNL     1      34.324 -20.944 -19.890  0.00  0.00    -0.003 C 
ATOM      2  C   UNL     1      35.186 -19.039 -21.099  0.00  0.00    +0.001 C 
ATOM      3  C   UNL     1      34.104 -19.793 -20.645  0.00  0.00    -0.003 C 
ATOM      4  C   UNL     1      35.626 -21.343 -19.589  0.00  0.00    -0.003 C 
ATOM      5  C   UNL     1      36.488 -19.437 -20.798  0.00  0.00    +0.000 C 
ATOM      6  C   UNL     1      36.709 -20.589 -20.043  0.00  0.00    -0.000 C 
ENDROOT
BRANCH   2   8
ATOM      7  N   UNL     1      34.686 -15.445 -21.951  0.00  0.00    -0.239 NA
ATOM      8  C   UNL     1      34.957 -17.844 -21.882  0.00  0.00    +0.022 C 
ATOM      9  C   UNL     1      34.794 -17.913 -23.260  0.00  0.00    +0.040 C 
ATOM     10  C   UNL     1      34.896 -16.599 -21.279  0.00  0.00    +0.099 C 
ATOM     11  C   UNL     1      34.576 -16.747 -23.986  0.00  0.00    +0.158 C 
ATOM     12  C   UNL     1      34.531 -15.549 -23.290  0.00  0.00    +0.136 C 
BRANCH  11  13
ATOM     13  O   UNL     1      34.414 -16.782 -25.331  0.00  0.00    -0.470 OA
ATOM     14  C   UNL     1      33.561 -15.793 -25.914  0.00  0.00    +0.253 C 
ENDBRANCH  11  13
ENDBRANCH   2   8
BRANCH   1  15
ATOM     15  C   UNL     1      33.167 -21.752 -19.405  0.00  0.00    +0.114 C 
BRANCH  15  16
ATOM     16  N   UNL     1      33.585 -22.877 -18.568  0.00  0.00    -0.327 N 
ATOM     17  H   UNL     1      34.190 -23.551 -18.955  0.00  0.00    +0.147 HD
BRANCH  16  19
ATOM     18  N   UNL     1      33.692 -23.303 -14.891  0.00  0.00    -0.228 NA
ATOM     19  C   UNL     1      33.173 -23.038 -17.266  0.00  0.00    +0.077 C 
ATOM     20  C   UNL     1      34.058 -23.145 -16.183  0.00  0.00    +0.139 C 
ATOM     21  C   UNL     1      31.805 -23.105 -16.943  0.00  0.00    +0.019 C 
ATOM     22  C   UNL     1      31.389 -23.266 -15.626  0.00  0.00    +0.022 C 
ATOM     23  C   UNL     1      32.364 -23.360 -14.646  0.00  0.00    +0.100 C 
ATOM     24  N   UNL     1      35.445 -23.080 -16.471  0.00  0.00    -0.342 N 
ATOM     25  H   UNL     1      36.103 -23.151 -15.742  0.00  0.00    +0.144 HD
ATOM     26  H   UNL     1      35.749 -22.964 -17.400  0.00  0.00    +0.144 HD
ENDBRANCH  16  19
ENDBRANCH  15  16
ENDBRANCH   1  15
TORSDOF 5
ENDMDL
