MODEL 1
REMARK VINA RESULT:     -10.1      0.000      0.000
REMARK  Name = 4514
REMARK  8 active torsions:
REMARK  status: ('A' for Active; 'I' for Inactive)
REMARK    1  A    between atoms: C_1  and  N_7
REMARK    2  A    between atoms: C_2  and  C_23
REMARK    3  A    between atoms: C_5  and  N_21
REMARK    4  A    between atoms: C_9  and  C_12
REMARK    5  A    between atoms: C_12  and  N_13
REMARK    6  A    between atoms: N_13  and  C_15
REMARK    7  A    between atoms: N_13  and  C_17
REMARK    8  A    between atoms: C_23  and  C_25
REMARK                            x       y       z     vdW  Elec       q    Type
REMARK                         _______ _______ _______ _____ _____    ______ ____
ROOT
ATOM      1  C   UNL     1      33.886 -22.961 -16.082  0.00  0.00    +0.060 C 
ATOM      2  C   UNL     1      33.210 -22.904 -17.297  0.00  0.00    +0.055 C 
ATOM      3  C   UNL     1      33.182 -23.038 -14.885  0.00  0.00    +0.017 C 
ATOM      4  C   UNL     1      31.815 -22.924 -17.314  0.00  0.00    +0.029 C 
ATOM      5  C   UNL     1      31.104 -23.000 -16.117  0.00  0.00    +0.143 C 
ATOM      6  C   UNL     1      31.787 -23.057 -14.902  0.00  0.00    +0.025 C 
ENDROOT
BRANCH   1   7
ATOM      7  N   UNL     1      35.278 -22.945 -16.040  0.00  0.00    -0.253 N 
ATOM      8  N   UNL     1      37.370 -23.626 -15.738  0.00  0.00    -0.234 NA
ATOM      9  C   UNL     1      36.112 -23.945 -15.672  0.00  0.00    +0.095 C 
ATOM     10  C   UNL     1      36.069 -21.882 -16.372  0.00  0.00    +0.091 C 
ATOM     11  C   UNL     1      37.355 -22.326 -16.178  0.00  0.00    +0.116 C 
BRANCH   9  12
ATOM     12  C   UNL     1      35.591 -25.288 -15.238  0.00  0.00    -0.014 C 
BRANCH  12  13
ATOM     13  N   UNL     1      35.974 -25.579 -13.857  0.00  0.00    +0.392 N 
ATOM     14  H   UNL     1      35.206 -26.076 -13.406  0.00  0.00    -0.079 HD
BRANCH  13  15
ATOM     15  C   UNL     1      37.160 -26.433 -13.825  0.00  0.00    -0.077 C 
ATOM     16  C   UNL     1      38.294 -25.769 -13.062  0.00  0.00    -0.025 C 
ENDBRANCH  13  15
BRANCH  13  17
ATOM     17  C   UNL     1      36.217 -24.339 -13.122  0.00  0.00    -0.077 C 
ATOM     18  C   UNL     1      35.229 -24.173 -11.979  0.00  0.00    -0.025 C 
ENDBRANCH  13  17
ENDBRANCH  12  13
ENDBRANCH   9  12
ENDBRANCH   1   7
BRANCH   5  21
ATOM     19  O   UNL     1      29.075 -23.727 -15.294  0.00  0.00    -0.126 OA
ATOM     20  O   UNL     1      29.077 -22.330 -16.988  0.00  0.00    -0.126 OA
ATOM     21  N   UNL     1      29.684 -23.020 -16.134  0.00  0.00    +0.058 N 
ENDBRANCH   5  21
BRANCH   2  23
ATOM     22  O   UNL     1      34.542 -23.808 -18.995  0.00  0.00    -0.286 OA
ATOM     23  C   UNL     1      33.920 -22.826 -18.569  0.00  0.00    +0.198 C 
BRANCH  23  25
ATOM     24 CL   UNL     1      36.649 -21.792 -19.546  0.00  0.00    -0.082 Cl
ATOM     25  C   UNL     1      33.931 -21.587 -19.400  0.00  0.00    +0.050 C 
ATOM     26  C   UNL     1      35.116 -21.067 -19.873  0.00  0.00    +0.061 C 
ATOM     27  C   UNL     1      32.710 -21.003 -19.663  0.00  0.00    +0.004 C 
ATOM     28  C   UNL     1      35.079 -19.908 -20.648  0.00  0.00    +0.011 C 
ATOM     29  C   UNL     1      32.673 -19.844 -20.438  0.00  0.00    +0.000 C 
ATOM     30  C   UNL     1      33.858 -19.296 -20.931  0.00  0.00    +0.001 C 
ENDBRANCH  23  25
ENDBRANCH   2  23
TORSDOF 8
ENDMDL
MODEL 2
REMARK VINA RESULT:      -8.6      3.283      5.260
REMARK  Name = 4514
REMARK  8 active torsions:
REMARK  status: ('A' for Active; 'I' for Inactive)
REMARK    1  A    between atoms: C_1  and  N_7
REMARK    2  A    between atoms: C_2  and  C_23
REMARK    3  A    between atoms: C_5  and  N_21
REMARK    4  A    between atoms: C_9  and  C_12
REMARK    5  A    between atoms: C_12  and  N_13
REMARK    6  A    between atoms: N_13  and  C_15
REMARK    7  A    between atoms: N_13  and  C_17
REMARK    8  A    between atoms: C_23  and  C_25
REMARK                            x       y       z     vdW  Elec       q    Type
REMARK                         _______ _______ _______ _____ _____    ______ ____
ROOT
ATOM      1  C   UNL     1      36.288 -23.162 -14.457  0.00  0.00    +0.060 C 
ATOM      2  C   UNL     1      35.233 -23.438 -15.320  0.00  0.00    +0.055 C 
ATOM      3  C   UNL     1      37.354 -22.372 -14.874  0.00  0.00    +0.017 C 
ATOM      4  C   UNL     1      35.243 -22.918 -16.615  0.00  0.00    +0.029 C 
ATOM      5  C   UNL     1      36.310 -22.126 -17.039  0.00  0.00    +0.143 C 
ATOM      6  C   UNL     1      37.365 -21.852 -16.169  0.00  0.00    +0.025 C 
ENDROOT
BRANCH   1   7
ATOM      7  N   UNL     1      36.299 -23.668 -13.160  0.00  0.00    -0.253 N 
ATOM      8  N   UNL     1      36.993 -24.711 -11.326  0.00  0.00    -0.234 NA
ATOM      9  C   UNL     1      37.276 -24.378 -12.550  0.00  0.00    +0.095 C 
ATOM     10  C   UNL     1      35.291 -23.531 -12.247  0.00  0.00    +0.091 C 
ATOM     11  C   UNL     1      35.742 -24.184 -11.124  0.00  0.00    +0.116 C 
BRANCH   9  12
ATOM     12  C   UNL     1      38.558 -24.725 -13.256  0.00  0.00    -0.014 C 
BRANCH  12  13
ATOM     13  N   UNL     1      38.645 -26.161 -13.513  0.00  0.00    +0.392 N 
ATOM     14  H   UNL     1      38.982 -26.621 -12.667  0.00  0.00    -0.079 HD
BRANCH  13  15
ATOM     15  C   UNL     1      37.326 -26.702 -13.840  0.00  0.00    -0.077 C 
ATOM     16  C   UNL     1      37.138 -26.819 -15.343  0.00  0.00    -0.025 C 
ENDBRANCH  13  15
BRANCH  13  17
ATOM     17  C   UNL     1      39.590 -26.432 -14.595  0.00  0.00    -0.077 C 
ATOM     18  C   UNL     1      40.395 -25.191 -14.945  0.00  0.00    -0.025 C 
ENDBRANCH  13  17
ENDBRANCH  12  13
ENDBRANCH   9  12
ENDBRANCH   1   7
BRANCH   5  21
ATOM     19  O   UNL     1      36.943 -20.529 -18.578  0.00  0.00    -0.126 OA
ATOM     20  O   UNL     1      35.710 -22.210 -19.264  0.00  0.00    -0.126 OA
ATOM     21  N   UNL     1      36.321 -21.596 -18.356  0.00  0.00    +0.058 N 
ENDBRANCH   5  21
BRANCH   2  23
ATOM     22  O   UNL     1      34.280 -25.436 -14.562  0.00  0.00    -0.286 OA
ATOM     23  C   UNL     1      34.100 -24.261 -14.911  0.00  0.00    +0.198 C 
BRANCH  23  25
ATOM     24 CL   UNL     1      32.827 -23.514 -17.613  0.00  0.00    -0.082 Cl
ATOM     25  C   UNL     1      32.701 -23.741 -14.895  0.00  0.00    +0.050 C 
ATOM     26  C   UNL     1      32.068 -23.388 -16.066  0.00  0.00    +0.061 C 
ATOM     27  C   UNL     1      32.091 -23.638 -13.663  0.00  0.00    +0.004 C 
ATOM     28  C   UNL     1      30.759 -22.909 -16.003  0.00  0.00    +0.011 C 
ATOM     29  C   UNL     1      30.782 -23.159 -13.601  0.00  0.00    +0.000 C 
ATOM     30  C   UNL     1      30.117 -22.794 -14.771  0.00  0.00    +0.001 C 
ENDBRANCH  23  25
ENDBRANCH   2  23
TORSDOF 8
ENDMDL
MODEL 3
REMARK VINA RESULT:      -8.5     12.425     16.615
REMARK  Name = 4514
REMARK  8 active torsions:
REMARK  status: ('A' for Active; 'I' for Inactive)
REMARK    1  A    between atoms: C_1  and  N_7
REMARK    2  A    between atoms: C_2  and  C_23
REMARK    3  A    between atoms: C_5  and  N_21
REMARK    4  A    between atoms: C_9  and  C_12
REMARK    5  A    between atoms: C_12  and  N_13
REMARK    6  A    between atoms: N_13  and  C_15
REMARK    7  A    between atoms: N_13  and  C_17
REMARK    8  A    between atoms: C_23  and  C_25
REMARK                            x       y       z     vdW  Elec       q    Type
REMARK                         _______ _______ _______ _____ _____    ______ ____
ROOT
ATOM      1  C   UNL     1      33.318  -8.726 -22.890  0.00  0.00    +0.060 C 
ATOM      2  C   UNL     1      32.936 -10.021 -23.221  0.00  0.00    +0.055 C 
ATOM      3  C   UNL     1      34.324  -8.082 -23.603  0.00  0.00    +0.017 C 
ATOM      4  C   UNL     1      33.568 -10.681 -24.277  0.00  0.00    +0.029 C 
ATOM      5  C   UNL     1      34.578 -10.040 -24.994  0.00  0.00    +0.143 C 
ATOM      6  C   UNL     1      34.957  -8.741 -24.657  0.00  0.00    +0.025 C 
ENDROOT
BRANCH   1   7
ATOM      7  N   UNL     1      32.700  -8.046 -21.843  0.00  0.00    -0.253 N 
ATOM      8  N   UNL     1      31.365  -6.641 -20.759  0.00  0.00    -0.234 NA
ATOM      9  C   UNL     1      31.748  -7.088 -21.918  0.00  0.00    +0.095 C 
ATOM     10  C   UNL     1      32.956  -8.236 -20.514  0.00  0.00    +0.091 C 
ATOM     11  C   UNL     1      32.121  -7.357 -19.866  0.00  0.00    +0.116 C 
BRANCH   9  12
ATOM     12  C   UNL     1      31.208  -6.613 -23.240  0.00  0.00    -0.014 C 
BRANCH  12  13
ATOM     13  N   UNL     1      31.805  -5.335 -23.623  0.00  0.00    +0.392 N 
ATOM     14  H   UNL     1      32.782  -5.334 -23.332  0.00  0.00    -0.079 HD
BRANCH  13  15
ATOM     15  C   UNL     1      31.755  -5.163 -25.075  0.00  0.00    -0.077 C 
ATOM     16  C   UNL     1      33.117  -5.407 -25.704  0.00  0.00    -0.025 C 
ENDBRANCH  13  15
BRANCH  13  17
ATOM     17  C   UNL     1      31.121  -4.229 -22.955  0.00  0.00    -0.077 C 
ATOM     18  C   UNL     1      31.502  -2.894 -23.571  0.00  0.00    -0.025 C 
ENDBRANCH  13  17
ENDBRANCH  12  13
ENDBRANCH   9  12
ENDBRANCH   1   7
BRANCH   5  21
ATOM     19  O   UNL     1      36.346 -10.305 -26.451  0.00  0.00    -0.126 OA
ATOM     20  O   UNL     1      34.650 -11.691 -26.602  0.00  0.00    -0.126 OA
ATOM     21  N   UNL     1      35.222 -10.711 -26.067  0.00  0.00    +0.058 N 
ENDBRANCH   5  21
BRANCH   2  23
ATOM     22  O   UNL     1      30.773 -10.193 -22.347  0.00  0.00    -0.286 OA
ATOM     23  C   UNL     1      31.883 -10.722 -22.495  0.00  0.00    +0.198 C 
BRANCH  23  25
ATOM     24 CL   UNL     1      31.632 -11.004 -19.440  0.00  0.00    -0.082 Cl
ATOM     25  C   UNL     1      32.087 -12.079 -21.909  0.00  0.00    +0.050 C 
ATOM     26  C   UNL     1      31.989 -12.280 -20.549  0.00  0.00    +0.061 C 
ATOM     27  C   UNL     1      32.372 -13.101 -22.789  0.00  0.00    +0.004 C 
ATOM     28  C   UNL     1      32.184 -13.566 -20.045  0.00  0.00    +0.011 C 
ATOM     29  C   UNL     1      32.568 -14.386 -22.284  0.00  0.00    +0.000 C 
ATOM     30  C   UNL     1      32.475 -14.619 -20.912  0.00  0.00    +0.001 C 
ENDBRANCH  23  25
ENDBRANCH   2  23
TORSDOF 8
ENDMDL
MODEL 4
REMARK VINA RESULT:      -8.3     12.954     17.102
REMARK  Name = 4514
REMARK  8 active torsions:
REMARK  status: ('A' for Active; 'I' for Inactive)
REMARK    1  A    between atoms: C_1  and  N_7
REMARK    2  A    between atoms: C_2  and  C_23
REMARK    3  A    between atoms: C_5  and  N_21
REMARK    4  A    between atoms: C_9  and  C_12
REMARK    5  A    between atoms: C_12  and  N_13
REMARK    6  A    between atoms: N_13  and  C_15
REMARK    7  A    between atoms: N_13  and  C_17
REMARK    8  A    between atoms: C_23  and  C_25
REMARK                            x       y       z     vdW  Elec       q    Type
REMARK                         _______ _______ _______ _____ _____    ______ ____
ROOT
ATOM      1  C   UNL     1      33.368  -8.225 -22.926  0.00  0.00    +0.060 C 
ATOM      2  C   UNL     1      32.793  -9.455 -23.226  0.00  0.00    +0.055 C 
ATOM      3  C   UNL     1      34.518  -7.803 -23.586  0.00  0.00    +0.017 C 
ATOM      4  C   UNL     1      33.374 -10.274 -24.195  0.00  0.00    +0.029 C 
ATOM      5  C   UNL     1      34.527  -9.857 -24.859  0.00  0.00    +0.143 C 
ATOM      6  C   UNL     1      35.099  -8.622 -24.555  0.00  0.00    +0.025 C 
ENDROOT
BRANCH   1   7
ATOM      7  N   UNL     1      32.805  -7.390 -21.964  0.00  0.00    -0.253 N 
ATOM      8  N   UNL     1      31.540  -5.813 -21.044  0.00  0.00    -0.234 NA
ATOM      9  C   UNL     1      31.869  -6.428 -22.141  0.00  0.00    +0.095 C 
ATOM     10  C   UNL     1      33.110  -7.396 -20.633  0.00  0.00    +0.091 C 
ATOM     11  C   UNL     1      32.317  -6.415 -20.086  0.00  0.00    +0.116 C 
BRANCH   9  12
ATOM     12  C   UNL     1      31.287  -6.132 -23.496  0.00  0.00    -0.014 C 
BRANCH  12  13
ATOM     13  N   UNL     1      32.007  -5.041 -24.150  0.00  0.00    +0.392 N 
ATOM     14  H   UNL     1      32.767  -4.743 -23.540  0.00  0.00    -0.079 HD
BRANCH  13  15
ATOM     15  C   UNL     1      32.581  -5.495 -25.416  0.00  0.00    -0.077 C 
ATOM     16  C   UNL     1      32.852  -4.325 -26.348  0.00  0.00    -0.025 C 
ENDBRANCH  13  15
BRANCH  13  17
ATOM     17  C   UNL     1      31.117  -3.902 -24.373  0.00  0.00    -0.077 C 
ATOM     18  C   UNL     1      31.240  -2.881 -23.254  0.00  0.00    -0.025 C 
ENDBRANCH  13  17
ENDBRANCH  12  13
ENDBRANCH   9  12
ENDBRANCH   1   7
BRANCH   5  21
ATOM     19  O   UNL     1      34.530 -11.745 -26.183  0.00  0.00    -0.126 OA
ATOM     20  O   UNL     1      36.214 -10.347 -26.353  0.00  0.00    -0.126 OA
ATOM     21  N   UNL     1      35.119 -10.689 -25.845  0.00  0.00    +0.058 N 
ENDBRANCH   5  21
BRANCH   2  23
ATOM     22  O   UNL     1      30.471  -9.636 -23.006  0.00  0.00    -0.286 OA
ATOM     23  C   UNL     1      31.587  -9.924 -22.553  0.00  0.00    +0.198 C 
BRANCH  23  25
ATOM     24 CL   UNL     1      32.148 -12.933 -22.876  0.00  0.00    -0.082 Cl
ATOM     25  C   UNL     1      31.636 -10.754 -21.314  0.00  0.00    +0.050 C 
ATOM     26  C   UNL     1      31.883 -12.107 -21.382  0.00  0.00    +0.061 C 
ATOM     27  C   UNL     1      31.425 -10.099 -20.119  0.00  0.00    +0.004 C 
ATOM     28  C   UNL     1      31.923 -12.843 -20.198  0.00  0.00    +0.011 C 
ATOM     29  C   UNL     1      31.464 -10.836 -18.934  0.00  0.00    +0.000 C 
ATOM     30  C   UNL     1      31.712 -12.208 -18.974  0.00  0.00    +0.001 C 
ENDBRANCH  23  25
ENDBRANCH   2  23
TORSDOF 8
ENDMDL
MODEL 5
REMARK VINA RESULT:      -8.2      2.146      6.155
REMARK  Name = 4514
REMARK  8 active torsions:
REMARK  status: ('A' for Active; 'I' for Inactive)
REMARK    1  A    between atoms: C_1  and  N_7
REMARK    2  A    between atoms: C_2  and  C_23
REMARK    3  A    between atoms: C_5  and  N_21
REMARK    4  A    between atoms: C_9  and  C_12
REMARK    5  A    between atoms: C_12  and  N_13
REMARK    6  A    between atoms: N_13  and  C_15
REMARK    7  A    between atoms: N_13  and  C_17
REMARK    8  A    between atoms: C_23  and  C_25
REMARK                            x       y       z     vdW  Elec       q    Type
REMARK                         _______ _______ _______ _____ _____    ______ ____
ROOT
ATOM      1  C   UNL     1      34.284 -23.204 -15.767  0.00  0.00    +0.060 C 
ATOM      2  C   UNL     1      34.364 -24.362 -15.002  0.00  0.00    +0.055 C 
ATOM      3  C   UNL     1      33.057 -22.590 -15.995  0.00  0.00    +0.017 C 
ATOM      4  C   UNL     1      33.203 -24.914 -14.459  0.00  0.00    +0.029 C 
ATOM      5  C   UNL     1      31.969 -24.303 -14.684  0.00  0.00    +0.143 C 
ATOM      6  C   UNL     1      31.896 -23.141 -15.452  0.00  0.00    +0.025 C 
ENDROOT
BRANCH   1   7
ATOM      7  N   UNL     1      35.430 -22.633 -16.318  0.00  0.00    -0.253 N 
ATOM      8  N   UNL     1      36.823 -21.765 -17.814  0.00  0.00    -0.234 NA
ATOM      9  C   UNL     1      35.646 -22.276 -17.605  0.00  0.00    +0.095 C 
ATOM     10  C   UNL     1      36.571 -22.326 -15.633  0.00  0.00    +0.091 C 
ATOM     11  C   UNL     1      37.415 -21.792 -16.576  0.00  0.00    +0.116 C 
BRANCH   9  12
ATOM     12  C   UNL     1      34.595 -22.467 -18.665  0.00  0.00    -0.014 C 
BRANCH  12  13
ATOM     13  N   UNL     1      34.371 -21.230 -19.411  0.00  0.00    +0.392 N 
ATOM     14  H   UNL     1      34.599 -20.441 -18.806  0.00  0.00    -0.079 HD
BRANCH  13  15
ATOM     15  C   UNL     1      35.239 -21.178 -20.587  0.00  0.00    -0.077 C 
ATOM     16  C   UNL     1      36.130 -19.948 -20.557  0.00  0.00    -0.025 C 
ENDBRANCH  13  15
BRANCH  13  17
ATOM     17  C   UNL     1      32.968 -21.119 -19.807  0.00  0.00    -0.077 C 
ATOM     18  C   UNL     1      32.722 -19.855 -20.614  0.00  0.00    -0.025 C 
ENDBRANCH  13  17
ENDBRANCH  12  13
ENDBRANCH   9  12
ENDBRANCH   1   7
BRANCH   5  21
ATOM     19  O   UNL     1      30.063 -25.590 -14.855  0.00  0.00    -0.126 OA
ATOM     20  O   UNL     1      30.499 -24.618 -12.936  0.00  0.00    -0.126 OA
ATOM     21  N   UNL     1      30.788 -24.864 -14.132  0.00  0.00    +0.058 N 
ENDBRANCH   5  21
BRANCH   2  23
ATOM     22  O   UNL     1      36.021 -25.941 -15.487  0.00  0.00    -0.286 OA
ATOM     23  C   UNL     1      35.635 -25.028 -14.744  0.00  0.00    +0.198 C 
BRANCH  23  25
ATOM     24 CL   UNL     1      38.596 -25.859 -14.886  0.00  0.00    -0.082 Cl
ATOM     25  C   UNL     1      36.514 -24.652 -13.598  0.00  0.00    +0.050 C 
ATOM     26  C   UNL     1      37.849 -24.990 -13.593  0.00  0.00    +0.061 C 
ATOM     27  C   UNL     1      35.923 -23.958 -12.563  0.00  0.00    +0.004 C 
ATOM     28  C   UNL     1      38.633 -24.615 -12.503  0.00  0.00    +0.011 C 
ATOM     29  C   UNL     1      36.708 -23.584 -11.472  0.00  0.00    +0.000 C 
ATOM     30  C   UNL     1      38.063 -23.913 -11.441  0.00  0.00    +0.001 C 
ENDBRANCH  23  25
ENDBRANCH   2  23
TORSDOF 8
ENDMDL
MODEL 6
REMARK VINA RESULT:      -7.8      2.453      6.110
REMARK  Name = 4514
REMARK  8 active torsions:
REMARK  status: ('A' for Active; 'I' for Inactive)
REMARK    1  A    between atoms: C_1  and  N_7
REMARK    2  A    between atoms: C_2  and  C_23
REMARK    3  A    between atoms: C_5  and  N_21
REMARK    4  A    between atoms: C_9  and  C_12
REMARK    5  A    between atoms: C_12  and  N_13
REMARK    6  A    between atoms: N_13  and  C_15
REMARK    7  A    between atoms: N_13  and  C_17
REMARK    8  A    between atoms: C_23  and  C_25
REMARK                            x       y       z     vdW  Elec       q    Type
REMARK                         _______ _______ _______ _____ _____    ______ ____
ROOT
ATOM      1  C   UNL     1      34.273 -23.166 -15.480  0.00  0.00    +0.060 C 
ATOM      2  C   UNL     1      34.262 -23.846 -14.266  0.00  0.00    +0.055 C 
ATOM      3  C   UNL     1      33.103 -23.015 -16.216  0.00  0.00    +0.017 C 
ATOM      4  C   UNL     1      33.067 -24.382 -13.785  0.00  0.00    +0.029 C 
ATOM      5  C   UNL     1      31.890 -24.234 -14.519  0.00  0.00    +0.143 C 
ATOM      6  C   UNL     1      31.908 -23.551 -15.735  0.00  0.00    +0.025 C 
ENDROOT
BRANCH   1   7
ATOM      7  N   UNL     1      35.453 -22.621 -15.980  0.00  0.00    -0.253 N 
ATOM      8  N   UNL     1      36.950 -21.836 -17.421  0.00  0.00    -0.234 NA
ATOM      9  C   UNL     1      35.764 -22.345 -17.268  0.00  0.00    +0.095 C 
ATOM     10  C   UNL     1      36.538 -22.258 -15.232  0.00  0.00    +0.091 C 
ATOM     11  C   UNL     1      37.448 -21.777 -16.144  0.00  0.00    +0.116 C 
BRANCH   9  12
ATOM     12  C   UNL     1      34.796 -22.614 -18.388  0.00  0.00    -0.014 C 
BRANCH  12  13
ATOM     13  N   UNL     1      34.564 -21.410 -19.183  0.00  0.00    +0.392 N 
ATOM     14  H   UNL     1      34.796 -20.597 -18.613  0.00  0.00    -0.079 HD
BRANCH  13  15
ATOM     15  C   UNL     1      35.422 -21.406 -20.367  0.00  0.00    -0.077 C 
ATOM     16  C   UNL     1      36.385 -20.231 -20.343  0.00  0.00    -0.025 C 
ENDBRANCH  13  15
BRANCH  13  17
ATOM     17  C   UNL     1      33.157 -21.316 -19.571  0.00  0.00    -0.077 C 
ATOM     18  C   UNL     1      32.914 -20.119 -20.475  0.00  0.00    -0.025 C 
ENDBRANCH  13  17
ENDBRANCH  12  13
ENDBRANCH   9  12
ENDBRANCH   1   7
BRANCH   5  21
ATOM     19  O   UNL     1      30.426 -24.707 -12.802  0.00  0.00    -0.126 OA
ATOM     20  O   UNL     1      29.880 -25.318 -14.838  0.00  0.00    -0.126 OA
ATOM     21  N   UNL     1      30.674 -24.779 -14.030  0.00  0.00    +0.058 N 
ENDBRANCH   5  21
BRANCH   2  23
ATOM     22  O   UNL     1      35.634 -23.359 -12.435  0.00  0.00    -0.286 OA
ATOM     23  C   UNL     1      35.471 -24.020 -13.470  0.00  0.00    +0.198 C 
BRANCH  23  25
ATOM     24 CL   UNL     1      38.171 -23.788 -12.010  0.00  0.00    -0.082 Cl
ATOM     25  C   UNL     1      36.548 -24.979 -13.854  0.00  0.00    +0.050 C 
ATOM     26  C   UNL     1      37.781 -24.935 -13.242  0.00  0.00    +0.061 C 
ATOM     27  C   UNL     1      36.242 -25.895 -14.838  0.00  0.00    +0.004 C 
ATOM     28  C   UNL     1      38.757 -25.852 -13.631  0.00  0.00    +0.011 C 
ATOM     29  C   UNL     1      37.219 -26.813 -15.226  0.00  0.00    +0.000 C 
ATOM     30  C   UNL     1      38.476 -26.791 -14.623  0.00  0.00    +0.001 C 
ENDBRANCH  23  25
ENDBRANCH   2  23
TORSDOF 8
ENDMDL
MODEL 7
REMARK VINA RESULT:      -7.8      7.926     10.976
REMARK  Name = 4514
REMARK  8 active torsions:
REMARK  status: ('A' for Active; 'I' for Inactive)
REMARK    1  A    between atoms: C_1  and  N_7
REMARK    2  A    between atoms: C_2  and  C_23
REMARK    3  A    between atoms: C_5  and  N_21
REMARK    4  A    between atoms: C_9  and  C_12
REMARK    5  A    between atoms: C_12  and  N_13
REMARK    6  A    between atoms: N_13  and  C_15
REMARK    7  A    between atoms: N_13  and  C_17
REMARK    8  A    between atoms: C_23  and  C_25
REMARK                            x       y       z     vdW  Elec       q    Type
REMARK                         _______ _______ _______ _____ _____    ______ ____
ROOT
ATOM      1  C   UNL     1      33.295 -14.664 -22.571  0.00  0.00    +0.060 C 
ATOM      2  C   UNL     1      32.810 -13.520 -23.194  0.00  0.00    +0.055 C 
ATOM      3  C   UNL     1      33.113 -14.856 -21.205  0.00  0.00    +0.017 C 
ATOM      4  C   UNL     1      32.134 -12.556 -22.444  0.00  0.00    +0.029 C 
ATOM      5  C   UNL     1      31.949 -12.743 -21.074  0.00  0.00    +0.143 C 
ATOM      6  C   UNL     1      32.439 -13.893 -20.454  0.00  0.00    +0.025 C 
ENDROOT
BRANCH   1   7
ATOM      7  N   UNL     1      33.970 -15.641 -23.299  0.00  0.00    -0.253 N 
ATOM      8  N   UNL     1      35.269 -17.382 -23.762  0.00  0.00    -0.234 NA
ATOM      9  C   UNL     1      34.782 -16.617 -22.831  0.00  0.00    +0.095 C 
ATOM     10  C   UNL     1      33.929 -15.788 -24.657  0.00  0.00    +0.091 C 
ATOM     11  C   UNL     1      34.738 -16.868 -24.919  0.00  0.00    +0.116 C 
BRANCH   9  12
ATOM     12  C   UNL     1      35.068 -16.770 -21.362  0.00  0.00    -0.014 C 
BRANCH  12  13
ATOM     13  N   UNL     1      35.045 -18.177 -20.966  0.00  0.00    +0.392 N 
ATOM     14  H   UNL     1      34.915 -18.227 -19.955  0.00  0.00    -0.079 HD
BRANCH  13  15
ATOM     15  C   UNL     1      33.931 -18.872 -21.610  0.00  0.00    -0.077 C 
ATOM     16  C   UNL     1      33.182 -19.746 -20.619  0.00  0.00    -0.025 C 
ENDBRANCH  13  15
BRANCH  13  17
ATOM     17  C   UNL     1      36.313 -18.824 -21.302  0.00  0.00    -0.077 C 
ATOM     18  C   UNL     1      36.707 -19.843 -20.246  0.00  0.00    -0.025 C 
ENDBRANCH  13  17
ENDBRANCH  12  13
ENDBRANCH   9  12
ENDBRANCH   1   7
BRANCH   5  21
ATOM     19  O   UNL     1      31.684 -11.482 -19.161  0.00  0.00    -0.126 OA
ATOM     20  O   UNL     1      30.254 -11.204 -20.804  0.00  0.00    -0.126 OA
ATOM     21  N   UNL     1      31.263 -11.763 -20.310  0.00  0.00    +0.058 N 
ENDBRANCH   5  21
BRANCH   2  23
ATOM     22  O   UNL     1      32.372 -13.990 -25.444  0.00  0.00    -0.286 OA
ATOM     23  C   UNL     1      32.983 -13.291 -24.624  0.00  0.00    +0.198 C 
BRANCH  23  25
ATOM     24 CL   UNL     1      33.788 -13.464 -27.590  0.00  0.00    -0.082 Cl
ATOM     25  C   UNL     1      33.884 -12.227 -25.158  0.00  0.00    +0.050 C 
ATOM     26  C   UNL     1      34.285 -12.240 -26.476  0.00  0.00    +0.061 C 
ATOM     27  C   UNL     1      34.283 -11.249 -24.272  0.00  0.00    +0.004 C 
ATOM     28  C   UNL     1      35.125 -11.225 -26.932  0.00  0.00    +0.011 C 
ATOM     29  C   UNL     1      35.124 -10.234 -24.729  0.00  0.00    +0.000 C 
ATOM     30  C   UNL     1      35.545 -10.222 -26.059  0.00  0.00    +0.001 C 
ENDBRANCH  23  25
ENDBRANCH   2  23
TORSDOF 8
ENDMDL
MODEL 8
REMARK VINA RESULT:      -7.5      3.046      7.086
REMARK  Name = 4514
REMARK  8 active torsions:
REMARK  status: ('A' for Active; 'I' for Inactive)
REMARK    1  A    between atoms: C_1  and  N_7
REMARK    2  A    between atoms: C_2  and  C_23
REMARK    3  A    between atoms: C_5  and  N_21
REMARK    4  A    between atoms: C_9  and  C_12
REMARK    5  A    between atoms: C_12  and  N_13
REMARK    6  A    between atoms: N_13  and  C_15
REMARK    7  A    between atoms: N_13  and  C_17
REMARK    8  A    between atoms: C_23  and  C_25
REMARK                            x       y       z     vdW  Elec       q    Type
REMARK                         _______ _______ _______ _____ _____    ______ ____
ROOT
ATOM      1  C   UNL     1      33.055 -23.562 -15.831  0.00  0.00    +0.060 C 
ATOM      2  C   UNL     1      34.410 -23.357 -15.593  0.00  0.00    +0.055 C 
ATOM      3  C   UNL     1      32.492 -23.214 -17.055  0.00  0.00    +0.017 C 
ATOM      4  C   UNL     1      35.211 -22.797 -16.589  0.00  0.00    +0.029 C 
ATOM      5  C   UNL     1      34.652 -22.446 -17.818  0.00  0.00    +0.143 C 
ATOM      6  C   UNL     1      33.293 -22.654 -18.051  0.00  0.00    +0.025 C 
ENDROOT
BRANCH   1   7
ATOM      7  N   UNL     1      32.236 -24.121 -14.853  0.00  0.00    -0.253 N 
ATOM      8  N   UNL     1      30.460 -24.491 -13.572  0.00  0.00    -0.234 NA
ATOM      9  C   UNL     1      30.965 -23.781 -14.537  0.00  0.00    +0.095 C 
ATOM     10  C   UNL     1      32.585 -25.142 -14.015  0.00  0.00    +0.091 C 
ATOM     11  C   UNL     1      31.473 -25.352 -13.234  0.00  0.00    +0.116 C 
BRANCH   9  12
ATOM     12  C   UNL     1      30.238 -22.681 -15.261  0.00  0.00    -0.014 C 
BRANCH  12  13
ATOM     13  N   UNL     1      28.853 -23.059 -15.537  0.00  0.00    +0.392 N 
ATOM     14  H   UNL     1      28.579 -23.787 -14.878  0.00  0.00    -0.079 HD
BRANCH  13  15
ATOM     15  C   UNL     1      27.964 -21.912 -15.357  0.00  0.00    -0.077 C 
ATOM     16  C   UNL     1      26.791 -21.968 -16.321  0.00  0.00    -0.025 C 
ENDBRANCH  13  15
BRANCH  13  17
ATOM     17  C   UNL     1      28.729 -23.592 -16.893  0.00  0.00    -0.077 C 
ATOM     18  C   UNL     1      28.403 -25.076 -16.873  0.00  0.00    -0.025 C 
ENDBRANCH  13  17
ENDBRANCH  12  13
ENDBRANCH   9  12
ENDBRANCH   1   7
BRANCH   5  21
ATOM     19  O   UNL     1      35.182 -22.095 -20.035  0.00  0.00    -0.126 OA
ATOM     20  O   UNL     1      36.448 -21.170 -18.498  0.00  0.00    -0.126 OA
ATOM     21  N   UNL     1      35.466 -21.876 -18.832  0.00  0.00    +0.058 N 
ENDBRANCH   5  21
BRANCH   2  23
ATOM     22  O   UNL     1      34.596 -23.237 -13.264  0.00  0.00    -0.286 OA
ATOM     23  C   UNL     1      35.030 -23.713 -14.322  0.00  0.00    +0.198 C 
BRANCH  23  25
ATOM     24 CL   UNL     1      37.335 -22.943 -12.433  0.00  0.00    -0.082 Cl
ATOM     25  C   UNL     1      36.192 -24.645 -14.235  0.00  0.00    +0.050 C 
ATOM     26  C   UNL     1      37.259 -24.366 -13.409  0.00  0.00    +0.061 C 
ATOM     27  C   UNL     1      36.136 -25.782 -15.013  0.00  0.00    +0.004 C 
ATOM     28  C   UNL     1      38.322 -25.267 -13.358  0.00  0.00    +0.011 C 
ATOM     29  C   UNL     1      37.200 -26.683 -14.961  0.00  0.00    +0.000 C 
ATOM     30  C   UNL     1      38.293 -26.425 -14.134  0.00  0.00    +0.001 C 
ENDBRANCH  23  25
ENDBRANCH   2  23
TORSDOF 8
ENDMDL
MODEL 9
REMARK VINA RESULT:      -7.4     12.130     16.332
REMARK  Name = 4514
REMARK  8 active torsions:
REMARK  status: ('A' for Active; 'I' for Inactive)
REMARK    1  A    between atoms: C_1  and  N_7
REMARK    2  A    between atoms: C_2  and  C_23
REMARK    3  A    between atoms: C_5  and  N_21
REMARK    4  A    between atoms: C_9  and  C_12
REMARK    5  A    between atoms: C_12  and  N_13
REMARK    6  A    between atoms: N_13  and  C_15
REMARK    7  A    between atoms: N_13  and  C_17
REMARK    8  A    between atoms: C_23  and  C_25
REMARK                            x       y       z     vdW  Elec       q    Type
REMARK                         _______ _______ _______ _____ _____    ______ ____
ROOT
ATOM      1  C   UNL     1      33.378  -8.922 -22.708  0.00  0.00    +0.060 C 
ATOM      2  C   UNL     1      32.974 -10.187 -23.120  0.00  0.00    +0.055 C 
ATOM      3  C   UNL     1      34.368  -8.236 -23.403  0.00  0.00    +0.017 C 
ATOM      4  C   UNL     1      33.568 -10.774 -24.237  0.00  0.00    +0.029 C 
ATOM      5  C   UNL     1      34.563 -10.092 -24.937  0.00  0.00    +0.143 C 
ATOM      6  C   UNL     1      34.964  -8.823 -24.520  0.00  0.00    +0.025 C 
ENDROOT
BRANCH   1   7
ATOM      7  N   UNL     1      32.797  -8.315 -21.597  0.00  0.00    -0.253 N 
ATOM      8  N   UNL     1      31.878  -6.761 -20.303  0.00  0.00    -0.234 NA
ATOM      9  C   UNL     1      32.384  -7.032 -21.469  0.00  0.00    +0.095 C 
ATOM     10  C   UNL     1      32.537  -8.928 -20.404  0.00  0.00    +0.091 C 
ATOM     11  C   UNL     1      31.970  -7.949 -19.622  0.00  0.00    +0.116 C 
BRANCH   9  12
ATOM     12  C   UNL     1      32.512  -6.045 -22.598  0.00  0.00    -0.014 C 
BRANCH  12  13
ATOM     13  N   UNL     1      31.197  -5.643 -23.096  0.00  0.00    +0.392 N 
ATOM     14  H   UNL     1      30.484  -6.054 -22.494  0.00  0.00    -0.079 HD
BRANCH  13  15
ATOM     15  C   UNL     1      31.058  -4.188 -23.052  0.00  0.00    -0.077 C 
ATOM     16  C   UNL     1      31.196  -3.581 -24.438  0.00  0.00    -0.025 C 
ENDBRANCH  13  15
BRANCH  13  17
ATOM     17  C   UNL     1      30.994  -6.135 -24.458  0.00  0.00    -0.077 C 
ATOM     18  C   UNL     1      30.594  -7.601 -24.459  0.00  0.00    -0.025 C 
ENDBRANCH  13  17
ENDBRANCH  12  13
ENDBRANCH   9  12
ENDBRANCH   1   7
BRANCH   5  21
ATOM     19  O   UNL     1      34.593 -11.654 -26.634  0.00  0.00    -0.126 OA
ATOM     20  O   UNL     1      36.262 -10.235 -26.490  0.00  0.00    -0.126 OA
ATOM     21  N   UNL     1      35.168 -10.689 -26.074  0.00  0.00    +0.058 N 
ENDBRANCH   5  21
BRANCH   2  23
ATOM     22  O   UNL     1      30.834 -10.407 -22.199  0.00  0.00    -0.286 OA
ATOM     23  C   UNL     1      31.936 -10.931 -22.414  0.00  0.00    +0.198 C 
BRANCH  23  25
ATOM     24 CL   UNL     1      31.617 -11.448 -19.396  0.00  0.00    -0.082 Cl
ATOM     25  C   UNL     1      32.145 -12.326 -21.927  0.00  0.00    +0.050 C 
ATOM     26  C   UNL     1      32.018 -12.631 -20.590  0.00  0.00    +0.061 C 
ATOM     27  C   UNL     1      32.467 -13.274 -22.876  0.00  0.00    +0.004 C 
ATOM     28  C   UNL     1      32.221 -13.949 -20.180  0.00  0.00    +0.011 C 
ATOM     29  C   UNL     1      32.669 -14.591 -22.465  0.00  0.00    +0.000 C 
ATOM     30  C   UNL     1      32.547 -14.929 -21.117  0.00  0.00    +0.001 C 
ENDBRANCH  23  25
ENDBRANCH   2  23
TORSDOF 8
ENDMDL
