MODEL 1
REMARK VINA RESULT:     -11.3      0.000      0.000
REMARK  Name = 54576073
REMARK  2 active torsions:
REMARK  status: ('A' for Active; 'I' for Inactive)
REMARK    1  A    between atoms: C_13  and  C_20
REMARK    2  A    between atoms: C_15  and  C_25
REMARK                            x       y       z     vdW  Elec       q    Type
REMARK                         _______ _______ _______ _____ _____    ______ ____
ROOT
ATOM      1  N   UNL     1      33.776 -17.201 -21.219  0.00  0.00    -0.288 N 
ATOM      2  N   UNL     1      34.671 -19.859 -21.083  0.00  0.00    -0.250 N 
ATOM      3  N   UNL     1      32.973 -15.363 -19.984  0.00  0.00    -0.133 NA
ATOM      4  N   UNL     1      34.126 -21.593 -19.628  0.00  0.00    -0.181 NA
ATOM      5  N   UNL     1      36.271 -20.500 -19.517  0.00  0.00    -0.203 NA
ATOM      6  N   UNL     1      32.563 -14.069 -19.910  0.00  0.00    -0.147 NA
ATOM      7  C   UNL     1      32.834 -18.265 -20.833  0.00  0.00    +0.114 C 
ATOM      8  C   UNL     1      35.206 -17.480 -21.001  0.00  0.00    +0.114 C 
ATOM      9  C   UNL     1      35.590 -18.839 -21.595  0.00  0.00    +0.123 C 
ATOM     10  C   UNL     1      33.273 -19.603 -21.430  0.00  0.00    +0.123 C 
ATOM     11  C   UNL     1      33.358 -15.865 -21.176  0.00  0.00    +0.153 C 
ATOM     12  C   UNL     1      35.039 -20.688 -20.028  0.00  0.00    +0.090 C 
ATOM     13  C   UNL     1      33.358 -15.121 -22.338  0.00  0.00    +0.035 C 
ATOM     14  C   UNL     1      32.941 -13.804 -22.264  0.00  0.00    +0.024 C 
ATOM     15  C   UNL     1      32.552 -13.317 -21.032  0.00  0.00    +0.103 C 
ATOM     16  C   UNL     1      34.515 -22.381 -18.605  0.00  0.00    +0.108 C 
ATOM     17  C   UNL     1      36.594 -21.321 -18.497  0.00  0.00    +0.165 C 
ATOM     18  C   UNL     1      35.750 -22.290 -17.994  0.00  0.00    +0.022 C 
ENDROOT
BRANCH  13  20
ATOM     19  N   UNL     1      34.577 -16.718 -26.076  0.00  0.00    -0.242 NA
ATOM     20  C   UNL     1      33.773 -15.667 -23.615  0.00  0.00    +0.006 C 
ATOM     21  C   UNL     1      34.671 -16.728 -23.661  0.00  0.00    +0.021 C 
ATOM     22  C   UNL     1      33.277 -15.130 -24.798  0.00  0.00    +0.021 C 
ATOM     23  C   UNL     1      35.038 -17.213 -24.905  0.00  0.00    +0.099 C 
ATOM     24  C   UNL     1      33.707 -15.688 -25.992  0.00  0.00    +0.099 C 
ENDBRANCH  13  20
BRANCH  15  25
ATOM     25  C   UNL     1      32.103 -11.958 -20.862  0.00  0.00    +0.019 C 
ATOM     26  C   UNL     1      31.722 -11.502 -19.600  0.00  0.00    +0.002 C 
ATOM     27  C   UNL     1      32.049 -11.098 -21.960  0.00  0.00    +0.002 C 
ATOM     28  C   UNL     1      31.286 -10.187 -19.435  0.00  0.00    +0.000 C 
ATOM     29  C   UNL     1      31.613  -9.784 -21.795  0.00  0.00    +0.000 C 
ATOM     30  C   UNL     1      31.232  -9.328 -20.533  0.00  0.00    +0.000 C 
ENDBRANCH  15  25
TORSDOF 2
ENDMDL
MODEL 2
REMARK VINA RESULT:     -11.3      0.076      1.234
REMARK  Name = 54576073
REMARK  2 active torsions:
REMARK  status: ('A' for Active; 'I' for Inactive)
REMARK    1  A    between atoms: C_13  and  C_20
REMARK    2  A    between atoms: C_15  and  C_25
REMARK                            x       y       z     vdW  Elec       q    Type
REMARK                         _______ _______ _______ _____ _____    ______ ____
ROOT
ATOM      1  N   UNL     1      33.772 -17.260 -21.186  0.00  0.00    -0.288 N 
ATOM      2  N   UNL     1      34.667 -19.916 -21.027  0.00  0.00    -0.250 N 
ATOM      3  N   UNL     1      32.964 -15.413 -19.968  0.00  0.00    -0.133 NA
ATOM      4  N   UNL     1      34.116 -21.640 -19.562  0.00  0.00    -0.181 NA
ATOM      5  N   UNL     1      36.260 -20.546 -19.450  0.00  0.00    -0.203 NA
ATOM      6  N   UNL     1      32.554 -14.118 -19.905  0.00  0.00    -0.147 NA
ATOM      7  C   UNL     1      32.829 -18.321 -20.796  0.00  0.00    +0.114 C 
ATOM      8  C   UNL     1      35.202 -17.536 -20.960  0.00  0.00    +0.114 C 
ATOM      9  C   UNL     1      35.588 -18.900 -21.543  0.00  0.00    +0.123 C 
ATOM     10  C   UNL     1      33.271 -19.663 -21.382  0.00  0.00    +0.123 C 
ATOM     11  C   UNL     1      33.354 -15.923 -21.154  0.00  0.00    +0.153 C 
ATOM     12  C   UNL     1      35.031 -20.738 -19.965  0.00  0.00    +0.090 C 
ATOM     13  C   UNL     1      33.359 -15.188 -22.322  0.00  0.00    +0.035 C 
ATOM     14  C   UNL     1      32.941 -13.870 -22.259  0.00  0.00    +0.024 C 
ATOM     15  C   UNL     1      32.548 -13.375 -21.032  0.00  0.00    +0.103 C 
ATOM     16  C   UNL     1      34.501 -22.420 -18.531  0.00  0.00    +0.108 C 
ATOM     17  C   UNL     1      36.580 -21.360 -18.422  0.00  0.00    +0.165 C 
ATOM     18  C   UNL     1      35.733 -22.324 -17.916  0.00  0.00    +0.022 C 
ENDROOT
BRANCH  13  20
ATOM     19  N   UNL     1      34.588 -16.812 -26.045  0.00  0.00    -0.242 NA
ATOM     20  C   UNL     1      33.779 -15.742 -23.593  0.00  0.00    +0.006 C 
ATOM     21  C   UNL     1      33.318 -15.188 -24.782  0.00  0.00    +0.021 C 
ATOM     22  C   UNL     1      34.644 -16.830 -23.628  0.00  0.00    +0.021 C 
ATOM     23  C   UNL     1      33.748 -15.754 -25.971  0.00  0.00    +0.099 C 
ATOM     24  C   UNL     1      35.015 -17.323 -24.870  0.00  0.00    +0.099 C 
ENDBRANCH  13  20
BRANCH  15  25
ATOM     25  C   UNL     1      32.098 -12.014 -20.874  0.00  0.00    +0.019 C 
ATOM     26  C   UNL     1      32.028 -11.170 -21.982  0.00  0.00    +0.002 C 
ATOM     27  C   UNL     1      31.731 -11.542 -19.613  0.00  0.00    +0.002 C 
ATOM     28  C   UNL     1      31.593  -9.853 -21.830  0.00  0.00    +0.000 C 
ATOM     29  C   UNL     1      31.297 -10.226 -19.461  0.00  0.00    +0.000 C 
ATOM     30  C   UNL     1      31.227  -9.381 -20.569  0.00  0.00    +0.000 C 
ENDBRANCH  15  25
TORSDOF 2
ENDMDL
