MODEL 1
REMARK VINA RESULT:      -8.1      0.000      0.000
REMARK  Name = 168213
REMARK  0 active torsions:
REMARK  status: ('A' for Active; 'I' for Inactive)
REMARK                            x       y       z     vdW  Elec       q    Type
REMARK                         _______ _______ _______ _____ _____    ______ ____
ROOT
ATOM      1  N   UNL     1      31.642  -9.500 -22.242  0.00  0.00    +0.388 N 
ATOM      2  N   UNL     1      31.726  -6.948 -23.566  0.00  0.00    +0.388 N 
ATOM      3  C   UNL     1      32.633  -7.403 -21.268  0.00  0.00    -0.040 C 
ATOM      4  C   UNL     1      33.710  -8.455 -23.216  0.00  0.00    -0.040 C 
ATOM      5  C   UNL     1      31.780  -8.684 -21.020  0.00  0.00    -0.060 C 
ATOM      6  C   UNL     1      32.952  -7.493 -24.180  0.00  0.00    -0.060 C 
ATOM      7  C   UNL     1      33.988  -7.767 -21.877  0.00  0.00    -0.008 C 
ATOM      8  C   UNL     1      32.910  -9.752 -22.935  0.00  0.00    -0.079 C 
ATOM      9  C   UNL     1      31.926  -6.404 -22.218  0.00  0.00    -0.079 C 
ATOM     10  C   UNL     1      32.318  -9.502 -19.826  0.00  0.00    -0.021 C 
ATOM     11  C   UNL     1      33.881  -6.384 -24.720  0.00  0.00    -0.021 C 
ATOM     12  C   UNL     1      30.857 -10.718 -22.019  0.00  0.00    -0.077 C 
ATOM     13  C   UNL     1      31.013  -6.028 -24.457  0.00  0.00    -0.077 C 
ATOM     14  C   UNL     1      31.475 -10.749 -19.580  0.00  0.00    -0.004 C 
ATOM     15  C   UNL     1      33.139  -5.452 -25.673  0.00  0.00    -0.004 C 
ATOM     16  C   UNL     1      31.356 -11.575 -20.856  0.00  0.00    -0.023 C 
ATOM     17  C   UNL     1      31.883  -4.899 -25.010  0.00  0.00    -0.023 C 
ATOM     18  H   UNL     1      31.101  -8.927 -22.891  0.00  0.00    -0.080 HD
ATOM     19  H   UNL     1      31.110  -7.751 -23.433  0.00  0.00    -0.080 HD
ENDROOT
TORSDOF 0
ENDMDL
MODEL 2
REMARK VINA RESULT:      -8.1      0.059      5.246
REMARK  Name = 168213
REMARK  0 active torsions:
REMARK  status: ('A' for Active; 'I' for Inactive)
REMARK                            x       y       z     vdW  Elec       q    Type
REMARK                         _______ _______ _______ _____ _____    ______ ____
ROOT
ATOM      1  N   UNL     1      31.681  -6.973 -23.528  0.00  0.00    +0.388 N 
ATOM      2  N   UNL     1      31.632  -9.531 -22.213  0.00  0.00    +0.388 N 
ATOM      3  C   UNL     1      33.685  -8.453 -23.181  0.00  0.00    -0.040 C 
ATOM      4  C   UNL     1      32.594  -7.424 -21.229  0.00  0.00    -0.040 C 
ATOM      5  C   UNL     1      32.915  -7.498 -24.143  0.00  0.00    -0.060 C 
ATOM      6  C   UNL     1      31.759  -8.717 -20.987  0.00  0.00    -0.060 C 
ATOM      7  C   UNL     1      33.953  -7.766 -21.841  0.00  0.00    -0.008 C 
ATOM      8  C   UNL     1      31.873  -6.432 -22.178  0.00  0.00    -0.079 C 
ATOM      9  C   UNL     1      32.904  -9.763 -22.907  0.00  0.00    -0.079 C 
ATOM     10  C   UNL     1      33.828  -6.375 -24.679  0.00  0.00    -0.021 C 
ATOM     11  C   UNL     1      32.309  -9.533 -19.797  0.00  0.00    -0.021 C 
ATOM     12  C   UNL     1      30.955  -6.059 -24.415  0.00  0.00    -0.077 C 
ATOM     13  C   UNL     1      30.865 -10.760 -21.994  0.00  0.00    -0.077 C 
ATOM     14  C   UNL     1      33.073  -5.449 -25.628  0.00  0.00    -0.004 C 
ATOM     15  C   UNL     1      31.483 -10.792 -19.555  0.00  0.00    -0.004 C 
ATOM     16  C   UNL     1      31.809  -4.916 -24.963  0.00  0.00    -0.023 C 
ATOM     17  C   UNL     1      31.375 -11.615 -20.835  0.00  0.00    -0.023 C 
ATOM     18  H   UNL     1      31.075  -7.784 -23.398  0.00  0.00    -0.080 HD
ATOM     19  H   UNL     1      31.084  -8.963 -22.859  0.00  0.00    -0.080 HD
ENDROOT
TORSDOF 0
ENDMDL
MODEL 3
REMARK VINA RESULT:      -7.3      8.105     10.423
REMARK  Name = 168213
REMARK  0 active torsions:
REMARK  status: ('A' for Active; 'I' for Inactive)
REMARK                            x       y       z     vdW  Elec       q    Type
REMARK                         _______ _______ _______ _____ _____    ______ ____
ROOT
ATOM      1  N   UNL     1      33.876 -19.381 -21.129  0.00  0.00    +0.388 N 
ATOM      2  N   UNL     1      34.042 -16.642 -21.993  0.00  0.00    +0.388 N 
ATOM      3  C   UNL     1      36.011 -18.071 -21.363  0.00  0.00    -0.040 C 
ATOM      4  C   UNL     1      34.713 -18.632 -23.378  0.00  0.00    -0.040 C 
ATOM      5  C   UNL     1      35.191 -19.096 -20.523  0.00  0.00    -0.060 C 
ATOM      6  C   UNL     1      34.015 -17.240 -23.342  0.00  0.00    -0.060 C 
ATOM      7  C   UNL     1      36.132 -18.539 -22.815  0.00  0.00    -0.008 C 
ATOM      8  C   UNL     1      33.938 -19.697 -22.561  0.00  0.00    -0.079 C 
ATOM      9  C   UNL     1      35.366 -16.662 -21.360  0.00  0.00    -0.079 C 
ATOM     10  C   UNL     1      36.001 -20.381 -20.247  0.00  0.00    -0.021 C 
ATOM     11  C   UNL     1      34.588 -16.289 -24.416  0.00  0.00    -0.021 C 
ATOM     12  C   UNL     1      33.101 -20.358 -20.358  0.00  0.00    -0.077 C 
ATOM     13  C   UNL     1      33.404 -15.323 -21.950  0.00  0.00    -0.077 C 
ATOM     14  C   UNL     1      35.199 -21.377 -19.415  0.00  0.00    -0.004 C 
ATOM     15  C   UNL     1      33.895 -14.931 -24.386  0.00  0.00    -0.004 C 
ATOM     16  C   UNL     1      33.852 -21.658 -20.069  0.00  0.00    -0.023 C 
ATOM     17  C   UNL     1      33.945 -14.336 -22.983  0.00  0.00    -0.023 C 
ATOM     18  H   UNL     1      33.358 -18.503 -21.080  0.00  0.00    -0.080 HD
ATOM     19  H   UNL     1      33.468 -17.256 -21.414  0.00  0.00    -0.080 HD
ENDROOT
TORSDOF 0
ENDMDL
MODEL 4
REMARK VINA RESULT:      -7.3     17.042     18.979
REMARK  Name = 168213
REMARK  0 active torsions:
REMARK  status: ('A' for Active; 'I' for Inactive)
REMARK                            x       y       z     vdW  Elec       q    Type
REMARK                         _______ _______ _______ _____ _____    ______ ____
ROOT
ATOM      1  N   UNL     1      36.033 -25.662 -14.385  0.00  0.00    +0.388 N 
ATOM      2  N   UNL     1      33.341 -24.768 -13.912  0.00  0.00    +0.388 N 
ATOM      3  C   UNL     1      35.407 -23.603 -13.083  0.00  0.00    -0.040 C 
ATOM      4  C   UNL     1      34.960 -23.683 -15.503  0.00  0.00    -0.040 C 
ATOM      5  C   UNL     1      36.337 -24.849 -13.192  0.00  0.00    -0.060 C 
ATOM      6  C   UNL     1      33.493 -24.138 -15.238  0.00  0.00    -0.060 C 
ATOM      7  C   UNL     1      35.457 -22.780 -14.372  0.00  0.00    -0.008 C 
ATOM      8  C   UNL     1      35.932 -24.884 -15.625  0.00  0.00    -0.079 C 
ATOM      9  C   UNL     1      33.932 -23.994 -12.815  0.00  0.00    -0.079 C 
ATOM     10  C   UNL     1      37.827 -24.454 -13.113  0.00  0.00    -0.021 C 
ATOM     11  C   UNL     1      32.493 -22.983 -15.458  0.00  0.00    -0.021 C 
ATOM     12  C   UNL     1      36.912 -26.829 -14.508  0.00  0.00    -0.077 C 
ATOM     13  C   UNL     1      31.961 -25.184 -13.643  0.00  0.00    -0.077 C 
ATOM     14  C   UNL     1      38.733 -25.678 -13.209  0.00  0.00    -0.004 C 
ATOM     15  C   UNL     1      31.057 -23.435 -15.209  0.00  0.00    -0.004 C 
ATOM     16  C   UNL     1      38.403 -26.493 -14.454  0.00  0.00    -0.023 C 
ATOM     17  C   UNL     1      30.928 -24.073 -13.831  0.00  0.00    -0.023 C 
ATOM     18  H   UNL     1      35.093 -26.029 -14.232  0.00  0.00    -0.080 HD
ATOM     19  H   UNL     1      33.894 -25.624 -13.953  0.00  0.00    -0.080 HD
ENDROOT
TORSDOF 0
ENDMDL
MODEL 5
REMARK VINA RESULT:      -7.3      8.135     11.576
REMARK  Name = 168213
REMARK  0 active torsions:
REMARK  status: ('A' for Active; 'I' for Inactive)
REMARK                            x       y       z     vdW  Elec       q    Type
REMARK                         _______ _______ _______ _____ _____    ______ ____
ROOT
ATOM      1  N   UNL     1      34.090 -16.653 -22.138  0.00  0.00    +0.388 N 
ATOM      2  N   UNL     1      33.877 -19.361 -21.191  0.00  0.00    +0.388 N 
ATOM      3  C   UNL     1      34.709 -18.696 -23.467  0.00  0.00    -0.040 C 
ATOM      4  C   UNL     1      36.036 -18.101 -21.481  0.00  0.00    -0.040 C 
ATOM      5  C   UNL     1      34.039 -17.289 -23.468  0.00  0.00    -0.060 C 
ATOM      6  C   UNL     1      35.203 -19.084 -20.604  0.00  0.00    -0.060 C 
ATOM      7  C   UNL     1      36.135 -18.614 -22.919  0.00  0.00    -0.008 C 
ATOM      8  C   UNL     1      35.418 -16.680 -21.516  0.00  0.00    -0.079 C 
ATOM      9  C   UNL     1      33.920 -19.720 -22.613  0.00  0.00    -0.079 C 
ATOM     10  C   UNL     1      34.621 -16.383 -24.575  0.00  0.00    -0.021 C 
ATOM     11  C   UNL     1      35.990 -20.377 -20.297  0.00  0.00    -0.021 C 
ATOM     12  C   UNL     1      33.478 -15.320 -22.128  0.00  0.00    -0.077 C 
ATOM     13  C   UNL     1      33.091 -20.298 -20.385  0.00  0.00    -0.077 C 
ATOM     14  C   UNL     1      33.955 -15.011 -24.578  0.00  0.00    -0.004 C 
ATOM     15  C   UNL     1      35.176 -21.331 -19.429  0.00  0.00    -0.004 C 
ATOM     16  C   UNL     1      34.030 -14.376 -23.195  0.00  0.00    -0.023 C 
ATOM     17  C   UNL     1      33.817 -21.604 -20.064  0.00  0.00    -0.023 C 
ATOM     18  H   UNL     1      33.509 -17.237 -21.535  0.00  0.00    -0.080 HD
ATOM     19  H   UNL     1      33.378 -18.471 -21.163  0.00  0.00    -0.080 HD
ENDROOT
TORSDOF 0
ENDMDL
MODEL 6
REMARK VINA RESULT:      -7.3     17.063     19.146
REMARK  Name = 168213
REMARK  0 active torsions:
REMARK  status: ('A' for Active; 'I' for Inactive)
REMARK                            x       y       z     vdW  Elec       q    Type
REMARK                         _______ _______ _______ _____ _____    ______ ____
ROOT
ATOM      1  N   UNL     1      33.398 -24.767 -13.902  0.00  0.00    +0.388 N 
ATOM      2  N   UNL     1      36.093 -25.667 -14.354  0.00  0.00    +0.388 N 
ATOM      3  C   UNL     1      35.013 -23.722 -15.523  0.00  0.00    -0.040 C 
ATOM      4  C   UNL     1      35.464 -23.574 -13.107  0.00  0.00    -0.040 C 
ATOM      5  C   UNL     1      33.547 -24.173 -15.244  0.00  0.00    -0.060 C 
ATOM      6  C   UNL     1      36.396 -24.821 -13.183  0.00  0.00    -0.060 C 
ATOM      7  C   UNL     1      35.508 -22.787 -14.418  0.00  0.00    -0.008 C 
ATOM      8  C   UNL     1      33.989 -23.962 -12.827  0.00  0.00    -0.079 C 
ATOM      9  C   UNL     1      35.988 -24.922 -15.615  0.00  0.00    -0.079 C 
ATOM     10  C   UNL     1      32.543 -23.027 -15.494  0.00  0.00    -0.021 C 
ATOM     11  C   UNL     1      37.885 -24.420 -13.119  0.00  0.00    -0.021 C 
ATOM     12  C   UNL     1      32.020 -25.180 -13.619  0.00  0.00    -0.077 C 
ATOM     13  C   UNL     1      36.975 -26.833 -14.448  0.00  0.00    -0.077 C 
ATOM     14  C   UNL     1      31.109 -23.476 -15.230  0.00  0.00    -0.004 C 
ATOM     15  C   UNL     1      38.795 -25.643 -13.182  0.00  0.00    -0.004 C 
ATOM     16  C   UNL     1      30.984 -24.077 -13.836  0.00  0.00    -0.023 C 
ATOM     17  C   UNL     1      38.464 -26.492 -14.404  0.00  0.00    -0.023 C 
ATOM     18  H   UNL     1      33.954 -25.623 -13.920  0.00  0.00    -0.080 HD
ATOM     19  H   UNL     1      35.154 -26.031 -14.189  0.00  0.00    -0.080 HD
ENDROOT
TORSDOF 0
ENDMDL
MODEL 7
REMARK VINA RESULT:      -6.7      1.274      2.599
REMARK  Name = 168213
REMARK  0 active torsions:
REMARK  status: ('A' for Active; 'I' for Inactive)
REMARK                            x       y       z     vdW  Elec       q    Type
REMARK                         _______ _______ _______ _____ _____    ______ ____
ROOT
ATOM      1  N   UNL     1      32.365  -8.656 -21.141  0.00  0.00    +0.388 N 
ATOM      2  N   UNL     1      33.607  -7.623 -23.521  0.00  0.00    +0.388 N 
ATOM      3  C   UNL     1      31.963  -9.523 -23.468  0.00  0.00    -0.040 C 
ATOM      4  C   UNL     1      31.202  -7.258 -22.877  0.00  0.00    -0.040 C 
ATOM      5  C   UNL     1      32.179  -9.867 -21.963  0.00  0.00    -0.060 C 
ATOM      6  C   UNL     1      32.505  -6.643 -23.471  0.00  0.00    -0.060 C 
ATOM      7  C   UNL     1      30.812  -8.529 -23.633  0.00  0.00    -0.008 C 
ATOM      8  C   UNL     1      31.357  -7.617 -21.376  0.00  0.00    -0.079 C 
ATOM      9  C   UNL     1      33.230  -8.911 -24.116  0.00  0.00    -0.079 C 
ATOM     10  C   UNL     1      31.056 -10.777 -21.421  0.00  0.00    -0.021 C 
ATOM     11  C   UNL     1      32.245  -5.981 -24.842  0.00  0.00    -0.021 C 
ATOM     12  C   UNL     1      32.552  -8.964 -19.720  0.00  0.00    -0.077 C 
ATOM     13  C   UNL     1      34.832  -7.062 -24.096  0.00  0.00    -0.077 C 
ATOM     14  C   UNL     1      31.277 -11.120 -19.951  0.00  0.00    -0.004 C 
ATOM     15  C   UNL     1      33.519  -5.370 -25.416  0.00  0.00    -0.004 C 
ATOM     16  C   UNL     1      31.457  -9.851 -19.127  0.00  0.00    -0.023 C 
ATOM     17  C   UNL     1      34.636  -6.407 -25.463  0.00  0.00    -0.023 C 
ATOM     18  H   UNL     1      33.242  -8.243 -21.461  0.00  0.00    -0.080 HD
ATOM     19  H   UNL     1      33.821  -7.840 -22.548  0.00  0.00    -0.080 HD
ENDROOT
TORSDOF 0
ENDMDL
MODEL 8
REMARK VINA RESULT:      -6.7      1.278      5.222
REMARK  Name = 168213
REMARK  0 active torsions:
REMARK  status: ('A' for Active; 'I' for Inactive)
REMARK                            x       y       z     vdW  Elec       q    Type
REMARK                         _______ _______ _______ _____ _____    ______ ____
ROOT
ATOM      1  N   UNL     1      33.601  -7.599 -23.543  0.00  0.00    +0.388 N 
ATOM      2  N   UNL     1      32.367  -8.628 -21.157  0.00  0.00    +0.388 N 
ATOM      3  C   UNL     1      31.199  -7.235 -22.892  0.00  0.00    -0.040 C 
ATOM      4  C   UNL     1      31.959  -9.501 -23.481  0.00  0.00    -0.040 C 
ATOM      5  C   UNL     1      32.499  -6.619 -23.491  0.00  0.00    -0.060 C 
ATOM      6  C   UNL     1      32.180  -9.841 -21.976  0.00  0.00    -0.060 C 
ATOM      7  C   UNL     1      30.808  -8.507 -23.646  0.00  0.00    -0.008 C 
ATOM      8  C   UNL     1      33.224  -8.888 -24.134  0.00  0.00    -0.079 C 
ATOM      9  C   UNL     1      31.357  -7.590 -21.392  0.00  0.00    -0.079 C 
ATOM     10  C   UNL     1      32.235  -5.960 -24.862  0.00  0.00    -0.021 C 
ATOM     11  C   UNL     1      31.057 -10.750 -21.430  0.00  0.00    -0.021 C 
ATOM     12  C   UNL     1      34.826  -7.038 -24.121  0.00  0.00    -0.077 C 
ATOM     13  C   UNL     1      32.557  -8.933 -19.736  0.00  0.00    -0.077 C 
ATOM     14  C   UNL     1      33.508  -5.349 -25.441  0.00  0.00    -0.004 C 
ATOM     15  C   UNL     1      31.282 -11.091 -19.960  0.00  0.00    -0.004 C 
ATOM     16  C   UNL     1      34.625  -6.385 -25.489  0.00  0.00    -0.023 C 
ATOM     17  C   UNL     1      31.465  -9.820 -19.139  0.00  0.00    -0.023 C 
ATOM     18  H   UNL     1      33.819  -7.814 -22.569  0.00  0.00    -0.080 HD
ATOM     19  H   UNL     1      33.242  -8.216 -21.480  0.00  0.00    -0.080 HD
ENDROOT
TORSDOF 0
ENDMDL
MODEL 9
REMARK VINA RESULT:      -6.5      8.204     11.505
REMARK  Name = 168213
REMARK  0 active torsions:
REMARK  status: ('A' for Active; 'I' for Inactive)
REMARK                            x       y       z     vdW  Elec       q    Type
REMARK                         _______ _______ _______ _____ _____    ______ ____
ROOT
ATOM      1  N   UNL     1      34.828 -17.470 -23.665  0.00  0.00    +0.388 N 
ATOM      2  N   UNL     1      36.101 -18.793 -21.450  0.00  0.00    +0.388 N 
ATOM      3  C   UNL     1      34.429 -16.929 -21.240  0.00  0.00    -0.040 C 
ATOM      4  C   UNL     1      33.698 -19.106 -22.127  0.00  0.00    -0.040 C 
ATOM      5  C   UNL     1      34.630 -16.383 -22.687  0.00  0.00    -0.060 C 
ATOM      6  C   UNL     1      35.013 -19.775 -21.627  0.00  0.00    -0.060 C 
ATOM      7  C   UNL     1      33.294 -17.954 -21.205  0.00  0.00    -0.008 C 
ATOM      8  C   UNL     1      33.837 -18.547 -23.566  0.00  0.00    -0.079 C 
ATOM      9  C   UNL     1      35.709 -17.603 -20.686  0.00  0.00    -0.079 C 
ATOM     10  C   UNL     1      33.489 -15.426 -23.096  0.00  0.00    -0.021 C 
ATOM     11  C   UNL     1      34.772 -20.619 -20.356  0.00  0.00    -0.021 C 
ATOM     12  C   UNL     1      35.001 -16.971 -25.032  0.00  0.00    -0.077 C 
ATOM     13  C   UNL     1      37.338 -19.408 -20.962  0.00  0.00    -0.077 C 
ATOM     14  C   UNL     1      33.696 -14.886 -24.508  0.00  0.00    -0.004 C 
ATOM     15  C   UNL     1      36.059 -21.282 -19.875  0.00  0.00    -0.004 C 
ATOM     16  C   UNL     1      33.889 -16.030 -25.495  0.00  0.00    -0.023 C 
ATOM     17  C   UNL     1      37.161 -20.244 -19.695  0.00  0.00    -0.023 C 
ATOM     18  H   UNL     1      35.713 -17.908 -23.407  0.00  0.00    -0.080 HD
ATOM     19  H   UNL     1      36.305 -18.445 -22.387  0.00  0.00    -0.080 HD
ENDROOT
TORSDOF 0
ENDMDL
