MODEL 1
REMARK VINA RESULT:      -7.8      0.000      0.000
REMARK  Name = 14130
REMARK  6 active torsions:
REMARK  status: ('A' for Active; 'I' for Inactive)
REMARK    1  A    between atoms: N_2  and  C_5
REMARK    2  A    between atoms: C_3  and  C_14
REMARK    3  A    between atoms: C_8  and  O_11
REMARK    4  A    between atoms: O_11  and  C_12
REMARK    5  A    between atoms: C_14  and  C_15
REMARK    6  A    between atoms: C_15  and  O_17
REMARK                            x       y       z     vdW  Elec       q    Type
REMARK                         _______ _______ _______ _____ _____    ______ ____
ROOT
ATOM      1  O   UNL     1      35.231 -16.552 -20.261  0.00  0.00    -0.275 OA
ATOM      2  N   UNL     1      34.534 -18.187 -21.796  0.00  0.00    -0.284 N 
ATOM      3  C   UNL     1      34.870 -16.902 -21.379  0.00  0.00    +0.229 C 
ATOM      4  H   UNL     1      34.263 -18.282 -22.738  0.00  0.00    +0.155 HD
ENDROOT
BRANCH   2   5
ATOM      5  C   UNL     1      34.534 -19.372 -21.023  0.00  0.00    +0.051 C 
ATOM      6  C   UNL     1      35.739 -19.972 -20.702  0.00  0.00    +0.018 C 
ATOM      7  C   UNL     1      33.327 -19.907 -20.605  0.00  0.00    +0.018 C 
ATOM      8  C   UNL     1      34.532 -21.693 -19.511  0.00  0.00    +0.139 C 
ATOM      9  C   UNL     1      35.739 -21.141 -19.940  0.00  0.00    +0.038 C 
ATOM     10  C   UNL     1      33.325 -21.077 -19.843  0.00  0.00    +0.038 C 
BRANCH   8  11
ATOM     11  O   UNL     1      34.531 -22.832 -18.767  0.00  0.00    -0.475 OA
BRANCH  11  12
ATOM     12  C   UNL     1      33.424 -23.033 -17.888  0.00  0.00    +0.206 C 
ATOM     13  C   UNL     1      33.946 -23.307 -16.493  0.00  0.00    +0.051 C 
ENDBRANCH  11  12
ENDBRANCH   8  11
ENDBRANCH   2   5
BRANCH   3  14
ATOM     14  C   UNL     1      34.733 -15.913 -22.534  0.00  0.00    +0.114 C 
BRANCH  14  15
ATOM     15  C   UNL     1      34.327 -16.581 -23.849  0.00  0.00    +0.120 C 
ATOM     16  C   UNL     1      33.762 -15.561 -24.829  0.00  0.00    +0.032 C 
BRANCH  15  17
ATOM     17  O   UNL     1      35.483 -17.179 -24.430  0.00  0.00    -0.384 OA
ATOM     18  H   UNL     1      35.410 -17.151 -25.397  0.00  0.00    +0.210 HD
ENDBRANCH  15  17
ENDBRANCH  14  15
ENDBRANCH   3  14
TORSDOF 6
ENDMDL
MODEL 2
REMARK VINA RESULT:      -7.7      1.216      1.352
REMARK  Name = 14130
REMARK  6 active torsions:
REMARK  status: ('A' for Active; 'I' for Inactive)
REMARK    1  A    between atoms: N_2  and  C_5
REMARK    2  A    between atoms: C_3  and  C_14
REMARK    3  A    between atoms: C_8  and  O_11
REMARK    4  A    between atoms: O_11  and  C_12
REMARK    5  A    between atoms: C_14  and  C_15
REMARK    6  A    between atoms: C_15  and  O_17
REMARK                            x       y       z     vdW  Elec       q    Type
REMARK                         _______ _______ _______ _____ _____    ______ ____
ROOT
ATOM      1  O   UNL     1      35.103 -16.521 -20.354  0.00  0.00    -0.275 OA
ATOM      2  N   UNL     1      34.653 -18.248 -21.882  0.00  0.00    -0.284 N 
ATOM      3  C   UNL     1      34.879 -16.931 -21.488  0.00  0.00    +0.229 C 
ATOM      4  H   UNL     1      34.488 -18.392 -22.842  0.00  0.00    +0.155 HD
ENDROOT
BRANCH   2   5
ATOM      5  C   UNL     1      34.630 -19.401 -21.063  0.00  0.00    +0.051 C 
ATOM      6  C   UNL     1      35.825 -19.998 -20.699  0.00  0.00    +0.018 C 
ATOM      7  C   UNL     1      33.412 -19.909 -20.642  0.00  0.00    +0.018 C 
ATOM      8  C   UNL     1      34.584 -21.660 -19.460  0.00  0.00    +0.139 C 
ATOM      9  C   UNL     1      35.802 -21.136 -19.893  0.00  0.00    +0.038 C 
ATOM     10  C   UNL     1      33.388 -21.047 -19.835  0.00  0.00    +0.038 C 
BRANCH   8  11
ATOM     11  O   UNL     1      34.561 -22.769 -18.672  0.00  0.00    -0.475 OA
BRANCH  11  12
ATOM     12  C   UNL     1      33.386 -22.988 -17.893  0.00  0.00    +0.206 C 
ATOM     13  C   UNL     1      33.790 -23.302 -16.468  0.00  0.00    +0.051 C 
ENDBRANCH  11  12
ENDBRANCH   8  11
ENDBRANCH   2   5
BRANCH   3  14
ATOM     14  C   UNL     1      34.816 -15.996 -22.692  0.00  0.00    +0.114 C 
BRANCH  14  15
ATOM     15  C   UNL     1      34.129 -14.665 -22.381  0.00  0.00    +0.120 C 
ATOM     16  C   UNL     1      33.920 -13.847 -23.648  0.00  0.00    +0.032 C 
BRANCH  15  17
ATOM     17  O   UNL     1      32.856 -14.936 -21.799  0.00  0.00    -0.384 OA
ATOM     18  H   UNL     1      32.582 -15.839 -22.026  0.00  0.00    +0.210 HD
ENDBRANCH  15  17
ENDBRANCH  14  15
ENDBRANCH   3  14
TORSDOF 6
ENDMDL
MODEL 3
REMARK VINA RESULT:      -7.5      1.962      7.310
REMARK  Name = 14130
REMARK  6 active torsions:
REMARK  status: ('A' for Active; 'I' for Inactive)
REMARK    1  A    between atoms: N_2  and  C_5
REMARK    2  A    between atoms: C_3  and  C_14
REMARK    3  A    between atoms: C_8  and  O_11
REMARK    4  A    between atoms: O_11  and  C_12
REMARK    5  A    between atoms: C_14  and  C_15
REMARK    6  A    between atoms: C_15  and  O_17
REMARK                            x       y       z     vdW  Elec       q    Type
REMARK                         _______ _______ _______ _____ _____    ______ ____
ROOT
ATOM      1  O   UNL     1      32.839 -19.795 -21.109  0.00  0.00    -0.275 OA
ATOM      2  N   UNL     1      35.033 -19.330 -21.809  0.00  0.00    -0.284 N 
ATOM      3  C   UNL     1      34.055 -19.925 -21.016  0.00  0.00    +0.229 C 
ATOM      4  H   UNL     1      35.967 -19.550 -21.586  0.00  0.00    +0.155 HD
ENDROOT
BRANCH   2   5
ATOM      5  C   UNL     1      34.841 -18.446 -22.897  0.00  0.00    +0.051 C 
ATOM      6  C   UNL     1      34.595 -18.965 -24.157  0.00  0.00    +0.018 C 
ATOM      7  C   UNL     1      34.902 -17.080 -22.678  0.00  0.00    +0.018 C 
ATOM      8  C   UNL     1      34.466 -16.713 -25.026  0.00  0.00    +0.139 C 
ATOM      9  C   UNL     1      34.407 -18.092 -25.230  0.00  0.00    +0.038 C 
ATOM     10  C   UNL     1      34.714 -16.207 -23.750  0.00  0.00    +0.038 C 
BRANCH   8  11
ATOM     11  O   UNL     1      34.280 -15.863 -26.071  0.00  0.00    -0.475 OA
BRANCH  11  12
ATOM     12  C   UNL     1      33.055 -15.131 -26.104  0.00  0.00    +0.206 C 
ATOM     13  C   UNL     1      33.246 -13.887 -26.945  0.00  0.00    +0.051 C 
ENDBRANCH  11  12
ENDBRANCH   8  11
ENDBRANCH   2   5
BRANCH   3  14
ATOM     14  C   UNL     1      34.697 -20.810 -19.951  0.00  0.00    +0.114 C 
BRANCH  14  15
ATOM     15  C   UNL     1      33.762 -21.906 -19.439  0.00  0.00    +0.120 C 
ATOM     16  C   UNL     1      34.376 -22.641 -18.255  0.00  0.00    +0.032 C 
BRANCH  15  17
ATOM     17  O   UNL     1      32.542 -21.300 -19.017  0.00  0.00    -0.384 OA
ATOM     18  H   UNL     1      31.821 -21.946 -19.081  0.00  0.00    +0.210 HD
ENDBRANCH  15  17
ENDBRANCH  14  15
ENDBRANCH   3  14
TORSDOF 6
ENDMDL
MODEL 4
REMARK VINA RESULT:      -7.2      2.090      7.314
REMARK  Name = 14130
REMARK  6 active torsions:
REMARK  status: ('A' for Active; 'I' for Inactive)
REMARK    1  A    between atoms: N_2  and  C_5
REMARK    2  A    between atoms: C_3  and  C_14
REMARK    3  A    between atoms: C_8  and  O_11
REMARK    4  A    between atoms: O_11  and  C_12
REMARK    5  A    between atoms: C_14  and  C_15
REMARK    6  A    between atoms: C_15  and  O_17
REMARK                            x       y       z     vdW  Elec       q    Type
REMARK                         _______ _______ _______ _____ _____    ______ ____
ROOT
ATOM      1  O   UNL     1      33.377 -19.638 -21.615  0.00  0.00    -0.275 OA
ATOM      2  N   UNL     1      35.162 -18.332 -20.823  0.00  0.00    -0.284 N 
ATOM      3  C   UNL     1      34.404 -19.493 -20.960  0.00  0.00    +0.229 C 
ATOM      4  H   UNL     1      35.961 -18.400 -20.252  0.00  0.00    +0.155 HD
ENDROOT
BRANCH   2   5
ATOM      5  C   UNL     1      34.916 -17.067 -21.407  0.00  0.00    +0.051 C 
ATOM      6  C   UNL     1      35.063 -16.912 -22.775  0.00  0.00    +0.018 C 
ATOM      7  C   UNL     1      34.532 -16.011 -20.598  0.00  0.00    +0.018 C 
ATOM      8  C   UNL     1      34.434 -14.590 -22.550  0.00  0.00    +0.139 C 
ATOM      9  C   UNL     1      34.821 -15.664 -23.351  0.00  0.00    +0.038 C 
ATOM     10  C   UNL     1      34.290 -14.763 -21.173  0.00  0.00    +0.038 C 
BRANCH   8  11
ATOM     11  O   UNL     1      34.196 -13.373 -23.111  0.00  0.00    -0.475 OA
BRANCH  11  12
ATOM     12  C   UNL     1      33.540 -13.360 -24.379  0.00  0.00    +0.206 C 
ATOM     13  C   UNL     1      33.804 -12.031 -25.055  0.00  0.00    +0.051 C 
ENDBRANCH  11  12
ENDBRANCH   8  11
ENDBRANCH   2   5
BRANCH   3  14
ATOM     14  C   UNL     1      35.026 -20.633 -20.159  0.00  0.00    +0.114 C 
BRANCH  14  15
ATOM     15  C   UNL     1      33.997 -21.657 -19.677  0.00  0.00    +0.120 C 
ATOM     16  C   UNL     1      34.500 -22.401 -18.447  0.00  0.00    +0.032 C 
BRANCH  15  17
ATOM     17  O   UNL     1      32.798 -20.966 -19.332  0.00  0.00    -0.384 OA
ATOM     18  H   UNL     1      32.034 -21.444 -19.692  0.00  0.00    +0.210 HD
ENDBRANCH  15  17
ENDBRANCH  14  15
ENDBRANCH   3  14
TORSDOF 6
ENDMDL
MODEL 5
REMARK VINA RESULT:      -7.2      3.130      4.899
REMARK  Name = 14130
REMARK  6 active torsions:
REMARK  status: ('A' for Active; 'I' for Inactive)
REMARK    1  A    between atoms: N_2  and  C_5
REMARK    2  A    between atoms: C_3  and  C_14
REMARK    3  A    between atoms: C_8  and  O_11
REMARK    4  A    between atoms: O_11  and  C_12
REMARK    5  A    between atoms: C_14  and  C_15
REMARK    6  A    between atoms: C_15  and  O_17
REMARK                            x       y       z     vdW  Elec       q    Type
REMARK                         _______ _______ _______ _____ _____    ______ ____
ROOT
ATOM      1  O   UNL     1      32.222 -13.542 -23.514  0.00  0.00    -0.275 OA
ATOM      2  N   UNL     1      34.524 -13.896 -23.211  0.00  0.00    -0.284 N 
ATOM      3  C   UNL     1      33.383 -13.145 -23.480  0.00  0.00    +0.229 C 
ATOM      4  H   UNL     1      35.380 -13.408 -23.227  0.00  0.00    +0.155 HD
ENDROOT
BRANCH   2   5
ATOM      5  C   UNL     1      34.599 -15.279 -22.919  0.00  0.00    +0.051 C 
ATOM      6  C   UNL     1      34.516 -15.699 -21.602  0.00  0.00    +0.018 C 
ATOM      7  C   UNL     1      34.753 -16.182 -23.957  0.00  0.00    +0.018 C 
ATOM      8  C   UNL     1      34.746 -17.986 -22.349  0.00  0.00    +0.139 C 
ATOM      9  C   UNL     1      34.591 -17.062 -21.315  0.00  0.00    +0.038 C 
ATOM     10  C   UNL     1      34.828 -17.546 -23.670  0.00  0.00    +0.038 C 
BRANCH   8  11
ATOM     11  O   UNL     1      34.817 -19.315 -22.069  0.00  0.00    -0.475 OA
BRANCH  11  12
ATOM     12  C   UNL     1      34.502 -19.716 -20.736  0.00  0.00    +0.206 C 
ATOM     13  C   UNL     1      33.067 -20.195 -20.691  0.00  0.00    +0.051 C 
ENDBRANCH  11  12
ENDBRANCH   8  11
ENDBRANCH   2   5
BRANCH   3  14
ATOM     14  C   UNL     1      33.752 -11.688 -23.743  0.00  0.00    +0.114 C 
BRANCH  14  15
ATOM     15  C   UNL     1      33.809 -11.345 -25.232  0.00  0.00    +0.120 C 
ATOM     16  C   UNL     1      35.114 -10.640 -25.581  0.00  0.00    +0.032 C 
BRANCH  15  17
ATOM     17  O   UNL     1      33.732 -12.556 -25.980  0.00  0.00    -0.384 OA
ATOM     18  H   UNL     1      32.974 -13.078 -25.674  0.00  0.00    +0.210 HD
ENDBRANCH  15  17
ENDBRANCH  14  15
ENDBRANCH   3  14
TORSDOF 6
ENDMDL
MODEL 6
REMARK VINA RESULT:      -7.1      6.873      9.471
REMARK  Name = 14130
REMARK  6 active torsions:
REMARK  status: ('A' for Active; 'I' for Inactive)
REMARK    1  A    between atoms: N_2  and  C_5
REMARK    2  A    between atoms: C_3  and  C_14
REMARK    3  A    between atoms: C_8  and  O_11
REMARK    4  A    between atoms: O_11  and  C_12
REMARK    5  A    between atoms: C_14  and  C_15
REMARK    6  A    between atoms: C_15  and  O_17
REMARK                            x       y       z     vdW  Elec       q    Type
REMARK                         _______ _______ _______ _____ _____    ______ ____
ROOT
ATOM      1  O   UNL     1      35.828 -26.212 -15.605  0.00  0.00    -0.275 OA
ATOM      2  N   UNL     1      35.529 -23.982 -14.929  0.00  0.00    -0.284 N 
ATOM      3  C   UNL     1      36.214 -25.189 -15.050  0.00  0.00    +0.229 C 
ATOM      4  H   UNL     1      35.997 -23.263 -14.445  0.00  0.00    +0.155 HD
ENDROOT
BRANCH   2   5
ATOM      5  C   UNL     1      34.239 -23.670 -15.418  0.00  0.00    +0.051 C 
ATOM      6  C   UNL     1      33.166 -23.663 -14.543  0.00  0.00    +0.018 C 
ATOM      7  C   UNL     1      34.077 -23.378 -16.762  0.00  0.00    +0.018 C 
ATOM      8  C   UNL     1      31.712 -23.060 -16.377  0.00  0.00    +0.139 C 
ATOM      9  C   UNL     1      31.893 -23.357 -15.026  0.00  0.00    +0.038 C 
ATOM     10  C   UNL     1      32.804 -23.071 -17.246  0.00  0.00    +0.038 C 
BRANCH   8  11
ATOM     11  O   UNL     1      30.472 -22.759 -16.848  0.00  0.00    -0.475 OA
BRANCH  11  12
ATOM     12  C   UNL     1      29.374 -23.489 -16.301  0.00  0.00    +0.206 C 
ATOM     13  C   UNL     1      28.331 -22.511 -15.805  0.00  0.00    +0.051 C 
ENDBRANCH  11  12
ENDBRANCH   8  11
ENDBRANCH   2   5
BRANCH   3  14
ATOM     14  C   UNL     1      37.581 -25.096 -14.376  0.00  0.00    +0.114 C 
BRANCH  14  15
ATOM     15  C   UNL     1      37.552 -25.508 -12.904  0.00  0.00    +0.120 C 
ATOM     16  C   UNL     1      38.035 -24.375 -12.009  0.00  0.00    +0.032 C 
BRANCH  15  17
ATOM     17  O   UNL     1      36.208 -25.828 -12.548  0.00  0.00    -0.384 OA
ATOM     18  H   UNL     1      35.607 -25.170 -12.932  0.00  0.00    +0.210 HD
ENDBRANCH  15  17
ENDBRANCH  14  15
ENDBRANCH   3  14
TORSDOF 6
ENDMDL
MODEL 7
REMARK VINA RESULT:      -7.0      2.251      3.490
REMARK  Name = 14130
REMARK  6 active torsions:
REMARK  status: ('A' for Active; 'I' for Inactive)
REMARK    1  A    between atoms: N_2  and  C_5
REMARK    2  A    between atoms: C_3  and  C_14
REMARK    3  A    between atoms: C_8  and  O_11
REMARK    4  A    between atoms: O_11  and  C_12
REMARK    5  A    between atoms: C_14  and  C_15
REMARK    6  A    between atoms: C_15  and  O_17
REMARK                            x       y       z     vdW  Elec       q    Type
REMARK                         _______ _______ _______ _____ _____    ______ ____
ROOT
ATOM      1  O   UNL     1      32.740 -14.700 -22.800  0.00  0.00    -0.275 OA
ATOM      2  N   UNL     1      34.498 -15.782 -23.921  0.00  0.00    -0.284 N 
ATOM      3  C   UNL     1      33.547 -14.784 -23.719  0.00  0.00    +0.229 C 
ATOM      4  H   UNL     1      35.065 -15.687 -24.721  0.00  0.00    +0.155 HD
ENDROOT
BRANCH   2   5
ATOM      5  C   UNL     1      34.742 -16.917 -23.113  0.00  0.00    +0.051 C 
ATOM      6  C   UNL     1      34.628 -18.181 -23.667  0.00  0.00    +0.018 C 
ATOM      7  C   UNL     1      35.089 -16.739 -21.784  0.00  0.00    +0.018 C 
ATOM      8  C   UNL     1      35.219 -19.139 -21.528  0.00  0.00    +0.139 C 
ATOM      9  C   UNL     1      34.867 -19.300 -22.869  0.00  0.00    +0.038 C 
ATOM     10  C   UNL     1      35.329 -17.858 -20.985  0.00  0.00    +0.038 C 
BRANCH   8  11
ATOM     11  O   UNL     1      35.454 -20.230 -20.750  0.00  0.00    -0.475 OA
BRANCH  11  12
ATOM     12  C   UNL     1      34.333 -20.804 -20.079  0.00  0.00    +0.206 C 
ATOM     13  C   UNL     1      34.812 -21.945 -19.208  0.00  0.00    +0.051 C 
ENDBRANCH  11  12
ENDBRANCH   8  11
ENDBRANCH   2   5
BRANCH   3  14
ATOM     14  C   UNL     1      33.622 -13.743 -24.833  0.00  0.00    +0.114 C 
BRANCH  14  15
ATOM     15  C   UNL     1      32.953 -14.203 -26.129  0.00  0.00    +0.120 C 
ATOM     16  C   UNL     1      33.159 -13.184 -27.242  0.00  0.00    +0.032 C 
BRANCH  15  17
ATOM     17  O   UNL     1      33.540 -15.439 -26.529  0.00  0.00    -0.384 OA
ATOM     18  H   UNL     1      34.080 -15.791 -25.803  0.00  0.00    +0.210 HD
ENDBRANCH  15  17
ENDBRANCH  14  15
ENDBRANCH   3  14
TORSDOF 6
ENDMDL
MODEL 8
REMARK VINA RESULT:      -7.0      3.580      5.257
REMARK  Name = 14130
REMARK  6 active torsions:
REMARK  status: ('A' for Active; 'I' for Inactive)
REMARK    1  A    between atoms: N_2  and  C_5
REMARK    2  A    between atoms: C_3  and  C_14
REMARK    3  A    between atoms: C_8  and  O_11
REMARK    4  A    between atoms: O_11  and  C_12
REMARK    5  A    between atoms: C_14  and  C_15
REMARK    6  A    between atoms: C_15  and  O_17
REMARK                            x       y       z     vdW  Elec       q    Type
REMARK                         _______ _______ _______ _____ _____    ______ ____
ROOT
ATOM      1  O   UNL     1      32.267 -13.296 -23.129  0.00  0.00    -0.275 OA
ATOM      2  N   UNL     1      34.511 -13.890 -23.488  0.00  0.00    -0.284 N 
ATOM      3  C   UNL     1      33.375 -13.095 -23.616  0.00  0.00    +0.229 C 
ATOM      4  H   UNL     1      35.319 -13.571 -23.953  0.00  0.00    +0.155 HD
ENDROOT
BRANCH   2   5
ATOM      5  C   UNL     1      34.640 -15.102 -22.771  0.00  0.00    +0.051 C 
ATOM      6  C   UNL     1      34.496 -15.094 -21.394  0.00  0.00    +0.018 C 
ATOM      7  C   UNL     1      34.906 -16.273 -23.462  0.00  0.00    +0.018 C 
ATOM      8  C   UNL     1      34.892 -17.478 -21.368  0.00  0.00    +0.139 C 
ATOM      9  C   UNL     1      34.623 -16.290 -20.687  0.00  0.00    +0.038 C 
ATOM     10  C   UNL     1      35.034 -17.469 -22.756  0.00  0.00    +0.038 C 
BRANCH   8  11
ATOM     11  O   UNL     1      35.015 -18.645 -20.679  0.00  0.00    -0.475 OA
BRANCH  11  12
ATOM     12  C   UNL     1      34.297 -19.773 -21.179  0.00  0.00    +0.206 C 
ATOM     13  C   UNL     1      32.901 -19.767 -20.595  0.00  0.00    +0.051 C 
ENDBRANCH  11  12
ENDBRANCH   8  11
ENDBRANCH   2   5
BRANCH   3  14
ATOM     14  C   UNL     1      33.673 -11.872 -24.479  0.00  0.00    +0.114 C 
BRANCH  14  15
ATOM     15  C   UNL     1      33.814 -10.585 -23.666  0.00  0.00    +0.120 C 
ATOM     16  C   UNL     1      34.671  -9.563 -24.401  0.00  0.00    +0.032 C 
BRANCH  15  17
ATOM     17  O   UNL     1      32.515 -10.030 -23.466  0.00  0.00    -0.384 OA
ATOM     18  H   UNL     1      32.567  -9.062 -23.509  0.00  0.00    +0.210 HD
ENDBRANCH  15  17
ENDBRANCH  14  15
ENDBRANCH   3  14
TORSDOF 6
ENDMDL
MODEL 9
REMARK VINA RESULT:      -6.9      4.092      8.226
REMARK  Name = 14130
REMARK  6 active torsions:
REMARK  status: ('A' for Active; 'I' for Inactive)
REMARK    1  A    between atoms: N_2  and  C_5
REMARK    2  A    between atoms: C_3  and  C_14
REMARK    3  A    between atoms: C_8  and  O_11
REMARK    4  A    between atoms: O_11  and  C_12
REMARK    5  A    between atoms: C_14  and  C_15
REMARK    6  A    between atoms: C_15  and  O_17
REMARK                            x       y       z     vdW  Elec       q    Type
REMARK                         _______ _______ _______ _____ _____    ______ ____
ROOT
ATOM      1  O   UNL     1      34.966 -15.576 -20.324  0.00  0.00    -0.275 OA
ATOM      2  N   UNL     1      33.610 -15.633 -22.241  0.00  0.00    -0.284 N 
ATOM      3  C   UNL     1      34.434 -16.170 -21.256  0.00  0.00    +0.229 C 
ATOM      4  H   UNL     1      33.271 -16.265 -22.917  0.00  0.00    +0.155 HD
ENDROOT
BRANCH   2   5
ATOM      5  C   UNL     1      33.205 -14.285 -22.386  0.00  0.00    +0.051 C 
ATOM      6  C   UNL     1      33.720 -13.531 -23.426  0.00  0.00    +0.018 C 
ATOM      7  C   UNL     1      32.300 -13.750 -21.484  0.00  0.00    +0.018 C 
ATOM      8  C   UNL     1      32.410 -11.646 -22.668  0.00  0.00    +0.139 C 
ATOM      9  C   UNL     1      33.320 -12.201 -23.568  0.00  0.00    +0.038 C 
ATOM     10  C   UNL     1      31.900 -12.420 -21.625  0.00  0.00    +0.038 C 
BRANCH   8  11
ATOM     11  O   UNL     1      32.019 -10.351 -22.807  0.00  0.00    -0.475 OA
BRANCH  11  12
ATOM     12  C   UNL     1      31.845  -9.592 -21.610  0.00  0.00    +0.206 C 
ATOM     13  C   UNL     1      32.544  -8.259 -21.765  0.00  0.00    +0.051 C 
ENDBRANCH  11  12
ENDBRANCH   8  11
ENDBRANCH   2   5
BRANCH   3  14
ATOM     14  C   UNL     1      34.617 -17.670 -21.472  0.00  0.00    +0.114 C 
BRANCH  14  15
ATOM     15  C   UNL     1      35.585 -17.998 -22.609  0.00  0.00    +0.120 C 
ATOM     16  C   UNL     1      34.917 -18.870 -23.663  0.00  0.00    +0.032 C 
BRANCH  15  17
ATOM     17  O   UNL     1      35.995 -16.777 -23.222  0.00  0.00    -0.384 OA
ATOM     18  H   UNL     1      35.212 -16.277 -23.503  0.00  0.00    +0.210 HD
ENDBRANCH  15  17
ENDBRANCH  14  15
ENDBRANCH   3  14
TORSDOF 6
ENDMDL
