MODEL 1
REMARK VINA RESULT:     -11.5      0.000      0.000
REMARK  Name = 71451950
REMARK  5 active torsions:
REMARK  status: ('A' for Active; 'I' for Inactive)
REMARK    1  A    between atoms: N_4  and  C_18
REMARK    2  A    between atoms: C_18  and  C_20
REMARK    3  A    between atoms: N_19  and  C_26
REMARK    4  A    between atoms: C_26  and  C_28
REMARK    5  A    between atoms: C_28  and  O_33
REMARK                            x       y       z     vdW  Elec       q    Type
REMARK                         _______ _______ _______ _____ _____    ______ ____
ROOT
ATOM      1  F   UNL     1      29.466 -23.879 -15.016  0.00  0.00    -0.204 F 
ATOM      2  O   UNL     1      32.713 -22.606 -18.463  0.00  0.00    -0.252 OA
ATOM      3  O   UNL     1      36.435 -23.319 -16.454  0.00  0.00    -0.274 OA
ATOM      4  N   UNL     1      34.996 -22.534 -18.673  0.00  0.00    -0.288 N 
ATOM      5  N   UNL     1      34.053 -23.262 -16.640  0.00  0.00    -0.192 N 
ATOM      6  C   UNL     1      35.038 -24.014 -14.575  0.00  0.00    +0.090 C 
ATOM      7  C   UNL     1      33.537 -24.041 -14.527  0.00  0.00    -0.000 C 
ATOM      8  C   UNL     1      33.823 -22.786 -17.960  0.00  0.00    +0.314 C 
ATOM      9  C   UNL     1      35.313 -23.491 -15.997  0.00  0.00    +0.239 C 
ATOM     10  C   UNL     1      33.005 -23.598 -15.740  0.00  0.00    +0.061 C 
ATOM     11  C   UNL     1      35.623 -23.040 -13.551  0.00  0.00    +0.014 C 
ATOM     12  C   UNL     1      35.638 -25.413 -14.420  0.00  0.00    +0.014 C 
ATOM     13  C   UNL     1      32.718 -24.432 -13.476  0.00  0.00    -0.000 C 
ATOM     14  C   UNL     1      31.629 -23.537 -15.917  0.00  0.00    +0.045 C 
ATOM     15  C   UNL     1      31.336 -24.374 -13.650  0.00  0.00    +0.029 C 
ATOM     16  C   UNL     1      30.797 -23.930 -14.863  0.00  0.00    +0.141 C 
ATOM     17  H   UNL     1      35.861 -22.692 -18.233  0.00  0.00    +0.151 HD
ENDROOT
BRANCH   4  18
ATOM     18  C   UNL     1      34.982 -22.051 -20.033  0.00  0.00    +0.091 C 
BRANCH  18  20
ATOM     19  N   UNL     1      34.429 -18.085 -21.652  0.00  0.00    +0.388 N 
ATOM     20  C   UNL     1      34.790 -20.537 -20.088  0.00  0.00    +0.015 C 
ATOM     21  C   UNL     1      33.458 -20.176 -20.754  0.00  0.00    -0.021 C 
ATOM     22  C   UNL     1      35.944 -19.862 -20.838  0.00  0.00    -0.021 C 
ATOM     23  C   UNL     1      33.305 -18.660 -20.902  0.00  0.00    -0.077 C 
ATOM     24  C   UNL     1      35.707 -18.358 -20.983  0.00  0.00    -0.077 C 
ATOM     25  H   UNL     1      34.454 -18.527 -22.571  0.00  0.00    -0.080 HD
BRANCH  19  26
ATOM     26  C   UNL     1      34.242 -16.646 -21.831  0.00  0.00    -0.050 C 
BRANCH  26  28
ATOM     27  O   UNL     1      33.319 -16.034 -25.951  0.00  0.00    -0.354 OA
ATOM     28  C   UNL     1      34.436 -16.232 -23.290  0.00  0.00    +0.074 C 
ATOM     29  C   UNL     1      33.429 -15.147 -23.690  0.00  0.00    +0.057 C 
ATOM     30  C   UNL     1      34.305 -17.439 -24.230  0.00  0.00    +0.057 C 
ATOM     31  C   UNL     1      33.505 -14.844 -25.184  0.00  0.00    +0.144 C 
ATOM     32  C   UNL     1      34.334 -17.003 -25.693  0.00  0.00    +0.144 C 
BRANCH  28  33
ATOM     33  O   UNL     1      35.750 -15.682 -23.418  0.00  0.00    -0.389 OA
ATOM     34  H   UNL     1      35.808 -15.170 -24.240  0.00  0.00    +0.210 HD
ENDBRANCH  28  33
ENDBRANCH  26  28
ENDBRANCH  19  26
ENDBRANCH  18  20
ENDBRANCH   4  18
TORSDOF 5
ENDMDL
MODEL 2
REMARK VINA RESULT:     -10.8      5.434     11.645
REMARK  Name = 71451950
REMARK  5 active torsions:
REMARK  status: ('A' for Active; 'I' for Inactive)
REMARK    1  A    between atoms: N_4  and  C_18
REMARK    2  A    between atoms: C_18  and  C_20
REMARK    3  A    between atoms: N_19  and  C_26
REMARK    4  A    between atoms: C_26  and  C_28
REMARK    5  A    between atoms: C_28  and  O_33
REMARK                            x       y       z     vdW  Elec       q    Type
REMARK                         _______ _______ _______ _____ _____    ______ ____
ROOT
ATOM      1  F   UNL     1      34.304  -7.341 -24.186  0.00  0.00    -0.204 F 
ATOM      2  O   UNL     1      34.064 -12.108 -25.311  0.00  0.00    -0.252 OA
ATOM      3  O   UNL     1      31.712 -13.646 -22.070  0.00  0.00    -0.274 OA
ATOM      4  N   UNL     1      33.110 -13.995 -24.423  0.00  0.00    -0.288 N 
ATOM      5  N   UNL     1      32.836 -11.938 -23.307  0.00  0.00    -0.192 N 
ATOM      6  C   UNL     1      31.675 -11.333 -21.286  0.00  0.00    +0.090 C 
ATOM      7  C   UNL     1      32.323 -10.147 -21.941  0.00  0.00    -0.000 C 
ATOM      8  C   UNL     1      33.394 -12.629 -24.418  0.00  0.00    +0.314 C 
ATOM      9  C   UNL     1      32.052 -12.482 -22.239  0.00  0.00    +0.239 C 
ATOM     10  C   UNL     1      32.985 -10.538 -23.108  0.00  0.00    +0.061 C 
ATOM     11  C   UNL     1      32.260 -11.608 -19.899  0.00  0.00    +0.014 C 
ATOM     12  C   UNL     1      30.153 -11.193 -21.231  0.00  0.00    +0.014 C 
ATOM     13  C   UNL     1      32.317  -8.824 -21.520  0.00  0.00    -0.000 C 
ATOM     14  C   UNL     1      33.660  -9.599 -23.875  0.00  0.00    +0.045 C 
ATOM     15  C   UNL     1      32.992  -7.877 -22.289  0.00  0.00    +0.029 C 
ATOM     16  C   UNL     1      33.659  -8.263 -23.458  0.00  0.00    +0.141 C 
ATOM     17  H   UNL     1      32.571 -14.370 -23.690  0.00  0.00    +0.151 HD
ENDROOT
BRANCH   4  18
ATOM     18  C   UNL     1      33.579 -14.876 -25.466  0.00  0.00    +0.091 C 
BRANCH  18  20
ATOM     19  N   UNL     1      34.799 -18.355 -23.216  0.00  0.00    +0.388 N 
ATOM     20  C   UNL     1      34.468 -15.983 -24.906  0.00  0.00    +0.015 C 
ATOM     21  C   UNL     1      33.950 -17.366 -25.319  0.00  0.00    -0.021 C 
ATOM     22  C   UNL     1      34.559 -15.898 -23.379  0.00  0.00    -0.021 C 
ATOM     23  C   UNL     1      34.777 -18.482 -24.679  0.00  0.00    -0.077 C 
ATOM     24  C   UNL     1      35.366 -17.064 -22.805  0.00  0.00    -0.077 C 
ATOM     25  H   UNL     1      33.836 -18.396 -22.882  0.00  0.00    -0.080 HD
BRANCH  19  26
ATOM     26  C   UNL     1      35.549 -19.458 -22.616  0.00  0.00    -0.050 C 
BRANCH  26  28
ATOM     27  O   UNL     1      33.574 -21.655 -19.539  0.00  0.00    -0.354 OA
ATOM     28  C   UNL     1      35.023 -19.802 -21.223  0.00  0.00    +0.074 C 
ATOM     29  C   UNL     1      35.632 -21.116 -20.717  0.00  0.00    +0.057 C 
ATOM     30  C   UNL     1      33.490 -19.900 -21.218  0.00  0.00    +0.057 C 
ATOM     31  C   UNL     1      34.992 -21.553 -19.402  0.00  0.00    +0.144 C 
ATOM     32  C   UNL     1      32.975 -20.404 -19.873  0.00  0.00    +0.144 C 
BRANCH  28  33
ATOM     33  O   UNL     1      35.426 -18.759 -20.333  0.00  0.00    -0.389 OA
ATOM     34  H   UNL     1      34.665 -18.471 -19.805  0.00  0.00    +0.210 HD
ENDBRANCH  28  33
ENDBRANCH  26  28
ENDBRANCH  19  26
ENDBRANCH  18  20
ENDBRANCH   4  18
TORSDOF 5
ENDMDL
MODEL 3
REMARK VINA RESULT:     -10.5      5.831     12.435
REMARK  Name = 71451950
REMARK  5 active torsions:
REMARK  status: ('A' for Active; 'I' for Inactive)
REMARK    1  A    between atoms: N_4  and  C_18
REMARK    2  A    between atoms: C_18  and  C_20
REMARK    3  A    between atoms: N_19  and  C_26
REMARK    4  A    between atoms: C_26  and  C_28
REMARK    5  A    between atoms: C_28  and  O_33
REMARK                            x       y       z     vdW  Elec       q    Type
REMARK                         _______ _______ _______ _____ _____    ______ ____
ROOT
ATOM      1  F   UNL     1      31.079  -8.215 -18.560  0.00  0.00    -0.204 F 
ATOM      2  O   UNL     1      31.812 -11.980 -21.616  0.00  0.00    -0.252 OA
ATOM      3  O   UNL     1      33.845 -10.069 -24.874  0.00  0.00    -0.274 OA
ATOM      4  N   UNL     1      32.785 -12.311 -23.666  0.00  0.00    -0.288 N 
ATOM      5  N   UNL     1      32.762 -10.143 -22.745  0.00  0.00    -0.192 N 
ATOM      6  C   UNL     1      33.612  -8.035 -23.541  0.00  0.00    +0.090 C 
ATOM      7  C   UNL     1      32.965  -7.909 -22.192  0.00  0.00    -0.000 C 
ATOM      8  C   UNL     1      32.401 -11.509 -22.590  0.00  0.00    +0.314 C 
ATOM      9  C   UNL     1      33.444  -9.534 -23.848  0.00  0.00    +0.239 C 
ATOM     10  C   UNL     1      32.486  -9.150 -21.765  0.00  0.00    +0.061 C 
ATOM     11  C   UNL     1      32.879  -7.212 -24.603  0.00  0.00    +0.014 C 
ATOM     12  C   UNL     1      35.100  -7.686 -23.495  0.00  0.00    +0.014 C 
ATOM     13  C   UNL     1      32.819  -6.769 -21.412  0.00  0.00    -0.000 C 
ATOM     14  C   UNL     1      31.845  -9.266 -20.540  0.00  0.00    +0.045 C 
ATOM     15  C   UNL     1      32.178  -6.882 -20.180  0.00  0.00    +0.029 C 
ATOM     16  C   UNL     1      31.694  -8.123 -19.747  0.00  0.00    +0.141 C 
ATOM     17  H   UNL     1      33.253 -11.895 -24.424  0.00  0.00    +0.151 HD
ENDROOT
BRANCH   4  18
ATOM     18  C   UNL     1      32.518 -13.730 -23.704  0.00  0.00    +0.091 C 
BRANCH  18  20
ATOM     19  N   UNL     1      34.646 -17.053 -21.950  0.00  0.00    +0.388 N 
ATOM     20  C   UNL     1      33.640 -14.528 -23.047  0.00  0.00    +0.015 C 
ATOM     21  C   UNL     1      34.079 -15.695 -23.938  0.00  0.00    -0.021 C 
ATOM     22  C   UNL     1      33.210 -15.058 -21.675  0.00  0.00    -0.021 C 
ATOM     23  C   UNL     1      35.134 -16.559 -23.243  0.00  0.00    -0.077 C 
ATOM     24  C   UNL     1      34.294 -15.942 -21.056  0.00  0.00    -0.077 C 
ATOM     25  H   UNL     1      33.801 -17.600 -22.119  0.00  0.00    -0.080 HD
BRANCH  19  26
ATOM     26  C   UNL     1      35.644 -17.919 -21.322  0.00  0.00    -0.050 C 
BRANCH  26  28
ATOM     27  O   UNL     1      34.152 -21.434 -19.420  0.00  0.00    -0.354 OA
ATOM     28  C   UNL     1      35.130 -19.351 -21.173  0.00  0.00    +0.074 C 
ATOM     29  C   UNL     1      33.702 -19.364 -20.614  0.00  0.00    +0.057 C 
ATOM     30  C   UNL     1      36.053 -20.180 -20.268  0.00  0.00    +0.057 C 
ATOM     31  C   UNL     1      33.240 -20.787 -20.308  0.00  0.00    +0.144 C 
ATOM     32  C   UNL     1      35.457 -21.556 -19.985  0.00  0.00    +0.144 C 
BRANCH  28  33
ATOM     33  O   UNL     1      35.098 -19.943 -22.475  0.00  0.00    -0.389 OA
ATOM     34  H   UNL     1      34.200 -20.255 -22.667  0.00  0.00    +0.210 HD
ENDBRANCH  28  33
ENDBRANCH  26  28
ENDBRANCH  19  26
ENDBRANCH  18  20
ENDBRANCH   4  18
TORSDOF 5
ENDMDL
MODEL 4
REMARK VINA RESULT:      -9.9      5.371     11.727
REMARK  Name = 71451950
REMARK  5 active torsions:
REMARK  status: ('A' for Active; 'I' for Inactive)
REMARK    1  A    between atoms: N_4  and  C_18
REMARK    2  A    between atoms: C_18  and  C_20
REMARK    3  A    between atoms: N_19  and  C_26
REMARK    4  A    between atoms: C_26  and  C_28
REMARK    5  A    between atoms: C_28  and  O_33
REMARK                            x       y       z     vdW  Elec       q    Type
REMARK                         _______ _______ _______ _____ _____    ______ ____
ROOT
ATOM      1  F   UNL     1      34.106  -7.389 -24.524  0.00  0.00    -0.204 F 
ATOM      2  O   UNL     1      34.216 -12.290 -24.649  0.00  0.00    -0.252 OA
ATOM      3  O   UNL     1      31.758 -13.299 -21.281  0.00  0.00    -0.274 OA
ATOM      4  N   UNL     1      33.319 -14.019 -23.438  0.00  0.00    -0.288 N 
ATOM      5  N   UNL     1      32.856 -11.803 -22.788  0.00  0.00    -0.192 N 
ATOM      6  C   UNL     1      31.536 -10.883 -20.995  0.00  0.00    +0.090 C 
ATOM      7  C   UNL     1      32.153  -9.812 -21.849  0.00  0.00    -0.000 C 
ATOM      8  C   UNL     1      33.523 -12.664 -23.702  0.00  0.00    +0.314 C 
ATOM      9  C   UNL     1      32.039 -12.172 -21.670  0.00  0.00    +0.239 C 
ATOM     10  C   UNL     1      32.910 -10.385 -22.875  0.00  0.00    +0.061 C 
ATOM     11  C   UNL     1      32.047 -10.828 -19.555  0.00  0.00    +0.014 C 
ATOM     12  C   UNL     1      30.008 -10.842 -21.047  0.00  0.00    +0.014 C 
ATOM     13  C   UNL     1      32.044  -8.435 -21.712  0.00  0.00    -0.000 C 
ATOM     14  C   UNL     1      33.576  -9.576 -23.785  0.00  0.00    +0.045 C 
ATOM     15  C   UNL     1      32.710  -7.619 -22.625  0.00  0.00    +0.029 C 
ATOM     16  C   UNL     1      33.470  -8.187 -23.654  0.00  0.00    +0.141 C 
ATOM     17  H   UNL     1      32.758 -14.274 -22.672  0.00  0.00    +0.151 HD
ENDROOT
BRANCH   4  18
ATOM     18  C   UNL     1      33.904 -15.059 -24.252  0.00  0.00    +0.091 C 
BRANCH  18  20
ATOM     19  N   UNL     1      35.332 -18.271 -21.743  0.00  0.00    +0.388 N 
ATOM     20  C   UNL     1      34.861 -15.931 -23.444  0.00  0.00    +0.015 C 
ATOM     21  C   UNL     1      34.909 -17.358 -24.003  0.00  0.00    -0.021 C 
ATOM     22  C   UNL     1      34.460 -15.967 -21.966  0.00  0.00    -0.021 C 
ATOM     23  C   UNL     1      35.789 -18.263 -23.138  0.00  0.00    -0.077 C 
ATOM     24  C   UNL     1      35.355 -16.918 -21.170  0.00  0.00    -0.077 C 
ATOM     25  H   UNL     1      34.367 -18.602 -21.728  0.00  0.00    -0.080 HD
BRANCH  19  26
ATOM     26  C   UNL     1      36.149 -19.181 -20.940  0.00  0.00    -0.050 C 
BRANCH  26  28
ATOM     27  O   UNL     1      33.710 -21.838 -18.662  0.00  0.00    -0.354 OA
ATOM     28  C   UNL     1      35.380 -20.450 -20.574  0.00  0.00    +0.074 C 
ATOM     29  C   UNL     1      33.884 -20.155 -20.409  0.00  0.00    +0.057 C 
ATOM     30  C   UNL     1      35.934 -21.081 -19.287  0.00  0.00    +0.057 C 
ATOM     31  C   UNL     1      33.134 -21.376 -19.884  0.00  0.00    +0.144 C 
ATOM     32  C   UNL     1      35.066 -22.250 -18.830  0.00  0.00    +0.144 C 
BRANCH  28  33
ATOM     33  O   UNL     1      35.530 -21.379 -21.650  0.00  0.00    -0.389 OA
ATOM     34  H   UNL     1      34.658 -21.589 -22.020  0.00  0.00    +0.210 HD
ENDBRANCH  28  33
ENDBRANCH  26  28
ENDBRANCH  19  26
ENDBRANCH  18  20
ENDBRANCH   4  18
TORSDOF 5
ENDMDL
MODEL 5
REMARK VINA RESULT:      -9.7      6.527     13.302
REMARK  Name = 71451950
REMARK  5 active torsions:
REMARK  status: ('A' for Active; 'I' for Inactive)
REMARK    1  A    between atoms: N_4  and  C_18
REMARK    2  A    between atoms: C_18  and  C_20
REMARK    3  A    between atoms: N_19  and  C_26
REMARK    4  A    between atoms: C_26  and  C_28
REMARK    5  A    between atoms: C_28  and  O_33
REMARK                            x       y       z     vdW  Elec       q    Type
REMARK                         _______ _______ _______ _____ _____    ______ ____
ROOT
ATOM      1  F   UNL     1      29.375  -5.903 -22.094  0.00  0.00    -0.204 F 
ATOM      2  O   UNL     1      30.976 -10.534 -22.285  0.00  0.00    -0.252 OA
ATOM      3  O   UNL     1      34.850 -10.040 -24.059  0.00  0.00    -0.274 OA
ATOM      4  N   UNL     1      32.866 -11.628 -22.985  0.00  0.00    -0.288 N 
ATOM      5  N   UNL     1      32.746  -9.287 -23.212  0.00  0.00    -0.192 N 
ATOM      6  C   UNL     1      34.298  -7.661 -24.078  0.00  0.00    +0.090 C 
ATOM      7  C   UNL     1      33.030  -7.024 -23.584  0.00  0.00    -0.000 C 
ATOM      8  C   UNL     1      32.099 -10.479 -22.787  0.00  0.00    +0.314 C 
ATOM      9  C   UNL     1      34.045  -9.154 -23.802  0.00  0.00    +0.239 C 
ATOM     10  C   UNL     1      32.158  -7.997 -23.092  0.00  0.00    +0.061 C 
ATOM     11  C   UNL     1      34.497  -7.445 -25.579  0.00  0.00    +0.014 C 
ATOM     12  C   UNL     1      35.517  -7.193 -23.281  0.00  0.00    +0.014 C 
ATOM     13  C   UNL     1      32.690  -5.678 -23.581  0.00  0.00    -0.000 C 
ATOM     14  C   UNL     1      30.918  -7.631 -22.586  0.00  0.00    +0.045 C 
ATOM     15  C   UNL     1      31.447  -5.305 -23.073  0.00  0.00    +0.029 C 
ATOM     16  C   UNL     1      30.567  -6.277 -22.579  0.00  0.00    +0.141 C 
ATOM     17  H   UNL     1      33.759 -11.539 -23.389  0.00  0.00    +0.151 HD
ENDROOT
BRANCH   4  18
ATOM     18  C   UNL     1      32.395 -12.942 -22.615  0.00  0.00    +0.091 C 
BRANCH  18  20
ATOM     19  N   UNL     1      34.527 -16.626 -21.879  0.00  0.00    +0.388 N 
ATOM     20  C   UNL     1      33.555 -13.905 -22.375  0.00  0.00    +0.015 C 
ATOM     21  C   UNL     1      33.625 -14.967 -23.478  0.00  0.00    -0.021 C 
ATOM     22  C   UNL     1      33.432 -14.586 -21.007  0.00  0.00    -0.021 C 
ATOM     23  C   UNL     1      34.722 -15.995 -23.190  0.00  0.00    -0.077 C 
ATOM     24  C   UNL     1      34.535 -15.626 -20.803  0.00  0.00    -0.077 C 
ATOM     25  H   UNL     1      33.613 -17.079 -21.880  0.00  0.00    -0.080 HD
BRANCH  19  26
ATOM     26  C   UNL     1      35.552 -17.642 -21.641  0.00  0.00    -0.050 C 
BRANCH  26  28
ATOM     27  O   UNL     1      33.791 -20.985 -19.662  0.00  0.00    -0.354 OA
ATOM     28  C   UNL     1      34.935 -19.028 -21.459  0.00  0.00    +0.074 C 
ATOM     29  C   UNL     1      33.503 -18.924 -20.919  0.00  0.00    +0.057 C 
ATOM     30  C   UNL     1      35.787 -19.895 -20.520  0.00  0.00    +0.057 C 
ATOM     31  C   UNL     1      32.938 -20.301 -20.579  0.00  0.00    +0.144 C 
ATOM     32  C   UNL     1      35.090 -21.216 -20.206  0.00  0.00    +0.144 C 
BRANCH  28  33
ATOM     33  O   UNL     1      34.876 -19.654 -22.744  0.00  0.00    -0.389 OA
ATOM     34  H   UNL     1      35.741 -20.038 -22.957  0.00  0.00    +0.210 HD
ENDBRANCH  28  33
ENDBRANCH  26  28
ENDBRANCH  19  26
ENDBRANCH  18  20
ENDBRANCH   4  18
TORSDOF 5
ENDMDL
MODEL 6
REMARK VINA RESULT:      -9.6      7.610     11.897
REMARK  Name = 71451950
REMARK  5 active torsions:
REMARK  status: ('A' for Active; 'I' for Inactive)
REMARK    1  A    between atoms: N_4  and  C_18
REMARK    2  A    between atoms: C_18  and  C_20
REMARK    3  A    between atoms: N_19  and  C_26
REMARK    4  A    between atoms: C_26  and  C_28
REMARK    5  A    between atoms: C_28  and  O_33
REMARK                            x       y       z     vdW  Elec       q    Type
REMARK                         _______ _______ _______ _____ _____    ______ ____
ROOT
ATOM      1  F   UNL     1      34.957 -18.067 -26.023  0.00  0.00    -0.204 F 
ATOM      2  O   UNL     1      33.863 -13.346 -25.277  0.00  0.00    -0.252 OA
ATOM      3  O   UNL     1      33.094 -13.290 -21.057  0.00  0.00    -0.274 OA
ATOM      4  N   UNL     1      33.289 -12.018 -23.498  0.00  0.00    -0.288 N 
ATOM      5  N   UNL     1      33.673 -14.314 -23.138  0.00  0.00    -0.192 N 
ATOM      6  C   UNL     1      33.600 -15.678 -21.154  0.00  0.00    +0.090 C 
ATOM      7  C   UNL     1      33.981 -16.471 -22.371  0.00  0.00    -0.000 C 
ATOM      8  C   UNL     1      33.628 -13.244 -24.072  0.00  0.00    +0.314 C 
ATOM      9  C   UNL     1      33.412 -14.262 -21.730  0.00  0.00    +0.239 C 
ATOM     10  C   UNL     1      34.013 -15.647 -23.498  0.00  0.00    +0.061 C 
ATOM     11  C   UNL     1      32.281 -16.162 -20.549  0.00  0.00    +0.014 C 
ATOM     12  C   UNL     1      34.718 -15.661 -20.111  0.00  0.00    +0.014 C 
ATOM     13  C   UNL     1      34.275 -17.826 -22.455  0.00  0.00    -0.000 C 
ATOM     14  C   UNL     1      34.340 -16.175 -24.739  0.00  0.00    +0.045 C 
ATOM     15  C   UNL     1      34.606 -18.360 -23.699  0.00  0.00    +0.029 C 
ATOM     16  C   UNL     1      34.638 -17.539 -24.833  0.00  0.00    +0.141 C 
ATOM     17  H   UNL     1      33.109 -11.981 -22.531  0.00  0.00    +0.151 HD
ENDROOT
BRANCH   4  18
ATOM     18  C   UNL     1      33.194 -10.803 -24.273  0.00  0.00    +0.091 C 
BRANCH  18  20
ATOM     19  N   UNL     1      32.366  -6.762 -22.992  0.00  0.00    +0.388 N 
ATOM     20  C   UNL     1      33.109  -9.571 -23.375  0.00  0.00    +0.015 C 
ATOM     21  C   UNL     1      31.655  -9.124 -23.192  0.00  0.00    -0.021 C 
ATOM     22  C   UNL     1      33.940  -8.416 -23.945  0.00  0.00    -0.021 C 
ATOM     23  C   UNL     1      31.570  -7.832 -22.376  0.00  0.00    -0.077 C 
ATOM     24  C   UNL     1      33.778  -7.149 -23.103  0.00  0.00    -0.077 C 
ATOM     25  H   UNL     1      32.007  -6.606 -23.934  0.00  0.00    -0.080 HD
BRANCH  19  26
ATOM     26  C   UNL     1      32.233  -5.521 -22.231  0.00  0.00    -0.050 C 
BRANCH  26  28
ATOM     27  O   UNL     1      31.151  -2.490 -25.031  0.00  0.00    -0.354 OA
ATOM     28  C   UNL     1      31.359  -4.504 -22.964  0.00  0.00    +0.074 C 
ATOM     29  C   UNL     1      31.250  -4.850 -24.455  0.00  0.00    +0.057 C 
ATOM     30  C   UNL     1      31.908  -3.079 -22.798  0.00  0.00    +0.057 C 
ATOM     31  C   UNL     1      30.517  -3.754 -25.225  0.00  0.00    +0.144 C 
ATOM     32  C   UNL     1      31.135  -2.086 -23.662  0.00  0.00    +0.144 C 
BRANCH  28  33
ATOM     33  O   UNL     1      30.046  -4.566 -22.400  0.00  0.00    -0.389 OA
ATOM     34  H   UNL     1      30.111  -4.617 -21.434  0.00  0.00    +0.210 HD
ENDBRANCH  28  33
ENDBRANCH  26  28
ENDBRANCH  19  26
ENDBRANCH  18  20
ENDBRANCH   4  18
TORSDOF 5
ENDMDL
MODEL 7
REMARK VINA RESULT:      -9.1      6.166     12.790
REMARK  Name = 71451950
REMARK  5 active torsions:
REMARK  status: ('A' for Active; 'I' for Inactive)
REMARK    1  A    between atoms: N_4  and  C_18
REMARK    2  A    between atoms: C_18  and  C_20
REMARK    3  A    between atoms: N_19  and  C_26
REMARK    4  A    between atoms: C_26  and  C_28
REMARK    5  A    between atoms: C_28  and  O_33
REMARK                            x       y       z     vdW  Elec       q    Type
REMARK                         _______ _______ _______ _____ _____    ______ ____
ROOT
ATOM      1  F   UNL     1      35.714  -8.896 -26.204  0.00  0.00    -0.204 F 
ATOM      2  O   UNL     1      33.262 -12.160 -23.488  0.00  0.00    -0.252 OA
ATOM      3  O   UNL     1      31.376  -9.629 -20.584  0.00  0.00    -0.274 OA
ATOM      4  N   UNL     1      31.871 -12.118 -21.665  0.00  0.00    -0.288 N 
ATOM      5  N   UNL     1      32.755 -10.092 -22.480  0.00  0.00    -0.192 N 
ATOM      6  C   UNL     1      32.490  -7.807 -21.768  0.00  0.00    +0.090 C 
ATOM      7  C   UNL     1      33.382  -7.924 -22.971  0.00  0.00    -0.000 C 
ATOM      8  C   UNL     1      32.683 -11.505 -22.620  0.00  0.00    +0.314 C 
ATOM      9  C   UNL     1      32.110  -9.273 -21.497  0.00  0.00    +0.239 C 
ATOM     10  C   UNL     1      33.511  -9.262 -23.352  0.00  0.00    +0.061 C 
ATOM     11  C   UNL     1      33.236  -7.240 -20.559  0.00  0.00    +0.014 C 
ATOM     12  C   UNL     1      31.227  -6.999 -22.073  0.00  0.00    +0.014 C 
ATOM     13  C   UNL     1      34.027  -6.908 -23.664  0.00  0.00    -0.000 C 
ATOM     14  C   UNL     1      34.298  -9.604 -24.443  0.00  0.00    +0.045 C 
ATOM     15  C   UNL     1      34.817  -7.246 -24.762  0.00  0.00    +0.029 C 
ATOM     16  C   UNL     1      34.951  -8.586 -25.147  0.00  0.00    +0.141 C 
ATOM     17  H   UNL     1      31.427 -11.557 -20.990  0.00  0.00    +0.151 HD
ENDROOT
BRANCH   4  18
ATOM     18  C   UNL     1      31.659 -13.546 -21.636  0.00  0.00    +0.091 C 
BRANCH  18  20
ATOM     19  N   UNL     1      34.441 -16.846 -21.471  0.00  0.00    +0.388 N 
ATOM     20  C   UNL     1      32.982 -14.308 -21.613  0.00  0.00    +0.015 C 
ATOM     21  C   UNL     1      33.086 -15.264 -22.806  0.00  0.00    -0.021 C 
ATOM     22  C   UNL     1      33.144 -15.091 -20.306  0.00  0.00    -0.021 C 
ATOM     23  C   UNL     1      34.364 -16.103 -22.735  0.00  0.00    -0.077 C 
ATOM     24  C   UNL     1      34.420 -15.935 -20.319  0.00  0.00    -0.077 C 
ATOM     25  H   UNL     1      33.621 -17.450 -21.410  0.00  0.00    -0.080 HD
BRANCH  19  26
ATOM     26  C   UNL     1      35.640 -17.683 -21.441  0.00  0.00    -0.050 C 
BRANCH  26  28
ATOM     27  O   UNL     1      34.571 -21.340 -19.522  0.00  0.00    -0.354 OA
ATOM     28  C   UNL     1      35.287 -19.162 -21.286  0.00  0.00    +0.074 C 
ATOM     29  C   UNL     1      33.879 -19.331 -20.704  0.00  0.00    +0.057 C 
ATOM     30  C   UNL     1      36.311 -19.886 -20.399  0.00  0.00    +0.057 C 
ATOM     31  C   UNL     1      33.580 -20.796 -20.393  0.00  0.00    +0.144 C 
ATOM     32  C   UNL     1      35.872 -21.319 -20.109  0.00  0.00    +0.144 C 
BRANCH  28  33
ATOM     33  O   UNL     1      35.299 -19.754 -22.589  0.00  0.00    -0.389 OA
ATOM     34  H   UNL     1      35.688 -20.641 -22.538  0.00  0.00    +0.210 HD
ENDBRANCH  28  33
ENDBRANCH  26  28
ENDBRANCH  19  26
ENDBRANCH  18  20
ENDBRANCH   4  18
TORSDOF 5
ENDMDL
MODEL 8
REMARK VINA RESULT:      -9.0      6.488     10.815
REMARK  Name = 71451950
REMARK  5 active torsions:
REMARK  status: ('A' for Active; 'I' for Inactive)
REMARK    1  A    between atoms: N_4  and  C_18
REMARK    2  A    between atoms: C_18  and  C_20
REMARK    3  A    between atoms: N_19  and  C_26
REMARK    4  A    between atoms: C_26  and  C_28
REMARK    5  A    between atoms: C_28  and  O_33
REMARK                            x       y       z     vdW  Elec       q    Type
REMARK                         _______ _______ _______ _____ _____    ______ ____
ROOT
ATOM      1  F   UNL     1      35.076 -19.401 -20.359  0.00  0.00    -0.204 F 
ATOM      2  O   UNL     1      32.824 -15.046 -20.415  0.00  0.00    -0.252 OA
ATOM      3  O   UNL     1      32.965 -14.050 -24.585  0.00  0.00    -0.274 OA
ATOM      4  N   UNL     1      32.242 -13.479 -21.985  0.00  0.00    -0.288 N 
ATOM      5  N   UNL     1      33.379 -15.423 -22.673  0.00  0.00    -0.192 N 
ATOM      6  C   UNL     1      34.112 -16.192 -24.835  0.00  0.00    +0.090 C 
ATOM      7  C   UNL     1      34.446 -17.170 -23.745  0.00  0.00    -0.000 C 
ATOM      8  C   UNL     1      32.821 -14.686 -21.593  0.00  0.00    +0.314 C 
ATOM      9  C   UNL     1      33.408 -15.064 -24.060  0.00  0.00    +0.239 C 
ATOM     10  C   UNL     1      34.006 -16.689 -22.509  0.00  0.00    +0.061 C 
ATOM     11  C   UNL     1      35.369 -15.641 -25.510  0.00  0.00    +0.014 C 
ATOM     12  C   UNL     1      33.146 -16.789 -25.859  0.00  0.00    +0.014 C 
ATOM     13  C   UNL     1      35.095 -18.393 -23.857  0.00  0.00    -0.000 C 
ATOM     14  C   UNL     1      34.214 -17.434 -21.357  0.00  0.00    +0.045 C 
ATOM     15  C   UNL     1      35.305 -19.145 -22.702  0.00  0.00    +0.029 C 
ATOM     16  C   UNL     1      34.867 -18.667 -21.460  0.00  0.00    +0.141 C 
ATOM     17  H   UNL     1      32.261 -13.230 -22.937  0.00  0.00    +0.151 HD
ENDROOT
BRANCH   4  18
ATOM     18  C   UNL     1      31.615 -12.583 -21.042  0.00  0.00    +0.091 C 
BRANCH  18  20
ATOM     19  N   UNL     1      31.971  -8.331 -21.711  0.00  0.00    +0.388 N 
ATOM     20  C   UNL     1      32.229 -11.186 -21.103  0.00  0.00    +0.015 C 
ATOM     21  C   UNL     1      31.477 -10.215 -20.186  0.00  0.00    -0.021 C 
ATOM     22  C   UNL     1      32.231 -10.647 -22.538  0.00  0.00    -0.021 C 
ATOM     23  C   UNL     1      32.023  -8.792 -20.318  0.00  0.00    -0.077 C 
ATOM     24  C   UNL     1      32.752  -9.210 -22.590  0.00  0.00    -0.077 C 
ATOM     25  H   UNL     1      30.998  -8.363 -22.017  0.00  0.00    -0.080 HD
BRANCH  19  26
ATOM     26  C   UNL     1      32.446  -6.951 -21.813  0.00  0.00    -0.050 C 
BRANCH  26  28
ATOM     27  O   UNL     1      32.190  -4.122 -24.995  0.00  0.00    -0.354 OA
ATOM     28  C   UNL     1      31.918  -6.267 -23.073  0.00  0.00    +0.074 C 
ATOM     29  C   UNL     1      32.976  -6.275 -24.184  0.00  0.00    +0.057 C 
ATOM     30  C   UNL     1      31.480  -4.825 -22.779  0.00  0.00    +0.057 C 
ATOM     31  C   UNL     1      32.520  -5.454 -25.388  0.00  0.00    +0.144 C 
ATOM     32  C   UNL     1      31.109  -4.089 -24.064  0.00  0.00    +0.144 C 
BRANCH  28  33
ATOM     33  O   UNL     1      30.788  -7.012 -23.535  0.00  0.00    -0.389 OA
ATOM     34  H   UNL     1      31.082  -7.689 -24.165  0.00  0.00    +0.210 HD
ENDBRANCH  28  33
ENDBRANCH  26  28
ENDBRANCH  19  26
ENDBRANCH  18  20
ENDBRANCH   4  18
TORSDOF 5
ENDMDL
MODEL 9
REMARK VINA RESULT:      -8.8      3.198     10.211
REMARK  Name = 71451950
REMARK  5 active torsions:
REMARK  status: ('A' for Active; 'I' for Inactive)
REMARK    1  A    between atoms: N_4  and  C_18
REMARK    2  A    between atoms: C_18  and  C_20
REMARK    3  A    between atoms: N_19  and  C_26
REMARK    4  A    between atoms: C_26  and  C_28
REMARK    5  A    between atoms: C_28  and  O_33
REMARK                            x       y       z     vdW  Elec       q    Type
REMARK                         _______ _______ _______ _____ _____    ______ ____
ROOT
ATOM      1  F   UNL     1      33.394 -15.649 -26.835  0.00  0.00    -0.204 F 
ATOM      2  O   UNL     1      35.593 -18.401 -23.423  0.00  0.00    -0.252 OA
ATOM      3  O   UNL     1      34.935 -16.076 -19.878  0.00  0.00    -0.274 OA
ATOM      4  N   UNL     1      35.943 -18.303 -21.159  0.00  0.00    -0.288 N 
ATOM      5  N   UNL     1      34.771 -16.553 -22.215  0.00  0.00    -0.192 N 
ATOM      6  C   UNL     1      33.774 -14.529 -21.371  0.00  0.00    +0.090 C 
ATOM      7  C   UNL     1      33.580 -14.679 -22.852  0.00  0.00    -0.000 C 
ATOM      8  C   UNL     1      35.446 -17.796 -22.360  0.00  0.00    +0.314 C 
ATOM      9  C   UNL     1      34.566 -15.800 -21.013  0.00  0.00    +0.239 C 
ATOM     10  C   UNL     1      34.172 -15.861 -23.303  0.00  0.00    +0.061 C 
ATOM     11  C   UNL     1      34.608 -13.294 -21.027  0.00  0.00    +0.014 C 
ATOM     12  C   UNL     1      32.442 -14.529 -20.619  0.00  0.00    +0.014 C 
ATOM     13  C   UNL     1      32.926 -13.818 -23.724  0.00  0.00    -0.000 C 
ATOM     14  C   UNL     1      34.117 -16.200 -24.648  0.00  0.00    +0.045 C 
ATOM     15  C   UNL     1      32.867 -14.155 -25.075  0.00  0.00    +0.029 C 
ATOM     16  C   UNL     1      33.459 -15.339 -25.533  0.00  0.00    +0.141 C 
ATOM     17  H   UNL     1      35.802 -17.787 -20.332  0.00  0.00    +0.151 HD
ENDROOT
BRANCH   4  18
ATOM     18  C   UNL     1      36.654 -19.557 -21.087  0.00  0.00    +0.091 C 
BRANCH  18  20
ATOM     19  N   UNL     1      34.075 -21.834 -18.476  0.00  0.00    +0.388 N 
ATOM     20  C   UNL     1      35.754 -20.683 -20.584  0.00  0.00    +0.015 C 
ATOM     21  C   UNL     1      34.343 -20.166 -20.283  0.00  0.00    -0.021 C 
ATOM     22  C   UNL     1      36.343 -21.343 -19.332  0.00  0.00    -0.021 C 
ATOM     23  C   UNL     1      33.464 -21.266 -19.685  0.00  0.00    -0.077 C 
ATOM     24  C   UNL     1      35.397 -22.403 -18.767  0.00  0.00    -0.077 C 
ATOM     25  H   UNL     1      34.199 -21.079 -17.801  0.00  0.00    -0.080 HD
BRANCH  19  26
ATOM     26  C   UNL     1      33.200 -22.846 -17.886  0.00  0.00    -0.050 C 
BRANCH  26  28
ATOM     27  O   UNL     1      34.519 -23.113 -13.838  0.00  0.00    -0.354 OA
ATOM     28  C   UNL     1      33.812 -23.451 -16.623  0.00  0.00    +0.074 C 
ATOM     29  C   UNL     1      32.780 -23.513 -15.490  0.00  0.00    +0.057 C 
ATOM     30  C   UNL     1      35.042 -22.652 -16.167  0.00  0.00    +0.057 C 
ATOM     31  C   UNL     1      33.423 -23.961 -14.180  0.00  0.00    +0.144 C 
ATOM     32  C   UNL     1      35.555 -23.153 -14.819  0.00  0.00    +0.144 C 
BRANCH  28  33
ATOM     33  O   UNL     1      34.212 -24.790 -16.928  0.00  0.00    -0.389 OA
ATOM     34  H   UNL     1      35.170 -24.815 -17.077  0.00  0.00    +0.210 HD
ENDBRANCH  28  33
ENDBRANCH  26  28
ENDBRANCH  19  26
ENDBRANCH  18  20
ENDBRANCH   4  18
TORSDOF 5
ENDMDL
