MODEL 1
REMARK VINA RESULT:      -9.3      0.000      0.000
REMARK  Name = 3778
REMARK  2 active torsions:
REMARK  status: ('A' for Active; 'I' for Inactive)
REMARK    1  A    between atoms: N_3  and  C_9
REMARK    2  A    between atoms: C_4  and  C_15
REMARK                            x       y       z     vdW  Elec       q    Type
REMARK                         _______ _______ _______ _____ _____    ______ ____
ROOT
ATOM      1  O   UNL     1      34.959 -16.238 -20.105  0.00  0.00    -0.266 OA
ATOM      2  N   UNL     1      34.606 -17.865 -23.143  0.00  0.00    -0.266 N 
ATOM      3  N   UNL     1      34.860 -17.934 -21.765  0.00  0.00    -0.215 N 
ATOM      4  C   UNL     1      34.379 -15.742 -22.365  0.00  0.00    +0.048 A 
ATOM      5  C   UNL     1      34.272 -16.544 -23.437  0.00  0.00    +0.055 A 
ATOM      6  C   UNL     1      34.801 -16.638 -21.246  0.00  0.00    +0.276 A 
ATOM      7  C   UNL     1      33.896 -16.143 -24.824  0.00  0.00    +0.051 C 
ATOM      8  C   UNL     1      35.451 -18.642 -24.045  0.00  0.00    +0.152 C 
ENDROOT
BRANCH   3   9
ATOM      9  C   UNL     1      34.839 -19.144 -21.028  0.00  0.00    +0.084 C 
ATOM     10  C   UNL     1      36.036 -19.742 -20.619  0.00  0.00    +0.019 C 
ATOM     11  C   UNL     1      33.621 -19.748 -20.701  0.00  0.00    +0.019 C 
ATOM     12  C   UNL     1      36.014 -20.931 -19.892  0.00  0.00    +0.002 C 
ATOM     13  C   UNL     1      33.599 -20.938 -19.973  0.00  0.00    +0.002 C 
ATOM     14  C   UNL     1      34.796 -21.530 -19.568  0.00  0.00    +0.000 C 
ENDBRANCH   3   9
BRANCH   4  15
ATOM     15  C   UNL     1      34.165 -14.289 -22.176  0.00  0.00    +0.028 C 
ATOM     16  C   UNL     1      34.101 -13.566 -23.525  0.00  0.00    +0.005 C 
ATOM     17  C   UNL     1      32.894 -14.011 -21.365  0.00  0.00    +0.005 C 
ENDBRANCH   4  15
TORSDOF 2
ENDMDL
MODEL 2
REMARK VINA RESULT:      -9.0      0.988      1.601
REMARK  Name = 3778
REMARK  2 active torsions:
REMARK  status: ('A' for Active; 'I' for Inactive)
REMARK    1  A    between atoms: N_3  and  C_9
REMARK    2  A    between atoms: C_4  and  C_15
REMARK                            x       y       z     vdW  Elec       q    Type
REMARK                         _______ _______ _______ _____ _____    ______ ____
ROOT
ATOM      1  O   UNL     1      34.870 -15.326 -20.675  0.00  0.00    -0.266 OA
ATOM      2  N   UNL     1      34.309 -16.990 -23.662  0.00  0.00    -0.266 N 
ATOM      3  N   UNL     1      34.715 -17.033 -22.320  0.00  0.00    -0.215 N 
ATOM      4  C   UNL     1      34.013 -14.885 -22.857  0.00  0.00    +0.048 A 
ATOM      5  C   UNL     1      33.850 -15.698 -23.914  0.00  0.00    +0.055 A 
ATOM      6  C   UNL     1      34.618 -15.743 -21.794  0.00  0.00    +0.276 A 
ATOM      7  C   UNL     1      33.297 -15.332 -25.251  0.00  0.00    +0.051 C 
ATOM      8  C   UNL     1      35.106 -17.707 -24.653  0.00  0.00    +0.152 C 
ENDROOT
BRANCH   3   9
ATOM      9  C   UNL     1      34.862 -18.238 -21.588  0.00  0.00    +0.084 C 
ATOM     10  C   UNL     1      33.739 -18.996 -21.244  0.00  0.00    +0.019 C 
ATOM     11  C   UNL     1      36.134 -18.677 -21.205  0.00  0.00    +0.019 C 
ATOM     12  C   UNL     1      33.884 -20.182 -20.525  0.00  0.00    +0.002 C 
ATOM     13  C   UNL     1      36.280 -19.865 -20.486  0.00  0.00    +0.002 C 
ATOM     14  C   UNL     1      35.155 -20.617 -20.146  0.00  0.00    +0.000 C 
ENDBRANCH   3   9
BRANCH   4  15
ATOM     15  C   UNL     1      33.716 -13.451 -22.642  0.00  0.00    +0.028 C 
ATOM     16  C   UNL     1      33.970 -12.642 -23.919  0.00  0.00    +0.005 C 
ATOM     17  C   UNL     1      32.275 -13.244 -22.161  0.00  0.00    +0.005 C 
ENDBRANCH   4  15
TORSDOF 2
ENDMDL
MODEL 3
REMARK VINA RESULT:      -8.2      8.306     10.331
REMARK  Name = 3778
REMARK  2 active torsions:
REMARK  status: ('A' for Active; 'I' for Inactive)
REMARK    1  A    between atoms: N_3  and  C_9
REMARK    2  A    between atoms: C_4  and  C_15
REMARK                            x       y       z     vdW  Elec       q    Type
REMARK                         _______ _______ _______ _____ _____    ______ ____
ROOT
ATOM      1  O   UNL     1      33.830 -24.457 -12.533  0.00  0.00    -0.266 OA
ATOM      2  N   UNL     1      34.817 -23.652 -15.755  0.00  0.00    -0.266 N 
ATOM      3  N   UNL     1      35.163 -24.071 -14.461  0.00  0.00    -0.215 N 
ATOM      4  C   UNL     1      32.856 -23.850 -14.624  0.00  0.00    +0.048 A 
ATOM      5  C   UNL     1      33.425 -23.588 -15.811  0.00  0.00    +0.055 A 
ATOM      6  C   UNL     1      33.993 -24.142 -13.700  0.00  0.00    +0.276 A 
ATOM      7  C   UNL     1      32.730 -23.216 -17.078  0.00  0.00    +0.051 C 
ATOM      8  C   UNL     1      35.640 -22.632 -16.398  0.00  0.00    +0.152 C 
ENDROOT
BRANCH   3   9
ATOM      9  C   UNL     1      36.423 -24.629 -14.133  0.00  0.00    +0.084 C 
ATOM     10  C   UNL     1      36.904 -25.742 -14.828  0.00  0.00    +0.019 C 
ATOM     11  C   UNL     1      37.195 -24.069 -13.110  0.00  0.00    +0.019 C 
ATOM     12  C   UNL     1      38.145 -26.291 -14.505  0.00  0.00    +0.002 C 
ATOM     13  C   UNL     1      38.438 -24.616 -12.787  0.00  0.00    +0.002 C 
ATOM     14  C   UNL     1      38.912 -25.728 -13.485  0.00  0.00    +0.000 C 
ENDBRANCH   3   9
BRANCH   4  15
ATOM     15  C   UNL     1      31.445 -23.878 -14.174  0.00  0.00    +0.028 C 
ATOM     16  C   UNL     1      30.674 -22.671 -14.716  0.00  0.00    +0.005 C 
ATOM     17  C   UNL     1      30.752 -25.180 -14.591  0.00  0.00    +0.005 C 
ENDBRANCH   4  15
TORSDOF 2
ENDMDL
MODEL 4
REMARK VINA RESULT:      -7.9      8.304     10.495
REMARK  Name = 3778
REMARK  2 active torsions:
REMARK  status: ('A' for Active; 'I' for Inactive)
REMARK    1  A    between atoms: N_3  and  C_9
REMARK    2  A    between atoms: C_4  and  C_15
REMARK                            x       y       z     vdW  Elec       q    Type
REMARK                         _______ _______ _______ _____ _____    ______ ____
ROOT
ATOM      1  O   UNL     1      32.471 -25.200 -13.169  0.00  0.00    -0.266 OA
ATOM      2  N   UNL     1      33.367 -23.247 -15.887  0.00  0.00    -0.266 N 
ATOM      3  N   UNL     1      32.365 -23.908 -15.160  0.00  0.00    -0.215 N 
ATOM      4  C   UNL     1      34.401 -24.118 -14.061  0.00  0.00    +0.048 A 
ATOM      5  C   UNL     1      34.550 -23.359 -15.158  0.00  0.00    +0.055 A 
ATOM      6  C   UNL     1      32.963 -24.524 -14.058  0.00  0.00    +0.276 A 
ATOM      7  C   UNL     1      35.807 -22.714 -15.641  0.00  0.00    +0.051 C 
ATOM      8  C   UNL     1      33.368 -23.374 -17.341  0.00  0.00    +0.152 C 
ENDROOT
BRANCH   3   9
ATOM      9  C   UNL     1      30.980 -23.684 -15.358  0.00  0.00    +0.084 C 
ATOM     10  C   UNL     1      30.406 -22.461 -14.998  0.00  0.00    +0.019 C 
ATOM     11  C   UNL     1      30.178 -24.684 -15.916  0.00  0.00    +0.019 C 
ATOM     12  C   UNL     1      29.043 -22.240 -15.194  0.00  0.00    +0.002 C 
ATOM     13  C   UNL     1      28.814 -24.463 -16.113  0.00  0.00    +0.002 C 
ATOM     14  C   UNL     1      28.247 -23.241 -15.752  0.00  0.00    +0.000 C 
ENDBRANCH   3   9
BRANCH   4  15
ATOM     15  C   UNL     1      35.346 -24.549 -13.005  0.00  0.00    +0.028 C 
ATOM     16  C   UNL     1      36.469 -25.408 -13.594  0.00  0.00    +0.005 C 
ATOM     17  C   UNL     1      35.935 -23.347 -12.258  0.00  0.00    +0.005 C 
ENDBRANCH   4  15
TORSDOF 2
ENDMDL
MODEL 5
REMARK VINA RESULT:      -7.9      1.744      2.948
REMARK  Name = 3778
REMARK  2 active torsions:
REMARK  status: ('A' for Active; 'I' for Inactive)
REMARK    1  A    between atoms: N_3  and  C_9
REMARK    2  A    between atoms: C_4  and  C_15
REMARK                            x       y       z     vdW  Elec       q    Type
REMARK                         _______ _______ _______ _____ _____    ______ ____
ROOT
ATOM      1  O   UNL     1      34.771 -16.778 -24.309  0.00  0.00    -0.266 OA
ATOM      2  N   UNL     1      33.206 -15.910 -21.343  0.00  0.00    -0.266 N 
ATOM      3  N   UNL     1      33.913 -16.859 -22.095  0.00  0.00    -0.215 N 
ATOM      4  C   UNL     1      33.701 -14.893 -23.313  0.00  0.00    +0.048 A 
ATOM      5  C   UNL     1      33.154 -14.739 -22.097  0.00  0.00    +0.055 A 
ATOM      6  C   UNL     1      34.184 -16.306 -23.349  0.00  0.00    +0.276 A 
ATOM      7  C   UNL     1      32.504 -13.510 -21.553  0.00  0.00    +0.051 C 
ATOM      8  C   UNL     1      32.048 -16.356 -20.574  0.00  0.00    +0.152 C 
ENDROOT
BRANCH   3   9
ATOM      9  C   UNL     1      34.511 -18.013 -21.531  0.00  0.00    +0.084 C 
ATOM     10  C   UNL     1      33.722 -19.106 -21.158  0.00  0.00    +0.019 C 
ATOM     11  C   UNL     1      35.896 -18.069 -21.345  0.00  0.00    +0.019 C 
ATOM     12  C   UNL     1      34.311 -20.242 -20.605  0.00  0.00    +0.002 C 
ATOM     13  C   UNL     1      36.486 -19.206 -20.792  0.00  0.00    +0.002 C 
ATOM     14  C   UNL     1      35.694 -20.293 -20.422  0.00  0.00    +0.000 C 
ENDBRANCH   3   9
BRANCH   4  15
ATOM     15  C   UNL     1      33.861 -13.973 -24.463  0.00  0.00    +0.028 C 
ATOM     16  C   UNL     1      32.806 -14.253 -25.538  0.00  0.00    +0.005 C 
ATOM     17  C   UNL     1      33.791 -12.507 -24.021  0.00  0.00    +0.005 C 
ENDBRANCH   4  15
TORSDOF 2
ENDMDL
MODEL 6
REMARK VINA RESULT:      -7.8      8.697     10.946
REMARK  Name = 3778
REMARK  2 active torsions:
REMARK  status: ('A' for Active; 'I' for Inactive)
REMARK    1  A    between atoms: N_3  and  C_9
REMARK    2  A    between atoms: C_4  and  C_15
REMARK                            x       y       z     vdW  Elec       q    Type
REMARK                         _______ _______ _______ _____ _____    ______ ____
ROOT
ATOM      1  O   UNL     1      30.488  -5.910 -22.020  0.00  0.00    -0.266 OA
ATOM      2  N   UNL     1      33.259  -7.330 -23.539  0.00  0.00    -0.266 N 
ATOM      3  N   UNL     1      32.273  -7.388 -22.543  0.00  0.00    -0.215 N 
ATOM      4  C   UNL     1      31.919  -5.529 -23.890  0.00  0.00    +0.048 A 
ATOM      5  C   UNL     1      32.969  -6.231 -24.346  0.00  0.00    +0.055 A 
ATOM      6  C   UNL     1      31.458  -6.261 -22.671  0.00  0.00    +0.276 A 
ATOM      7  C   UNL     1      33.810  -5.916 -25.538  0.00  0.00    +0.051 C 
ATOM      8  C   UNL     1      34.637  -7.644 -23.171  0.00  0.00    +0.152 C 
ENDROOT
BRANCH   3   9
ATOM      9  C   UNL     1      31.992  -8.556 -21.791  0.00  0.00    +0.084 C 
ATOM     10  C   UNL     1      31.517  -9.707 -22.427  0.00  0.00    +0.019 C 
ATOM     11  C   UNL     1      32.188  -8.565 -20.406  0.00  0.00    +0.019 C 
ATOM     12  C   UNL     1      31.242 -10.856 -21.687  0.00  0.00    +0.002 C 
ATOM     13  C   UNL     1      31.913  -9.715 -19.665  0.00  0.00    +0.002 C 
ATOM     14  C   UNL     1      31.440 -10.861 -20.305  0.00  0.00    +0.000 C 
ENDBRANCH   3   9
BRANCH   4  15
ATOM     15  C   UNL     1      31.254  -4.296 -24.370  0.00  0.00    +0.028 C 
ATOM     16  C   UNL     1      31.599  -3.104 -23.471  0.00  0.00    +0.005 C 
ATOM     17  C   UNL     1      31.629  -3.988 -25.824  0.00  0.00    +0.005 C 
ENDBRANCH   4  15
TORSDOF 2
ENDMDL
MODEL 7
REMARK VINA RESULT:      -7.8      2.338      6.514
REMARK  Name = 3778
REMARK  2 active torsions:
REMARK  status: ('A' for Active; 'I' for Inactive)
REMARK    1  A    between atoms: N_3  and  C_9
REMARK    2  A    between atoms: C_4  and  C_15
REMARK                            x       y       z     vdW  Elec       q    Type
REMARK                         _______ _______ _______ _____ _____    ______ ____
ROOT
ATOM      1  O   UNL     1      33.678 -14.744 -20.952  0.00  0.00    -0.266 OA
ATOM      2  N   UNL     1      33.780 -14.896 -24.411  0.00  0.00    -0.266 N 
ATOM      3  N   UNL     1      33.466 -14.176 -23.249  0.00  0.00    -0.215 N 
ATOM      4  C   UNL     1      34.435 -16.208 -22.676  0.00  0.00    +0.048 A 
ATOM      5  C   UNL     1      34.404 -16.077 -24.012  0.00  0.00    +0.055 A 
ATOM      6  C   UNL     1      33.787 -14.971 -22.145  0.00  0.00    +0.276 A 
ATOM      7  C   UNL     1      34.909 -17.052 -25.022  0.00  0.00    +0.051 C 
ATOM      8  C   UNL     1      32.820 -14.892 -25.511  0.00  0.00    +0.152 C 
ENDROOT
BRANCH   3   9
ATOM      9  C   UNL     1      33.196 -12.785 -23.241  0.00  0.00    +0.084 C 
ATOM     10  C   UNL     1      32.174 -12.270 -22.439  0.00  0.00    +0.019 C 
ATOM     11  C   UNL     1      33.952 -11.918 -24.036  0.00  0.00    +0.019 C 
ATOM     12  C   UNL     1      31.910 -10.901 -22.430  0.00  0.00    +0.002 C 
ATOM     13  C   UNL     1      33.688 -10.547 -24.028  0.00  0.00    +0.002 C 
ATOM     14  C   UNL     1      32.667 -10.039 -23.225  0.00  0.00    +0.000 C 
ENDBRANCH   3   9
BRANCH   4  15
ATOM     15  C   UNL     1      34.953 -17.273 -21.786  0.00  0.00    +0.028 C 
ATOM     16  C   UNL     1      33.839 -18.251 -21.398  0.00  0.00    +0.005 C 
ATOM     17  C   UNL     1      36.117 -18.028 -22.436  0.00  0.00    +0.005 C 
ENDBRANCH   4  15
TORSDOF 2
ENDMDL
MODEL 8
REMARK VINA RESULT:      -7.8      4.684      7.126
REMARK  Name = 3778
REMARK  2 active torsions:
REMARK  status: ('A' for Active; 'I' for Inactive)
REMARK    1  A    between atoms: N_3  and  C_9
REMARK    2  A    between atoms: C_4  and  C_15
REMARK                            x       y       z     vdW  Elec       q    Type
REMARK                         _______ _______ _______ _____ _____    ______ ____
ROOT
ATOM      1  O   UNL     1      34.238 -10.716 -25.347  0.00  0.00    -0.266 OA
ATOM      2  N   UNL     1      32.442 -11.212 -22.426  0.00  0.00    -0.266 N 
ATOM      3  N   UNL     1      33.106 -11.756 -23.535  0.00  0.00    -0.215 N 
ATOM      4  C   UNL     1      33.311  -9.443 -23.555  0.00  0.00    +0.048 A 
ATOM      5  C   UNL     1      32.642  -9.833 -22.459  0.00  0.00    +0.055 A 
ATOM      6  C   UNL     1      33.603 -10.702 -24.305  0.00  0.00    +0.276 A 
ATOM      7  C   UNL     1      32.097  -8.958 -21.380  0.00  0.00    +0.051 C 
ATOM      8  C   UNL     1      31.148 -11.772 -22.048  0.00  0.00    +0.152 C 
ENDROOT
BRANCH   3   9
ATOM      9  C   UNL     1      33.470 -13.122 -23.635  0.00  0.00    +0.084 C 
ATOM     10  C   UNL     1      33.158 -13.853 -24.785  0.00  0.00    +0.019 C 
ATOM     11  C   UNL     1      34.146 -13.748 -22.583  0.00  0.00    +0.019 C 
ATOM     12  C   UNL     1      33.517 -15.197 -24.883  0.00  0.00    +0.002 C 
ATOM     13  C   UNL     1      34.507 -15.093 -22.680  0.00  0.00    +0.002 C 
ATOM     14  C   UNL     1      34.193 -15.817 -23.830  0.00  0.00    +0.000 C 
ENDBRANCH   3   9
BRANCH   4  15
ATOM     15  C   UNL     1      33.735  -8.112 -24.049  0.00  0.00    +0.028 C 
ATOM     16  C   UNL     1      32.565  -7.123 -24.028  0.00  0.00    +0.005 C 
ATOM     17  C   UNL     1      34.909  -7.561 -23.234  0.00  0.00    +0.005 C 
ENDBRANCH   4  15
TORSDOF 2
ENDMDL
MODEL 9
REMARK VINA RESULT:      -7.7      5.477      9.751
REMARK  Name = 3778
REMARK  2 active torsions:
REMARK  status: ('A' for Active; 'I' for Inactive)
REMARK    1  A    between atoms: N_3  and  C_9
REMARK    2  A    between atoms: C_4  and  C_15
REMARK                            x       y       z     vdW  Elec       q    Type
REMARK                         _______ _______ _______ _____ _____    ______ ____
ROOT
ATOM      1  O   UNL     1      34.480 -10.597 -24.829  0.00  0.00    -0.266 OA
ATOM      2  N   UNL     1      32.123 -10.399 -22.298  0.00  0.00    -0.266 N 
ATOM      3  N   UNL     1      32.889  -9.753 -23.280  0.00  0.00    -0.215 N 
ATOM      4  C   UNL     1      33.275 -12.042 -23.364  0.00  0.00    +0.048 A 
ATOM      5  C   UNL     1      32.352 -11.768 -22.428  0.00  0.00    +0.055 A 
ATOM      6  C   UNL     1      33.673 -10.715 -23.922  0.00  0.00    +0.276 A 
ATOM      7  C   UNL     1      31.641 -12.746 -21.553  0.00  0.00    +0.051 C 
ATOM      8  C   UNL     1      32.018  -9.780 -20.980  0.00  0.00    +0.152 C 
ENDROOT
BRANCH   3   9
ATOM      9  C   UNL     1      32.634  -8.433 -23.726  0.00  0.00    +0.084 C 
ATOM     10  C   UNL     1      33.693  -7.552 -23.966  0.00  0.00    +0.019 C 
ATOM     11  C   UNL     1      31.319  -8.002 -23.931  0.00  0.00    +0.019 C 
ATOM     12  C   UNL     1      33.441  -6.253 -24.407  0.00  0.00    +0.002 C 
ATOM     13  C   UNL     1      31.066  -6.702 -24.373  0.00  0.00    +0.002 C 
ATOM     14  C   UNL     1      32.127  -5.828 -24.611  0.00  0.00    +0.000 C 
ENDBRANCH   3   9
BRANCH   4  15
ATOM     15  C   UNL     1      33.869 -13.312 -23.843  0.00  0.00    +0.028 C 
ATOM     16  C   UNL     1      34.306 -14.189 -22.665  0.00  0.00    +0.005 C 
ATOM     17  C   UNL     1      32.895 -14.080 -24.743  0.00  0.00    +0.005 C 
ENDBRANCH   4  15
TORSDOF 2
ENDMDL
