MODEL 1
REMARK VINA RESULT:      -8.6      0.000      0.000
REMARK  Name = 118023034
REMARK  4 active torsions:
REMARK  status: ('A' for Active; 'I' for Inactive)
REMARK    1  A    between atoms: C_15  and  C_28
REMARK    2  A    between atoms: C_17  and  C_24
REMARK    3  A    between atoms: C_28  and  C_31
REMARK    4  A    between atoms: C_28  and  N_37
REMARK                            x       y       z     vdW  Elec       q    Type
REMARK                         _______ _______ _______ _____ _____    ______ ____
ROOT
ATOM      1  N   UNL     1      36.319 -21.955 -17.739  0.00  0.00    -0.289 N 
ATOM      2  N   UNL     1      35.689 -20.243 -19.967  0.00  0.00    -0.250 N 
ATOM      3  N   UNL     1      35.982 -24.114 -14.785  0.00  0.00    -0.185 N 
ATOM      4  N   UNL     1      37.856 -23.078 -16.417  0.00  0.00    -0.206 NA
ATOM      5  N   UNL     1      34.621 -19.950 -22.017  0.00  0.00    -0.181 NA
ATOM      6  N   UNL     1      35.886 -18.167 -21.004  0.00  0.00    -0.203 NA
ATOM      7  N   UNL     1      37.270 -24.434 -14.514  0.00  0.00    -0.151 NA
ATOM      8  C   UNL     1      35.055 -22.083 -18.459  0.00  0.00    +0.114 C 
ATOM      9  C   UNL     1      37.252 -20.927 -18.193  0.00  0.00    +0.114 C 
ATOM     10  C   UNL     1      35.195 -21.621 -19.910  0.00  0.00    +0.123 C 
ATOM     11  C   UNL     1      36.514 -19.764 -18.856  0.00  0.00    +0.123 C 
ATOM     12  C   UNL     1      36.614 -22.760 -16.691  0.00  0.00    +0.149 C 
ATOM     13  C   UNL     1      35.385 -19.416 -21.044  0.00  0.00    +0.090 C 
ATOM     14  C   UNL     1      35.598 -23.307 -15.825  0.00  0.00    +0.106 C 
ATOM     15  C   UNL     1      34.798 -17.820 -23.122  0.00  0.00    -0.014 C 
ATOM     16  C   UNL     1      34.225 -23.198 -15.798  0.00  0.00    +0.021 C 
ATOM     17  C   UNL     1      33.767 -23.969 -14.701  0.00  0.00    +0.021 C 
ATOM     18  C   UNL     1      34.872 -24.523 -14.092  0.00  0.00    +0.090 C 
ATOM     19  C   UNL     1      34.345 -19.121 -23.044  0.00  0.00    +0.102 C 
ATOM     20  C   UNL     1      35.573 -17.392 -22.063  0.00  0.00    +0.160 C 
ATOM     21  C   UNL     1      38.125 -23.902 -15.340  0.00  0.00    +0.219 C 
ENDROOT
BRANCH  17  24
ATOM     22  N   UNL     1      30.241 -24.552 -14.233  0.00  0.00    -0.208 N 
ATOM     23  N   UNL     1      30.503 -24.030 -13.022  0.00  0.00    -0.176 NA
ATOM     24  C   UNL     1      32.381 -24.122 -14.319  0.00  0.00    +0.038 C 
ATOM     25  C   UNL     1      31.333 -24.629 -15.047  0.00  0.00    +0.086 C 
ATOM     26  C   UNL     1      31.812 -23.770 -13.081  0.00  0.00    +0.119 C 
ATOM     27  C   UNL     1      28.897 -24.966 -14.559  0.00  0.00    +0.140 C 
ENDBRANCH  17  24
BRANCH  15  28
ATOM     28  C   UNL     1      34.473 -16.938 -24.270  0.00  0.00    -0.010 C 
ATOM     29  C   UNL     1      35.778 -16.615 -25.085  0.00  0.00    -0.014 C 
BRANCH  28  31
ATOM     30  F   UNL     1      31.773 -12.199 -22.640  0.00  0.00    -0.204 F 
ATOM     31  C   UNL     1      33.731 -15.636 -23.822  0.00  0.00    -0.037 C 
ATOM     32  C   UNL     1      33.485 -14.621 -24.748  0.00  0.00    -0.004 C 
ATOM     33  C   UNL     1      33.316 -15.490 -22.499  0.00  0.00    -0.004 C 
ATOM     34  C   UNL     1      32.824 -13.460 -24.349  0.00  0.00    +0.029 C 
ATOM     35  C   UNL     1      32.655 -14.329 -22.100  0.00  0.00    +0.029 C 
ATOM     36  C   UNL     1      32.408 -13.314 -23.024  0.00  0.00    +0.140 C 
ENDBRANCH  28  31
BRANCH  28  37
ATOM     37  N   UNL     1      33.602 -17.562 -25.330  0.00  0.00    +0.388 N 
ATOM     38  H   UNL     1      33.150 -16.828 -25.876  0.00  0.00    -0.088 HD
ATOM     39  H   UNL     1      32.890 -18.143 -24.888  0.00  0.00    -0.088 HD
ATOM     40  H   UNL     1      34.176 -18.138 -25.947  0.00  0.00    -0.088 HD
ENDBRANCH  28  37
ENDBRANCH  15  28
TORSDOF 4
ENDMDL
MODEL 2
REMARK VINA RESULT:      -8.5      3.860     11.399
REMARK  Name = 118023034
REMARK  4 active torsions:
REMARK  status: ('A' for Active; 'I' for Inactive)
REMARK    1  A    between atoms: C_15  and  C_28
REMARK    2  A    between atoms: C_17  and  C_24
REMARK    3  A    between atoms: C_28  and  C_31
REMARK    4  A    between atoms: C_28  and  N_37
REMARK                            x       y       z     vdW  Elec       q    Type
REMARK                         _______ _______ _______ _____ _____    ______ ____
ROOT
ATOM      1  N   UNL     1      35.027 -19.385 -21.941  0.00  0.00    -0.289 N 
ATOM      2  N   UNL     1      35.371 -20.926 -19.532  0.00  0.00    -0.250 N 
ATOM      3  N   UNL     1      34.200 -16.652 -24.253  0.00  0.00    -0.185 N 
ATOM      4  N   UNL     1      35.189 -19.156 -24.241  0.00  0.00    -0.206 NA
ATOM      5  N   UNL     1      36.387 -21.173 -17.451  0.00  0.00    -0.181 NA
ATOM      6  N   UNL     1      34.831 -22.816 -18.281  0.00  0.00    -0.203 NA
ATOM      7  N   UNL     1      34.540 -17.178 -25.454  0.00  0.00    -0.151 NA
ATOM      8  C   UNL     1      35.306 -18.739 -20.660  0.00  0.00    +0.114 C 
ATOM      9  C   UNL     1      34.930 -20.843 -21.953  0.00  0.00    +0.114 C 
ATOM     10  C   UNL     1      36.090 -19.666 -19.732  0.00  0.00    +0.123 C 
ATOM     11  C   UNL     1      34.471 -21.378 -20.596  0.00  0.00    +0.123 C 
ATOM     12  C   UNL     1      34.865 -18.659 -23.072  0.00  0.00    +0.149 C 
ATOM     13  C   UNL     1      35.537 -21.672 -18.369  0.00  0.00    +0.090 C 
ATOM     14  C   UNL     1      34.333 -17.318 -23.062  0.00  0.00    +0.106 C 
ATOM     15  C   UNL     1      35.858 -23.110 -16.124  0.00  0.00    -0.014 C 
ATOM     16  C   UNL     1      33.892 -16.487 -22.056  0.00  0.00    +0.021 C 
ATOM     17  C   UNL     1      33.480 -15.276 -22.665  0.00  0.00    +0.021 C 
ATOM     18  C   UNL     1      33.681 -15.405 -24.022  0.00  0.00    +0.090 C 
ATOM     19  C   UNL     1      36.523 -21.920 -16.336  0.00  0.00    +0.102 C 
ATOM     20  C   UNL     1      35.017 -23.514 -17.141  0.00  0.00    +0.160 C 
ATOM     21  C   UNL     1      35.012 -18.390 -25.378  0.00  0.00    +0.219 C 
ENDROOT
BRANCH  17  24
ATOM     22  N   UNL     1      32.095 -12.209 -21.377  0.00  0.00    -0.208 N 
ATOM     23  N   UNL     1      32.281 -12.833 -20.202  0.00  0.00    -0.176 NA
ATOM     24  C   UNL     1      32.949 -14.133 -21.957  0.00  0.00    +0.038 C 
ATOM     25  C   UNL     1      32.478 -12.945 -22.459  0.00  0.00    +0.086 C 
ATOM     26  C   UNL     1      32.803 -14.009 -20.562  0.00  0.00    +0.119 C 
ATOM     27  C   UNL     1      31.534 -10.878 -21.400  0.00  0.00    +0.140 C 
ENDBRANCH  17  24
BRANCH  15  28
ATOM     28  C   UNL     1      36.035 -23.904 -14.883  0.00  0.00    -0.010 C 
ATOM     29  C   UNL     1      35.833 -22.985 -13.625  0.00  0.00    -0.014 C 
BRANCH  28  31
ATOM     30  F   UNL     1      41.050 -26.595 -14.755  0.00  0.00    -0.204 F 
ATOM     31  C   UNL     1      37.413 -24.643 -14.849  0.00  0.00    -0.037 C 
ATOM     32  C   UNL     1      37.502 -25.926 -14.307  0.00  0.00    -0.004 C 
ATOM     33  C   UNL     1      38.552 -24.020 -15.357  0.00  0.00    -0.004 C 
ATOM     34  C   UNL     1      38.730 -26.586 -14.275  0.00  0.00    +0.029 C 
ATOM     35  C   UNL     1      39.780 -24.679 -15.325  0.00  0.00    +0.029 C 
ATOM     36  C   UNL     1      39.870 -25.962 -14.785  0.00  0.00    +0.140 C 
ENDBRANCH  28  31
BRANCH  28  37
ATOM     37  N   UNL     1      34.993 -24.968 -14.650  0.00  0.00    +0.388 N 
ATOM     38  H   UNL     1      34.227 -24.581 -14.099  0.00  0.00    -0.088 HD
ATOM     39  H   UNL     1      35.411 -25.751 -14.148  0.00  0.00    -0.088 HD
ATOM     40  H   UNL     1      34.633 -25.295 -15.548  0.00  0.00    -0.088 HD
ENDBRANCH  28  37
ENDBRANCH  15  28
TORSDOF 4
ENDMDL
MODEL 3
REMARK VINA RESULT:      -8.3      3.455     11.164
REMARK  Name = 118023034
REMARK  4 active torsions:
REMARK  status: ('A' for Active; 'I' for Inactive)
REMARK    1  A    between atoms: C_15  and  C_28
REMARK    2  A    between atoms: C_17  and  C_24
REMARK    3  A    between atoms: C_28  and  C_31
REMARK    4  A    between atoms: C_28  and  N_37
REMARK                            x       y       z     vdW  Elec       q    Type
REMARK                         _______ _______ _______ _____ _____    ______ ____
ROOT
ATOM      1  N   UNL     1      35.055 -18.701 -22.375  0.00  0.00    -0.289 N 
ATOM      2  N   UNL     1      35.653 -20.227 -20.007  0.00  0.00    -0.250 N 
ATOM      3  N   UNL     1      33.938 -16.003 -24.604  0.00  0.00    -0.185 N 
ATOM      4  N   UNL     1      35.021 -18.467 -24.680  0.00  0.00    -0.206 NA
ATOM      5  N   UNL     1      36.844 -20.434 -18.015  0.00  0.00    -0.181 NA
ATOM      6  N   UNL     1      35.291 -22.136 -18.722  0.00  0.00    -0.203 NA
ATOM      7  N   UNL     1      34.199 -16.516 -25.830  0.00  0.00    -0.151 NA
ATOM      8  C   UNL     1      35.412 -18.045 -21.120  0.00  0.00    +0.114 C 
ATOM      9  C   UNL     1      35.014 -20.162 -22.383  0.00  0.00    +0.114 C 
ATOM     10  C   UNL     1      36.304 -18.940 -20.260  0.00  0.00    +0.123 C 
ATOM     11  C   UNL     1      34.688 -20.714 -20.996  0.00  0.00    +0.123 C 
ATOM     12  C   UNL     1      34.774 -17.983 -23.487  0.00  0.00    +0.149 C 
ATOM     13  C   UNL     1      35.942 -20.966 -18.863  0.00  0.00    +0.090 C 
ATOM     14  C   UNL     1      34.193 -16.663 -23.430  0.00  0.00    +0.106 C 
ATOM     15  C   UNL     1      36.499 -22.390 -16.656  0.00  0.00    -0.014 C 
ATOM     16  C   UNL     1      33.804 -15.850 -22.389  0.00  0.00    +0.021 C 
ATOM     17  C   UNL     1      33.297 -14.655 -22.959  0.00  0.00    +0.021 C 
ATOM     18  C   UNL     1      33.391 -14.777 -24.328  0.00  0.00    +0.090 C 
ATOM     19  C   UNL     1      37.099 -21.175 -16.918  0.00  0.00    +0.102 C 
ATOM     20  C   UNL     1      35.595 -22.826 -17.602  0.00  0.00    +0.160 C 
ATOM     21  C   UNL     1      34.722 -17.709 -25.796  0.00  0.00    +0.219 C 
ENDROOT
BRANCH  17  24
ATOM     22  N   UNL     1      32.028 -11.595 -21.540  0.00  0.00    -0.208 N 
ATOM     23  N   UNL     1      32.017 -12.335 -20.419  0.00  0.00    -0.176 NA
ATOM     24  C   UNL     1      32.782 -13.534 -22.206  0.00  0.00    +0.038 C 
ATOM     25  C   UNL     1      32.477 -12.267 -22.639  0.00  0.00    +0.086 C 
ATOM     26  C   UNL     1      32.478 -13.519 -20.832  0.00  0.00    +0.119 C 
ATOM     27  C   UNL     1      31.589 -10.221 -21.496  0.00  0.00    +0.140 C 
ENDBRANCH  17  24
BRANCH  15  28
ATOM     28  C   UNL     1      36.808 -23.176 -15.436  0.00  0.00    -0.010 C 
ATOM     29  C   UNL     1      37.810 -24.335 -15.784  0.00  0.00    -0.014 C 
BRANCH  28  31
ATOM     30  F   UNL     1      32.100 -25.135 -12.904  0.00  0.00    -0.204 F 
ATOM     31  C   UNL     1      35.515 -23.715 -14.740  0.00  0.00    -0.037 C 
ATOM     32  C   UNL     1      34.300 -23.709 -15.428  0.00  0.00    -0.004 C 
ATOM     33  C   UNL     1      35.575 -24.199 -13.434  0.00  0.00    -0.004 C 
ATOM     34  C   UNL     1      33.146 -24.189 -14.808  0.00  0.00    +0.029 C 
ATOM     35  C   UNL     1      34.422 -24.678 -12.814  0.00  0.00    +0.029 C 
ATOM     36  C   UNL     1      33.207 -24.674 -13.500  0.00  0.00    +0.140 C 
ENDBRANCH  28  31
BRANCH  28  37
ATOM     37  N   UNL     1      37.567 -22.430 -14.369  0.00  0.00    +0.388 N 
ATOM     38  H   UNL     1      38.570 -22.539 -14.525  0.00  0.00    -0.088 HD
ATOM     39  H   UNL     1      37.324 -22.804 -13.452  0.00  0.00    -0.088 HD
ATOM     40  H   UNL     1      37.324 -21.440 -14.407  0.00  0.00    -0.088 HD
ENDBRANCH  28  37
ENDBRANCH  15  28
TORSDOF 4
ENDMDL
MODEL 4
REMARK VINA RESULT:      -7.8      8.005     16.219
REMARK  Name = 118023034
REMARK  4 active torsions:
REMARK  status: ('A' for Active; 'I' for Inactive)
REMARK    1  A    between atoms: C_15  and  C_28
REMARK    2  A    between atoms: C_17  and  C_24
REMARK    3  A    between atoms: C_28  and  C_31
REMARK    4  A    between atoms: C_28  and  N_37
REMARK                            x       y       z     vdW  Elec       q    Type
REMARK                         _______ _______ _______ _____ _____    ______ ____
ROOT
ATOM      1  N   UNL     1      31.416  -7.072 -22.599  0.00  0.00    -0.289 N 
ATOM      2  N   UNL     1      31.990  -9.855 -22.135  0.00  0.00    -0.250 N 
ATOM      3  N   UNL     1      31.321  -3.729 -24.121  0.00  0.00    -0.185 N 
ATOM      4  N   UNL     1      30.416  -5.077 -21.974  0.00  0.00    -0.206 NA
ATOM      5  N   UNL     1      31.815 -12.071 -22.832  0.00  0.00    -0.181 NA
ATOM      6  N   UNL     1      32.960 -11.493 -20.793  0.00  0.00    -0.203 NA
ATOM      7  N   UNL     1      30.563  -3.033 -23.240  0.00  0.00    -0.151 NA
ATOM      8  C   UNL     1      31.626  -7.998 -23.709  0.00  0.00    +0.114 C 
ATOM      9  C   UNL     1      31.507  -7.612 -21.245  0.00  0.00    +0.114 C 
ATOM     10  C   UNL     1      31.243  -9.425 -23.319  0.00  0.00    +0.123 C 
ATOM     11  C   UNL     1      32.436  -8.825 -21.194  0.00  0.00    +0.123 C 
ATOM     12  C   UNL     1      31.146  -5.763 -22.819  0.00  0.00    +0.149 C 
ATOM     13  C   UNL     1      32.267 -11.200 -21.910  0.00  0.00    +0.090 C 
ATOM     14  C   UNL     1      31.639  -5.054 -23.975  0.00  0.00    +0.106 C 
ATOM     15  C   UNL     1      32.803 -13.795 -21.476  0.00  0.00    -0.014 C 
ATOM     16  C   UNL     1      32.416  -5.429 -25.048  0.00  0.00    +0.021 C 
ATOM     17  C   UNL     1      32.570  -4.286 -25.872  0.00  0.00    +0.021 C 
ATOM     18  C   UNL     1      31.883  -3.250 -25.276  0.00  0.00    +0.090 C 
ATOM     19  C   UNL     1      32.101 -13.365 -22.584  0.00  0.00    +0.102 C 
ATOM     20  C   UNL     1      33.212 -12.806 -20.606  0.00  0.00    +0.160 C 
ATOM     21  C   UNL     1      30.158  -3.743 -22.226  0.00  0.00    +0.219 C 
ENDROOT
BRANCH  17  24
ATOM     22  N   UNL     1      34.867  -4.272 -28.648  0.00  0.00    -0.208 N 
ATOM     23  N   UNL     1      33.734  -4.091 -29.348  0.00  0.00    -0.176 NA
ATOM     24  C   UNL     1      33.320  -4.252 -27.107  0.00  0.00    +0.038 C 
ATOM     25  C   UNL     1      34.673  -4.375 -27.302  0.00  0.00    +0.086 C 
ATOM     26  C   UNL     1      32.792  -4.080 -28.401  0.00  0.00    +0.119 C 
ATOM     27  C   UNL     1      36.132  -4.339 -29.340  0.00  0.00    +0.140 C 
ENDBRANCH  17  24
BRANCH  15  28
ATOM     28  C   UNL     1      33.099 -15.230 -21.237  0.00  0.00    -0.010 C 
ATOM     29  C   UNL     1      34.086 -15.379 -20.023  0.00  0.00    -0.014 C 
BRANCH  28  31
ATOM     30  F   UNL     1      35.082 -17.818 -25.904  0.00  0.00    -0.204 F 
ATOM     31  C   UNL     1      33.643 -15.940 -22.519  0.00  0.00    -0.037 C 
ATOM     32  C   UNL     1      34.243 -17.197 -22.418  0.00  0.00    -0.004 C 
ATOM     33  C   UNL     1      33.530 -15.319 -23.763  0.00  0.00    -0.004 C 
ATOM     34  C   UNL     1      34.729 -17.831 -23.561  0.00  0.00    +0.029 C 
ATOM     35  C   UNL     1      34.016 -15.954 -24.906  0.00  0.00    +0.029 C 
ATOM     36  C   UNL     1      34.615 -17.209 -24.806  0.00  0.00    +0.140 C 
ENDBRANCH  28  31
BRANCH  28  37
ATOM     37  N   UNL     1      31.926 -16.057 -20.776  0.00  0.00    +0.388 N 
ATOM     38  H   UNL     1      31.464 -15.588 -19.997  0.00  0.00    -0.088 HD
ATOM     39  H   UNL     1      32.253 -16.975 -20.475  0.00  0.00    -0.088 HD
ATOM     40  H   UNL     1      31.265 -16.168 -21.546  0.00  0.00    -0.088 HD
ENDBRANCH  28  37
ENDBRANCH  15  28
TORSDOF 4
ENDMDL
MODEL 5
REMARK VINA RESULT:      -7.5      4.845      9.650
REMARK  Name = 118023034
REMARK  4 active torsions:
REMARK  status: ('A' for Active; 'I' for Inactive)
REMARK    1  A    between atoms: C_15  and  C_28
REMARK    2  A    between atoms: C_17  and  C_24
REMARK    3  A    between atoms: C_28  and  C_31
REMARK    4  A    between atoms: C_28  and  N_37
REMARK                            x       y       z     vdW  Elec       q    Type
REMARK                         _______ _______ _______ _____ _____    ______ ____
ROOT
ATOM      1  N   UNL     1      33.531 -15.457 -24.075  0.00  0.00    -0.289 N 
ATOM      2  N   UNL     1      33.093 -12.807 -23.034  0.00  0.00    -0.250 N 
ATOM      3  N   UNL     1      34.525 -18.983 -24.351  0.00  0.00    -0.185 N 
ATOM      4  N   UNL     1      33.381 -17.013 -25.785  0.00  0.00    -0.206 NA
ATOM      5  N   UNL     1      32.066 -11.425 -21.466  0.00  0.00    -0.181 NA
ATOM      6  N   UNL     1      33.514 -10.520 -23.166  0.00  0.00    -0.203 NA
ATOM      7  N   UNL     1      34.151 -19.289 -25.617  0.00  0.00    -0.151 NA
ATOM      8  C   UNL     1      33.294 -15.231 -22.651  0.00  0.00    +0.114 C 
ATOM      9  C   UNL     1      33.535 -14.288 -24.951  0.00  0.00    +0.114 C 
ATOM     10  C   UNL     1      32.454 -13.974 -22.422  0.00  0.00    +0.123 C 
ATOM     11  C   UNL     1      33.961 -13.030 -24.193  0.00  0.00    +0.123 C 
ATOM     12  C   UNL     1      33.736 -16.703 -24.562  0.00  0.00    +0.149 C 
ATOM     13  C   UNL     1      32.881 -11.527 -22.533  0.00  0.00    +0.090 C 
ATOM     14  C   UNL     1      34.352 -17.748 -23.781  0.00  0.00    +0.106 C 
ATOM     15  C   UNL     1      32.473  -9.056 -21.564  0.00  0.00    -0.014 C 
ATOM     16  C   UNL     1      34.844 -17.797 -22.496  0.00  0.00    +0.021 C 
ATOM     17  C   UNL     1      35.331 -19.112 -22.285  0.00  0.00    +0.021 C 
ATOM     18  C   UNL     1      35.121 -19.823 -23.447  0.00  0.00    +0.090 C 
ATOM     19  C   UNL     1      31.883 -10.171 -21.005  0.00  0.00    +0.102 C 
ATOM     20  C   UNL     1      33.286  -9.292 -22.653  0.00  0.00    +0.160 C 
ATOM     21  C   UNL     1      33.605 -18.293 -26.254  0.00  0.00    +0.219 C 
ENDROOT
BRANCH  17  24
ATOM     22  N   UNL     1      36.460 -20.664 -19.235  0.00  0.00    -0.208 N 
ATOM     23  N   UNL     1      37.374 -19.680 -19.289  0.00  0.00    -0.176 NA
ATOM     24  C   UNL     1      35.933 -19.584 -21.059  0.00  0.00    +0.038 C 
ATOM     25  C   UNL     1      35.574 -20.650 -20.272  0.00  0.00    +0.086 C 
ATOM     26  C   UNL     1      37.047 -19.024 -20.406  0.00  0.00    +0.119 C 
ATOM     27  C   UNL     1      36.486 -21.606 -18.141  0.00  0.00    +0.140 C 
ENDBRANCH  17  24
BRANCH  15  28
ATOM     28  C   UNL     1      32.248  -7.691 -21.027  0.00  0.00    -0.010 C 
ATOM     29  C   UNL     1      31.246  -7.748 -19.818  0.00  0.00    -0.014 C 
BRANCH  28  31
ATOM     30  F   UNL     1      30.500  -4.069 -25.057  0.00  0.00    -0.204 F 
ATOM     31  C   UNL     1      31.768  -6.695 -22.134  0.00  0.00    -0.037 C 
ATOM     32  C   UNL     1      31.286  -7.184 -23.349  0.00  0.00    -0.004 C 
ATOM     33  C   UNL     1      31.821  -5.321 -21.907  0.00  0.00    -0.004 C 
ATOM     34  C   UNL     1      30.858  -6.297 -24.337  0.00  0.00    +0.029 C 
ATOM     35  C   UNL     1      31.393  -4.434 -22.894  0.00  0.00    +0.029 C 
ATOM     36  C   UNL     1      30.911  -4.921 -24.109  0.00  0.00    +0.140 C 
ENDBRANCH  28  31
BRANCH  28  37
ATOM     37  N   UNL     1      33.453  -7.046 -20.391  0.00  0.00    +0.388 N 
ATOM     38  H   UNL     1      33.236  -6.078 -20.153  0.00  0.00    -0.088 HD
ATOM     39  H   UNL     1      34.236  -7.068 -21.043  0.00  0.00    -0.088 HD
ATOM     40  H   UNL     1      33.703  -7.555 -19.543  0.00  0.00    -0.088 HD
ENDBRANCH  28  37
ENDBRANCH  15  28
TORSDOF 4
ENDMDL
MODEL 6
REMARK VINA RESULT:      -7.3      6.220     13.790
REMARK  Name = 118023034
REMARK  4 active torsions:
REMARK  status: ('A' for Active; 'I' for Inactive)
REMARK    1  A    between atoms: C_15  and  C_28
REMARK    2  A    between atoms: C_17  and  C_24
REMARK    3  A    between atoms: C_28  and  C_31
REMARK    4  A    between atoms: C_28  and  N_37
REMARK                            x       y       z     vdW  Elec       q    Type
REMARK                         _______ _______ _______ _____ _____    ______ ____
ROOT
ATOM      1  N   UNL     1      32.407 -10.652 -21.182  0.00  0.00    -0.289 N 
ATOM      2  N   UNL     1      33.286 -13.338 -21.739  0.00  0.00    -0.250 N 
ATOM      3  N   UNL     1      31.815  -7.038 -21.473  0.00  0.00    -0.185 N 
ATOM      4  N   UNL     1      31.322  -9.114 -19.832  0.00  0.00    -0.206 NA
ATOM      5  N   UNL     1      33.221 -15.211 -23.123  0.00  0.00    -0.181 NA
ATOM      6  N   UNL     1      34.566 -15.184 -21.123  0.00  0.00    -0.203 NA
ATOM      7  N   UNL     1      31.119  -6.769 -20.343  0.00  0.00    -0.151 NA
ATOM      8  C   UNL     1      32.554 -11.133 -22.554  0.00  0.00    +0.114 C 
ATOM      9  C   UNL     1      32.722 -11.586 -20.104  0.00  0.00    +0.114 C 
ATOM     10  C   UNL     1      32.356 -12.647 -22.634  0.00  0.00    +0.123 C 
ATOM     11  C   UNL     1      33.755 -12.621 -20.551  0.00  0.00    +0.123 C 
ATOM     12  C   UNL     1      31.995  -9.390 -20.922  0.00  0.00    +0.149 C 
ATOM     13  C   UNL     1      33.710 -14.636 -22.007  0.00  0.00    +0.090 C 
ATOM     14  C   UNL     1      32.268  -8.287 -21.812  0.00  0.00    +0.106 C 
ATOM     15  C   UNL     1      34.529 -17.141 -22.525  0.00  0.00    -0.014 C 
ATOM     16  C   UNL     1      32.929  -8.190 -23.016  0.00  0.00    +0.021 C 
ATOM     17  C   UNL     1      32.871  -6.832 -23.417  0.00  0.00    +0.021 C 
ATOM     18  C   UNL     1      32.177  -6.143 -22.445  0.00  0.00    +0.090 C 
ATOM     19  C   UNL     1      33.653 -16.468 -23.352  0.00  0.00    +0.102 C 
ATOM     20  C   UNL     1      34.956 -16.443 -21.414  0.00  0.00    +0.160 C 
ATOM     21  C   UNL     1      30.915  -7.815 -19.594  0.00  0.00    +0.219 C 
ENDROOT
BRANCH  17  24
ATOM     22  N   UNL     1      33.851  -5.257 -26.506  0.00  0.00    -0.208 N 
ATOM     23  N   UNL     1      34.986  -5.939 -26.280  0.00  0.00    -0.176 NA
ATOM     24  C   UNL     1      33.448  -6.303 -24.632  0.00  0.00    +0.038 C 
ATOM     25  C   UNL     1      32.898  -5.441 -25.548  0.00  0.00    +0.086 C 
ATOM     26  C   UNL     1      34.735  -6.576 -25.133  0.00  0.00    +0.119 C 
ATOM     27  C   UNL     1      33.735  -4.430 -27.683  0.00  0.00    +0.140 C 
ENDBRANCH  17  24
BRANCH  15  28
ATOM     28  C   UNL     1      34.981 -18.524 -22.812  0.00  0.00    -0.010 C 
ATOM     29  C   UNL     1      34.391 -19.008 -24.186  0.00  0.00    -0.014 C 
BRANCH  28  31
ATOM     30  F   UNL     1      33.707 -22.115 -18.582  0.00  0.00    -0.204 F 
ATOM     31  C   UNL     1      34.632 -19.511 -21.650  0.00  0.00    -0.037 C 
ATOM     32  C   UNL     1      33.298 -19.731 -21.300  0.00  0.00    -0.004 C 
ATOM     33  C   UNL     1      35.651 -20.170 -20.964  0.00  0.00    -0.004 C 
ATOM     34  C   UNL     1      32.986 -20.610 -20.264  0.00  0.00    +0.029 C 
ATOM     35  C   UNL     1      35.338 -21.049 -19.927  0.00  0.00    +0.029 C 
ATOM     36  C   UNL     1      34.007 -21.270 -19.577  0.00  0.00    +0.140 C 
ENDBRANCH  28  31
BRANCH  28  37
ATOM     37  N   UNL     1      36.462 -18.677 -23.048  0.00  0.00    +0.388 N 
ATOM     38  H   UNL     1      36.835 -17.814 -23.443  0.00  0.00    -0.088 HD
ATOM     39  H   UNL     1      36.626 -19.446 -23.697  0.00  0.00    -0.088 HD
ATOM     40  H   UNL     1      36.929 -18.875 -22.163  0.00  0.00    -0.088 HD
ENDBRANCH  28  37
ENDBRANCH  15  28
TORSDOF 4
ENDMDL
MODEL 7
REMARK VINA RESULT:      -6.9      3.605     11.181
REMARK  Name = 118023034
REMARK  4 active torsions:
REMARK  status: ('A' for Active; 'I' for Inactive)
REMARK    1  A    between atoms: C_15  and  C_28
REMARK    2  A    between atoms: C_17  and  C_24
REMARK    3  A    between atoms: C_28  and  C_31
REMARK    4  A    between atoms: C_28  and  N_37
REMARK                            x       y       z     vdW  Elec       q    Type
REMARK                         _______ _______ _______ _____ _____    ______ ____
ROOT
ATOM      1  N   UNL     1      34.812 -19.604 -21.830  0.00  0.00    -0.289 N 
ATOM      2  N   UNL     1      34.883 -21.274 -19.484  0.00  0.00    -0.250 N 
ATOM      3  N   UNL     1      34.302 -16.728 -24.058  0.00  0.00    -0.185 N 
ATOM      4  N   UNL     1      35.180 -19.273 -24.093  0.00  0.00    -0.206 NA
ATOM      5  N   UNL     1      35.706 -21.667 -17.340  0.00  0.00    -0.181 NA
ATOM      6  N   UNL     1      34.160 -23.194 -18.382  0.00  0.00    -0.203 NA
ATOM      7  N   UNL     1      34.722 -17.212 -25.252  0.00  0.00    -0.151 NA
ATOM      8  C   UNL     1      35.007 -19.034 -20.499  0.00  0.00    +0.114 C 
ATOM      9  C   UNL     1      34.656 -21.054 -21.925  0.00  0.00    +0.114 C 
ATOM     10  C   UNL     1      35.669 -20.040 -19.557  0.00  0.00    +0.123 C 
ATOM     11  C   UNL     1      34.060 -21.632 -20.641  0.00  0.00    +0.123 C 
ATOM     12  C   UNL     1      34.778 -18.819 -22.931  0.00  0.00    +0.149 C 
ATOM     13  C   UNL     1      34.918 -22.082 -18.351  0.00  0.00    +0.090 C 
ATOM     14  C   UNL     1      34.304 -17.456 -22.896  0.00  0.00    +0.106 C 
ATOM     15  C   UNL     1      34.984 -23.639 -16.165  0.00  0.00    -0.014 C 
ATOM     16  C   UNL     1      33.815 -16.655 -21.889  0.00  0.00    +0.021 C 
ATOM     17  C   UNL     1      33.508 -15.398 -22.467  0.00  0.00    +0.021 C 
ATOM     18  C   UNL     1      33.818 -15.471 -23.807  0.00  0.00    +0.090 C 
ATOM     19  C   UNL     1      35.715 -22.472 -16.258  0.00  0.00    +0.102 C 
ATOM     20  C   UNL     1      34.217 -23.953 -17.267  0.00  0.00    +0.160 C 
ATOM     21  C   UNL     1      35.133 -18.446 -25.200  0.00  0.00    +0.219 C 
ENDROOT
BRANCH  17  24
ATOM     22  N   UNL     1      32.068 -12.368 -21.149  0.00  0.00    -0.208 N 
ATOM     23  N   UNL     1      32.329 -12.971 -19.977  0.00  0.00    -0.176 NA
ATOM     24  C   UNL     1      32.967 -14.267 -21.747  0.00  0.00    +0.038 C 
ATOM     25  C   UNL     1      32.431 -13.103 -22.239  0.00  0.00    +0.086 C 
ATOM     26  C   UNL     1      32.878 -14.132 -20.349  0.00  0.00    +0.119 C 
ATOM     27  C   UNL     1      31.459 -11.060 -21.160  0.00  0.00    +0.140 C 
ENDBRANCH  17  24
BRANCH  15  28
ATOM     28  C   UNL     1      35.021 -24.499 -14.956  0.00  0.00    -0.010 C 
ATOM     29  C   UNL     1      33.663 -24.382 -14.173  0.00  0.00    -0.014 C 
BRANCH  28  31
ATOM     30  F   UNL     1      39.492 -23.334 -11.630  0.00  0.00    -0.204 F 
ATOM     31  C   UNL     1      36.249 -24.178 -14.042  0.00  0.00    -0.037 C 
ATOM     32  C   UNL     1      37.497 -24.731 -14.334  0.00  0.00    -0.004 C 
ATOM     33  C   UNL     1      36.097 -23.342 -12.937  0.00  0.00    -0.004 C 
ATOM     34  C   UNL     1      38.593 -24.446 -13.519  0.00  0.00    +0.029 C 
ATOM     35  C   UNL     1      37.193 -23.057 -12.122  0.00  0.00    +0.029 C 
ATOM     36  C   UNL     1      38.440 -23.608 -12.413  0.00  0.00    +0.140 C 
ENDBRANCH  28  31
BRANCH  28  37
ATOM     37  N   UNL     1      35.087 -25.980 -15.226  0.00  0.00    +0.388 N 
ATOM     38  H   UNL     1      35.800 -26.404 -14.632  0.00  0.00    -0.088 HD
ATOM     39  H   UNL     1      35.322 -26.138 -16.206  0.00  0.00    -0.088 HD
ATOM     40  H   UNL     1      34.181 -26.404 -15.022  0.00  0.00    -0.088 HD
ENDBRANCH  28  37
ENDBRANCH  15  28
TORSDOF 4
ENDMDL
MODEL 8
REMARK VINA RESULT:      -6.9      6.968     15.227
REMARK  Name = 118023034
REMARK  4 active torsions:
REMARK  status: ('A' for Active; 'I' for Inactive)
REMARK    1  A    between atoms: C_15  and  C_28
REMARK    2  A    between atoms: C_17  and  C_24
REMARK    3  A    between atoms: C_28  and  C_31
REMARK    4  A    between atoms: C_28  and  N_37
REMARK                            x       y       z     vdW  Elec       q    Type
REMARK                         _______ _______ _______ _____ _____    ______ ____
ROOT
ATOM      1  N   UNL     1      32.204  -9.102 -23.351  0.00  0.00    -0.289 N 
ATOM      2  N   UNL     1      33.119 -11.832 -23.389  0.00  0.00    -0.250 N 
ATOM      3  N   UNL     1      31.836  -5.529 -24.122  0.00  0.00    -0.185 N 
ATOM      4  N   UNL     1      30.827  -7.438 -22.514  0.00  0.00    -0.206 NA
ATOM      5  N   UNL     1      33.394 -13.828 -24.560  0.00  0.00    -0.181 NA
ATOM      6  N   UNL     1      34.109 -13.618 -22.268  0.00  0.00    -0.203 NA
ATOM      7  N   UNL     1      30.854  -5.150 -23.269  0.00  0.00    -0.151 NA
ATOM      8  C   UNL     1      32.722  -9.711 -24.574  0.00  0.00    +0.114 C 
ATOM      9  C   UNL     1      32.167  -9.931 -22.149  0.00  0.00    +0.114 C 
ATOM     10  C   UNL     1      32.507 -11.224 -24.573  0.00  0.00    +0.123 C 
ATOM     11  C   UNL     1      33.251 -11.008 -22.186  0.00  0.00    +0.123 C 
ATOM     12  C   UNL     1      31.775  -7.818 -23.335  0.00  0.00    +0.149 C 
ATOM     13  C   UNL     1      33.560 -13.152 -23.406  0.00  0.00    +0.090 C 
ATOM     14  C   UNL     1      32.326  -6.806 -24.203  0.00  0.00    +0.106 C 
ATOM     15  C   UNL     1      34.413 -15.698 -23.441  0.00  0.00    -0.014 C 
ATOM     16  C   UNL     1      33.308  -6.827 -25.169  0.00  0.00    +0.021 C 
ATOM     17  C   UNL     1      33.410  -5.513 -25.689  0.00  0.00    +0.021 C 
ATOM     18  C   UNL     1      32.490  -4.731 -25.024  0.00  0.00    +0.090 C 
ATOM     19  C   UNL     1      33.833 -15.103 -24.542  0.00  0.00    +0.102 C 
ATOM     20  C   UNL     1      34.526 -14.901 -22.321  0.00  0.00    +0.160 C 
ATOM     21  C   UNL     1      30.411  -6.120 -22.520  0.00  0.00    +0.219 C 
ENDROOT
BRANCH  17  24
ATOM     22  N   UNL     1      36.065  -4.754 -28.004  0.00  0.00    -0.208 N 
ATOM     23  N   UNL     1      35.074  -4.113 -28.646  0.00  0.00    -0.176 NA
ATOM     24  C   UNL     1      34.328  -5.104 -26.728  0.00  0.00    +0.038 C 
ATOM     25  C   UNL     1      35.670  -5.364 -26.850  0.00  0.00    +0.086 C 
ATOM     26  C   UNL     1      34.014  -4.330 -27.862  0.00  0.00    +0.119 C 
ATOM     27  C   UNL     1      37.399  -4.746 -28.557  0.00  0.00    +0.140 C 
ENDBRANCH  17  24
BRANCH  15  28
ATOM     28  C   UNL     1      34.884 -17.105 -23.461  0.00  0.00    -0.010 C 
ATOM     29  C   UNL     1      34.703 -17.712 -24.899  0.00  0.00    -0.014 C 
BRANCH  28  31
ATOM     30  F   UNL     1      32.326 -20.282 -19.489  0.00  0.00    -0.204 F 
ATOM     31  C   UNL     1      34.181 -17.977 -22.369  0.00  0.00    -0.037 C 
ATOM     32  C   UNL     1      34.620 -19.280 -22.130  0.00  0.00    -0.004 C 
ATOM     33  C   UNL     1      33.117 -17.454 -21.636  0.00  0.00    -0.004 C 
ATOM     34  C   UNL     1      33.993 -20.059 -21.157  0.00  0.00    +0.029 C 
ATOM     35  C   UNL     1      32.490 -18.232 -20.663  0.00  0.00    +0.029 C 
ATOM     36  C   UNL     1      32.928 -19.535 -20.423  0.00  0.00    +0.140 C 
ENDBRANCH  28  31
BRANCH  28  37
ATOM     37  N   UNL     1      36.364 -17.287 -23.240  0.00  0.00    +0.388 N 
ATOM     38  H   UNL     1      36.861 -17.134 -24.118  0.00  0.00    -0.088 HD
ATOM     39  H   UNL     1      36.546 -18.234 -22.909  0.00  0.00    -0.088 HD
ATOM     40  H   UNL     1      36.690 -16.616 -22.545  0.00  0.00    -0.088 HD
ENDBRANCH  28  37
ENDBRANCH  15  28
TORSDOF 4
ENDMDL
MODEL 9
REMARK VINA RESULT:      -6.7      0.958      1.340
REMARK  Name = 118023034
REMARK  4 active torsions:
REMARK  status: ('A' for Active; 'I' for Inactive)
REMARK    1  A    between atoms: C_15  and  C_28
REMARK    2  A    between atoms: C_17  and  C_24
REMARK    3  A    between atoms: C_28  and  C_31
REMARK    4  A    between atoms: C_28  and  N_37
REMARK                            x       y       z     vdW  Elec       q    Type
REMARK                         _______ _______ _______ _____ _____    ______ ____
ROOT
ATOM      1  N   UNL     1      36.081 -21.457 -18.412  0.00  0.00    -0.289 N 
ATOM      2  N   UNL     1      35.458 -19.697 -20.604  0.00  0.00    -0.250 N 
ATOM      3  N   UNL     1      35.730 -23.753 -15.565  0.00  0.00    -0.185 N 
ATOM      4  N   UNL     1      37.616 -22.537 -17.053  0.00  0.00    -0.206 NA
ATOM      5  N   UNL     1      34.480 -19.384 -22.695  0.00  0.00    -0.181 NA
ATOM      6  N   UNL     1      35.576 -17.570 -21.548  0.00  0.00    -0.203 NA
ATOM      7  N   UNL     1      37.021 -24.005 -15.237  0.00  0.00    -0.151 NA
ATOM      8  C   UNL     1      34.866 -21.633 -19.203  0.00  0.00    +0.114 C 
ATOM      9  C   UNL     1      36.969 -20.355 -18.775  0.00  0.00    +0.114 C 
ATOM     10  C   UNL     1      35.050 -21.103 -20.625  0.00  0.00    +0.123 C 
ATOM     11  C   UNL     1      36.193 -19.214 -19.432  0.00  0.00    +0.123 C 
ATOM     12  C   UNL     1      36.372 -22.285 -17.381  0.00  0.00    +0.149 C 
ATOM     13  C   UNL     1      35.158 -18.845 -21.663  0.00  0.00    +0.090 C 
ATOM     14  C   UNL     1      35.350 -22.930 -16.592  0.00  0.00    +0.106 C 
ATOM     15  C   UNL     1      34.578 -17.203 -23.707  0.00  0.00    -0.014 C 
ATOM     16  C   UNL     1      33.974 -22.907 -16.635  0.00  0.00    +0.021 C 
ATOM     17  C   UNL     1      33.509 -23.749 -15.594  0.00  0.00    +0.021 C 
ATOM     18  C   UNL     1      34.615 -24.259 -14.949  0.00  0.00    +0.090 C 
ATOM     19  C   UNL     1      34.206 -18.532 -23.703  0.00  0.00    +0.102 C 
ATOM     20  C   UNL     1      35.268 -16.773 -22.592  0.00  0.00    +0.160 C 
ATOM     21  C   UNL     1      37.881 -23.387 -15.996  0.00  0.00    +0.219 C 
ENDROOT
BRANCH  17  24
ATOM     22  N   UNL     1      30.221 -24.742 -14.504  0.00  0.00    -0.208 N 
ATOM     23  N   UNL     1      29.845 -23.807 -15.392  0.00  0.00    -0.176 NA
ATOM     24  C   UNL     1      32.118 -24.003 -15.294  0.00  0.00    +0.038 C 
ATOM     25  C   UNL     1      31.573 -24.898 -14.408  0.00  0.00    +0.086 C 
ATOM     26  C   UNL     1      31.008 -23.358 -15.871  0.00  0.00    +0.119 C 
ATOM     27  C   UNL     1      29.219 -25.470 -13.763  0.00  0.00    +0.140 C 
ENDBRANCH  17  24
BRANCH  15  28
ATOM     28  C   UNL     1      34.257 -16.296 -24.836  0.00  0.00    -0.010 C 
ATOM     29  C   UNL     1      35.489 -16.189 -25.806  0.00  0.00    -0.014 C 
BRANCH  28  31
ATOM     30  F   UNL     1      32.518 -11.179 -23.048  0.00  0.00    -0.204 F 
ATOM     31  C   UNL     1      33.780 -14.890 -24.346  0.00  0.00    -0.037 C 
ATOM     32  C   UNL     1      32.951 -14.787 -23.228  0.00  0.00    -0.004 C 
ATOM     33  C   UNL     1      34.182 -13.740 -25.024  0.00  0.00    -0.004 C 
ATOM     34  C   UNL     1      32.524 -13.534 -22.789  0.00  0.00    +0.029 C 
ATOM     35  C   UNL     1      33.756 -12.487 -24.586  0.00  0.00    +0.029 C 
ATOM     36  C   UNL     1      32.927 -12.383 -23.469  0.00  0.00    +0.140 C 
ENDBRANCH  28  31
BRANCH  28  37
ATOM     37  N   UNL     1      33.181 -16.791 -25.769  0.00  0.00    +0.388 N 
ATOM     38  H   UNL     1      32.357 -17.056 -25.229  0.00  0.00    -0.088 HD
ATOM     39  H   UNL     1      33.523 -17.602 -26.285  0.00  0.00    -0.088 HD
ATOM     40  H   UNL     1      32.933 -16.051 -26.426  0.00  0.00    -0.088 HD
ENDBRANCH  28  37
ENDBRANCH  15  28
TORSDOF 4
ENDMDL
