MODEL 1
REMARK VINA RESULT:      -7.9      0.000      0.000
REMARK  Name = 5795340
REMARK  1 active torsions:
REMARK  status: ('A' for Active; 'I' for Inactive)
REMARK    1  A    between atoms: C_13  and  O_15
REMARK                            x       y       z     vdW  Elec       q    Type
REMARK                         _______ _______ _______ _____ _____    ______ ____
ROOT
ATOM      1 BR   UNL     1      33.326 -12.791 -23.188  0.00  0.00    -0.043 Br
ATOM      2 BR   UNL     1      35.817 -19.102 -20.936  0.00  0.00    -0.043 Br
ATOM      3  O   UNL     1      34.395 -15.402 -22.105  0.00  0.00    -0.420 OA
ATOM      4  O   UNL     1      35.156 -16.274 -20.155  0.00  0.00    -0.244 OA
ATOM      5  C   UNL     1      34.299 -16.768 -24.116  0.00  0.00    +0.032 A 
ATOM      6  C   UNL     1      34.841 -17.909 -23.347  0.00  0.00    -0.006 A 
ATOM      7  C   UNL     1      34.094 -15.554 -23.468  0.00  0.00    +0.157 A 
ATOM      8  C   UNL     1      33.970 -16.828 -25.480  0.00  0.00    +0.006 C 
ATOM      9  C   UNL     1      33.586 -14.428 -24.121  0.00  0.00    +0.103 C 
ATOM     10  C   UNL     1      35.123 -17.741 -22.038  0.00  0.00    +0.107 A 
ATOM     11  C   UNL     1      35.042 -19.201 -24.104  0.00  0.00    +0.032 C 
ATOM     12  C   UNL     1      33.458 -15.710 -26.150  0.00  0.00    +0.037 C 
ATOM     13  C   UNL     1      33.267 -14.510 -25.471  0.00  0.00    +0.143 C 
ATOM     14  C   UNL     1      34.904 -16.441 -21.345  0.00  0.00    +0.352 A 
ENDROOT
BRANCH  13  15
ATOM     15  O   UNL     1      32.769 -13.445 -26.159  0.00  0.00    -0.505 OA
ATOM     16  H   UNL     1      33.250 -13.086 -26.879  0.00  0.00    +0.292 HD
ENDBRANCH  13  15
TORSDOF 1
ENDMDL
MODEL 2
REMARK VINA RESULT:      -7.8      8.116     10.966
REMARK  Name = 5795340
REMARK  1 active torsions:
REMARK  status: ('A' for Active; 'I' for Inactive)
REMARK    1  A    between atoms: C_13  and  O_15
REMARK                            x       y       z     vdW  Elec       q    Type
REMARK                         _______ _______ _______ _____ _____    ______ ____
ROOT
ATOM      1 BR   UNL     1      30.908 -24.247 -15.670  0.00  0.00    -0.043 Br
ATOM      2 BR   UNL     1      35.916 -21.299 -19.833  0.00  0.00    -0.043 Br
ATOM      3  O   UNL     1      32.926 -22.987 -17.533  0.00  0.00    -0.420 OA
ATOM      4  O   UNL     1      33.032 -22.128 -19.629  0.00  0.00    -0.244 OA
ATOM      5  C   UNL     1      34.903 -23.036 -16.116  0.00  0.00    +0.032 A 
ATOM      6  C   UNL     1      35.679 -22.404 -17.204  0.00  0.00    -0.006 A 
ATOM      7  C   UNL     1      33.553 -23.306 -16.318  0.00  0.00    +0.157 A 
ATOM      8  C   UNL     1      35.446 -23.390 -14.870  0.00  0.00    +0.006 C 
ATOM      9  C   UNL     1      32.749 -23.901 -15.342  0.00  0.00    +0.103 C 
ATOM     10  C   UNL     1      35.056 -22.106 -18.364  0.00  0.00    +0.107 A 
ATOM     11  C   UNL     1      37.140 -22.137 -16.927  0.00  0.00    +0.032 C 
ATOM     12  C   UNL     1      34.655 -23.986 -13.880  0.00  0.00    +0.037 C 
ATOM     13  C   UNL     1      33.307 -24.242 -14.116  0.00  0.00    +0.143 C 
ATOM     14  C   UNL     1      33.611 -22.394 -18.580  0.00  0.00    +0.352 A 
ENDROOT
BRANCH  13  15
ATOM     15  O   UNL     1      32.572 -24.825 -13.128  0.00  0.00    -0.505 OA
ATOM     16  H   UNL     1      32.925 -24.898 -12.263  0.00  0.00    +0.292 HD
ENDBRANCH  13  15
TORSDOF 1
ENDMDL
MODEL 3
REMARK VINA RESULT:      -7.8     10.793     12.251
REMARK  Name = 5795340
REMARK  1 active torsions:
REMARK  status: ('A' for Active; 'I' for Inactive)
REMARK    1  A    between atoms: C_13  and  O_15
REMARK                            x       y       z     vdW  Elec       q    Type
REMARK                         _______ _______ _______ _____ _____    ______ ____
ROOT
ATOM      1 BR   UNL     1      30.857 -24.381 -13.501  0.00  0.00    -0.043 Br
ATOM      2 BR   UNL     1      37.902 -24.274 -12.290  0.00  0.00    -0.043 Br
ATOM      3  O   UNL     1      33.809 -24.382 -12.856  0.00  0.00    -0.420 OA
ATOM      4  O   UNL     1      35.192 -24.855 -11.122  0.00  0.00    -0.244 OA
ATOM      5  C   UNL     1      34.710 -23.613 -14.981  0.00  0.00    +0.032 A 
ATOM      6  C   UNL     1      36.074 -23.701 -14.416  0.00  0.00    -0.006 A 
ATOM      7  C   UNL     1      33.625 -23.956 -14.181  0.00  0.00    +0.157 A 
ATOM      8  C   UNL     1      34.430 -23.199 -16.293  0.00  0.00    +0.006 C 
ATOM      9  C   UNL     1      32.305 -23.901 -14.637  0.00  0.00    +0.103 C 
ATOM     10  C   UNL     1      36.228 -24.113 -13.140  0.00  0.00    +0.107 A 
ATOM     11  C   UNL     1      37.212 -23.315 -15.332  0.00  0.00    +0.032 C 
ATOM     12  C   UNL     1      33.114 -23.139 -16.767  0.00  0.00    +0.037 C 
ATOM     13  C   UNL     1      32.052 -23.488 -15.939  0.00  0.00    +0.143 C 
ATOM     14  C   UNL     1      35.066 -24.480 -12.284  0.00  0.00    +0.352 A 
ENDROOT
BRANCH  13  15
ATOM     15  O   UNL     1      30.786 -23.414 -16.437  0.00  0.00    -0.505 OA
ATOM     16  H   UNL     1      30.445 -24.116 -16.956  0.00  0.00    +0.292 HD
ENDBRANCH  13  15
TORSDOF 1
ENDMDL
MODEL 4
REMARK VINA RESULT:      -7.8     10.804     12.505
REMARK  Name = 5795340
REMARK  1 active torsions:
REMARK  status: ('A' for Active; 'I' for Inactive)
REMARK    1  A    between atoms: C_13  and  O_15
REMARK                            x       y       z     vdW  Elec       q    Type
REMARK                         _______ _______ _______ _____ _____    ______ ____
ROOT
ATOM      1 BR   UNL     1      35.717 -24.439 -11.593  0.00  0.00    -0.043 Br
ATOM      2 BR   UNL     1      29.886 -24.025 -15.708  0.00  0.00    -0.043 Br
ATOM      3  O   UNL     1      33.175 -24.317 -13.223  0.00  0.00    -0.420 OA
ATOM      4  O   UNL     1      30.969 -24.793 -13.010  0.00  0.00    -0.244 OA
ATOM      5  C   UNL     1      34.049 -23.415 -15.307  0.00  0.00    +0.032 A 
ATOM      6  C   UNL     1      32.686 -23.458 -15.878  0.00  0.00    -0.006 A 
ATOM      7  C   UNL     1      34.246 -23.846 -13.999  0.00  0.00    +0.157 A 
ATOM      8  C   UNL     1      35.178 -22.960 -16.007  0.00  0.00    +0.006 C 
ATOM      9  C   UNL     1      35.501 -23.838 -13.384  0.00  0.00    +0.103 C 
ATOM     10  C   UNL     1      31.670 -23.914 -15.115  0.00  0.00    +0.107 A 
ATOM     11  C   UNL     1      32.533 -22.978 -17.303  0.00  0.00    +0.032 C 
ATOM     12  C   UNL     1      36.443 -22.944 -15.407  0.00  0.00    +0.037 C 
ATOM     13  C   UNL     1      36.605 -23.384 -14.096  0.00  0.00    +0.143 C 
ATOM     14  C   UNL     1      31.882 -24.376 -13.715  0.00  0.00    +0.352 A 
ENDROOT
BRANCH  13  15
ATOM     15  O   UNL     1      37.852 -23.354 -13.549  0.00  0.00    -0.505 OA
ATOM     16  H   UNL     1      38.468 -24.033 -13.748  0.00  0.00    +0.292 HD
ENDBRANCH  13  15
TORSDOF 1
ENDMDL
MODEL 5
REMARK VINA RESULT:      -7.7      1.806      5.464
REMARK  Name = 5795340
REMARK  1 active torsions:
REMARK  status: ('A' for Active; 'I' for Inactive)
REMARK    1  A    between atoms: C_13  and  O_15
REMARK                            x       y       z     vdW  Elec       q    Type
REMARK                         _______ _______ _______ _____ _____    ______ ____
ROOT
ATOM      1 BR   UNL     1      34.949 -18.826 -23.559  0.00  0.00    -0.043 Br
ATOM      2 BR   UNL     1      32.835 -12.591 -26.344  0.00  0.00    -0.043 Br
ATOM      3  O   UNL     1      34.046 -16.255 -24.864  0.00  0.00    -0.420 OA
ATOM      4  O   UNL     1      33.441 -15.482 -26.908  0.00  0.00    -0.244 OA
ATOM      5  C   UNL     1      34.066 -14.769 -22.938  0.00  0.00    +0.032 A 
ATOM      6  C   UNL     1      33.615 -13.661 -23.807  0.00  0.00    -0.006 A 
ATOM      7  C   UNL     1      34.266 -16.027 -23.496  0.00  0.00    +0.157 A 
ATOM      8  C   UNL     1      34.310 -14.635 -21.561  0.00  0.00    +0.006 C 
ATOM      9  C   UNL     1      34.691 -17.127 -22.745  0.00  0.00    +0.103 C 
ATOM     10  C   UNL     1      33.410 -13.902 -25.120  0.00  0.00    +0.107 A 
ATOM     11  C   UNL     1      33.416 -12.318 -23.145  0.00  0.00    +0.032 C 
ATOM     12  C   UNL     1      34.735 -15.725 -20.793  0.00  0.00    +0.037 C 
ATOM     13  C   UNL     1      34.926 -16.970 -21.385  0.00  0.00    +0.143 C 
ATOM     14  C   UNL     1      33.624 -15.249 -25.717  0.00  0.00    +0.352 A 
ENDROOT
BRANCH  13  15
ATOM     15  O   UNL     1      35.342 -18.005 -20.603  0.00  0.00    -0.505 OA
ATOM     16  H   UNL     1      34.762 -18.718 -20.421  0.00  0.00    +0.292 HD
ENDBRANCH  13  15
TORSDOF 1
ENDMDL
MODEL 6
REMARK VINA RESULT:      -7.6      8.161     10.171
REMARK  Name = 5795340
REMARK  1 active torsions:
REMARK  status: ('A' for Active; 'I' for Inactive)
REMARK    1  A    between atoms: C_13  and  O_15
REMARK                            x       y       z     vdW  Elec       q    Type
REMARK                         _______ _______ _______ _____ _____    ______ ____
ROOT
ATOM      1 BR   UNL     1      35.915 -21.630 -19.534  0.00  0.00    -0.043 Br
ATOM      2 BR   UNL     1      37.148 -24.242 -12.995  0.00  0.00    -0.043 Br
ATOM      3  O   UNL     1      36.577 -22.711 -16.791  0.00  0.00    -0.420 OA
ATOM      4  O   UNL     1      38.387 -23.077 -15.475  0.00  0.00    -0.244 OA
ATOM      5  C   UNL     1      34.343 -23.269 -16.003  0.00  0.00    +0.032 A 
ATOM      6  C   UNL     1      34.928 -23.742 -14.730  0.00  0.00    -0.006 A 
ATOM      7  C   UNL     1      35.188 -22.770 -16.989  0.00  0.00    +0.157 A 
ATOM      8  C   UNL     1      32.969 -23.289 -16.289  0.00  0.00    +0.006 C 
ATOM      9  C   UNL     1      34.717 -22.303 -18.220  0.00  0.00    +0.103 C 
ATOM     10  C   UNL     1      36.266 -23.677 -14.560  0.00  0.00    +0.107 A 
ATOM     11  C   UNL     1      33.962 -24.274 -13.698  0.00  0.00    +0.032 C 
ATOM     12  C   UNL     1      32.479 -22.825 -17.516  0.00  0.00    +0.037 C 
ATOM     13  C   UNL     1      33.353 -22.332 -18.481  0.00  0.00    +0.143 C 
ATOM     14  C   UNL     1      37.170 -23.142 -15.616  0.00  0.00    +0.352 A 
ENDROOT
BRANCH  13  15
ATOM     15  O   UNL     1      32.837 -21.892 -19.662  0.00  0.00    -0.505 OA
ATOM     16  H   UNL     1      33.294 -21.243 -20.161  0.00  0.00    +0.292 HD
ENDBRANCH  13  15
TORSDOF 1
ENDMDL
MODEL 7
REMARK VINA RESULT:      -7.5      2.926      4.122
REMARK  Name = 5795340
REMARK  1 active torsions:
REMARK  status: ('A' for Active; 'I' for Inactive)
REMARK    1  A    between atoms: C_13  and  O_15
REMARK                            x       y       z     vdW  Elec       q    Type
REMARK                         _______ _______ _______ _____ _____    ______ ____
ROOT
ATOM      1 BR   UNL     1      34.083 -11.252 -25.002  0.00  0.00    -0.043 Br
ATOM      2 BR   UNL     1      34.358 -17.428 -21.412  0.00  0.00    -0.043 Br
ATOM      3  O   UNL     1      34.295 -13.910 -23.580  0.00  0.00    -0.420 OA
ATOM      4  O   UNL     1      35.403 -15.879 -23.768  0.00  0.00    -0.244 OA
ATOM      5  C   UNL     1      32.723 -13.546 -21.759  0.00  0.00    +0.032 A 
ATOM      6  C   UNL     1      33.009 -14.908 -21.261  0.00  0.00    -0.006 A 
ATOM      7  C   UNL     1      33.377 -13.094 -22.901  0.00  0.00    +0.157 A 
ATOM      8  C   UNL     1      31.821 -12.661 -21.147  0.00  0.00    +0.006 C 
ATOM      9  C   UNL     1      33.164 -11.820 -23.437  0.00  0.00    +0.103 C 
ATOM     10  C   UNL     1      33.896 -15.676 -21.929  0.00  0.00    +0.107 A 
ATOM     11  C   UNL     1      32.269 -15.344 -20.018  0.00  0.00    +0.032 C 
ATOM     12  C   UNL     1      31.596 -11.381 -21.669  0.00  0.00    +0.037 C 
ATOM     13  C   UNL     1      32.267 -10.962 -22.814  0.00  0.00    +0.143 C 
ATOM     14  C   UNL     1      34.595 -15.192 -23.152  0.00  0.00    +0.352 A 
ENDROOT
BRANCH  13  15
ATOM     15  O   UNL     1      32.019  -9.710 -23.292  0.00  0.00    -0.505 OA
ATOM     16  H   UNL     1      31.828  -9.584 -24.201  0.00  0.00    +0.292 HD
ENDBRANCH  13  15
TORSDOF 1
ENDMDL
MODEL 8
REMARK VINA RESULT:      -7.3      8.521     10.673
REMARK  Name = 5795340
REMARK  1 active torsions:
REMARK  status: ('A' for Active; 'I' for Inactive)
REMARK    1  A    between atoms: C_13  and  O_15
REMARK                            x       y       z     vdW  Elec       q    Type
REMARK                         _______ _______ _______ _____ _____    ______ ____
ROOT
ATOM      1 BR   UNL     1      37.281 -22.676 -15.908  0.00  0.00    -0.043 Br
ATOM      2 BR   UNL     1      30.846 -24.607 -13.462  0.00  0.00    -0.043 Br
ATOM      3  O   UNL     1      34.622 -23.525 -14.749  0.00  0.00    -0.420 OA
ATOM      4  O   UNL     1      33.770 -24.336 -12.810  0.00  0.00    -0.244 OA
ATOM      5  C   UNL     1      33.173 -23.114 -16.659  0.00  0.00    +0.032 A 
ATOM      6  C   UNL     1      32.018 -23.584 -15.864  0.00  0.00    -0.006 A 
ATOM      7  C   UNL     1      34.435 -23.102 -16.074  0.00  0.00    +0.157 A 
ATOM      8  C   UNL     1      33.081 -22.673 -17.989  0.00  0.00    +0.006 C 
ATOM      9  C   UNL     1      35.578 -22.674 -16.756  0.00  0.00    +0.103 C 
ATOM     10  C   UNL     1      32.220 -23.986 -14.592  0.00  0.00    +0.107 A 
ATOM     11  C   UNL     1      30.674 -23.576 -16.553  0.00  0.00    +0.032 C 
ATOM     12  C   UNL     1      34.215 -22.240 -18.687  0.00  0.00    +0.037 C 
ATOM     13  C   UNL     1      35.463 -22.241 -18.071  0.00  0.00    +0.143 C 
ATOM     14  C   UNL     1      33.572 -23.973 -13.965  0.00  0.00    +0.352 A 
ENDROOT
BRANCH  13  15
ATOM     15  O   UNL     1      36.542 -21.814 -18.785  0.00  0.00    -0.505 OA
ATOM     16  H   UNL     1      37.406 -21.919 -18.436  0.00  0.00    +0.292 HD
ENDBRANCH  13  15
TORSDOF 1
ENDMDL
MODEL 9
REMARK VINA RESULT:      -7.3      8.469     11.090
REMARK  Name = 5795340
REMARK  1 active torsions:
REMARK  status: ('A' for Active; 'I' for Inactive)
REMARK    1  A    between atoms: C_13  and  O_15
REMARK                            x       y       z     vdW  Elec       q    Type
REMARK                         _______ _______ _______ _____ _____    ______ ____
ROOT
ATOM      1 BR   UNL     1      35.048 -24.236 -12.786  0.00  0.00    -0.043 Br
ATOM      2 BR   UNL     1      36.562 -21.396 -19.170  0.00  0.00    -0.043 Br
ATOM      3  O   UNL     1      35.824 -23.020 -15.441  0.00  0.00    -0.420 OA
ATOM      4  O   UNL     1      37.657 -22.182 -16.481  0.00  0.00    -0.244 OA
ATOM      5  C   UNL     1      33.677 -23.084 -16.583  0.00  0.00    +0.032 A 
ATOM      6  C   UNL     1      34.309 -22.472 -17.772  0.00  0.00    -0.006 A 
ATOM      7  C   UNL     1      34.457 -23.336 -15.459  0.00  0.00    +0.157 A 
ATOM      8  C   UNL     1      32.319 -23.434 -16.510  0.00  0.00    +0.006 C 
ATOM      9  C   UNL     1      33.938 -23.912 -14.296  0.00  0.00    +0.103 C 
ATOM     10  C   UNL     1      35.625 -22.176 -17.733  0.00  0.00    +0.107 A 
ATOM     11  C   UNL     1      33.412 -22.221 -18.962  0.00  0.00    +0.032 C 
ATOM     12  C   UNL     1      31.782 -24.012 -15.353  0.00  0.00    +0.037 C 
ATOM     13  C   UNL     1      32.591 -24.249 -14.246  0.00  0.00    +0.143 C 
ATOM     14  C   UNL     1      36.459 -22.446 -16.530  0.00  0.00    +0.352 A 
ENDROOT
BRANCH  13  15
ATOM     15  O   UNL     1      32.030 -24.811 -13.139  0.00  0.00    -0.505 OA
ATOM     16  H   UNL     1      31.444 -25.538 -13.228  0.00  0.00    +0.292 HD
ENDBRANCH  13  15
TORSDOF 1
ENDMDL
