MODEL 1
REMARK VINA RESULT:      -7.9      0.000      0.000
REMARK  Name = 41049
REMARK  3 active torsions:
REMARK  status: ('A' for Active; 'I' for Inactive)
REMARK    1  A    between atoms: C_2  and  C_10
REMARK    2  A    between atoms: C_2  and  C_18
REMARK    3  A    between atoms: C_13  and  O_16
REMARK                            x       y       z     vdW  Elec       q    Type
REMARK                         _______ _______ _______ _____ _____    ______ ____
ROOT
ATOM      1  N   UNL     1      34.854 -16.270 -22.859  0.00  0.00    +0.386 N 
ATOM      2  C   UNL     1      35.299 -18.590 -21.890  0.00  0.00    +0.000 C 
ATOM      3  C   UNL     1      35.599 -19.089 -23.339  0.00  0.00    +0.002 C 
ATOM      4  C   UNL     1      34.430 -17.293 -21.882  0.00  0.00    -0.073 C 
ATOM      5  C   UNL     1      34.455 -18.928 -24.344  0.00  0.00    -0.002 C 
ATOM      6  C   UNL     1      34.466 -17.551 -25.006  0.00  0.00    -0.023 C 
ATOM      7  C   UNL     1      34.073 -16.380 -24.104  0.00  0.00    -0.077 C 
ATOM      8  C   UNL     1      34.662 -14.930 -22.290  0.00  0.00    -0.101 C 
ATOM      9  H   UNL     1      35.840 -16.420 -23.070  0.00  0.00    -0.080 HD
ENDROOT
BRANCH   2  10
ATOM     10  C   UNL     1      34.576 -19.638 -21.005  0.00  0.00    -0.022 C 
ATOM     11  C   UNL     1      35.319 -20.589 -20.313  0.00  0.00    +0.032 C 
ATOM     12  C   UNL     1      33.187 -19.622 -20.910  0.00  0.00    -0.004 C 
ATOM     13  C   UNL     1      34.668 -21.533 -19.518  0.00  0.00    +0.133 C 
ATOM     14  C   UNL     1      32.537 -20.565 -20.114  0.00  0.00    +0.003 C 
ATOM     15  C   UNL     1      33.277 -21.521 -19.419  0.00  0.00    +0.037 C 
BRANCH  13  16
ATOM     16  O   UNL     1      35.391 -22.466 -18.839  0.00  0.00    -0.506 OA
ATOM     17  H   UNL     1      35.931 -23.071 -19.307  0.00  0.00    +0.292 HD
ENDBRANCH  13  16
ENDBRANCH   2  10
BRANCH   2  18
ATOM     18  C   UNL     1      36.689 -18.283 -21.263  0.00  0.00    +0.002 C 
ATOM     19  C   UNL     1      37.803 -18.700 -22.195  0.00  0.00    +0.000 C 
ENDBRANCH   2  18
TORSDOF 3
ENDMDL
MODEL 2
REMARK VINA RESULT:      -7.7      5.987      9.414
REMARK  Name = 41049
REMARK  3 active torsions:
REMARK  status: ('A' for Active; 'I' for Inactive)
REMARK    1  A    between atoms: C_2  and  C_10
REMARK    2  A    between atoms: C_2  and  C_18
REMARK    3  A    between atoms: C_13  and  O_16
REMARK                            x       y       z     vdW  Elec       q    Type
REMARK                         _______ _______ _______ _____ _____    ______ ____
ROOT
ATOM      1  N   UNL     1      36.745 -23.873 -12.850  0.00  0.00    +0.386 N 
ATOM      2  C   UNL     1      35.304 -23.719 -14.951  0.00  0.00    +0.000 C 
ATOM      3  C   UNL     1      35.321 -25.279 -15.023  0.00  0.00    +0.002 C 
ATOM      4  C   UNL     1      36.496 -23.156 -14.116  0.00  0.00    -0.073 C 
ATOM      5  C   UNL     1      36.706 -25.921 -15.137  0.00  0.00    -0.002 C 
ATOM      6  C   UNL     1      37.342 -26.154 -13.768  0.00  0.00    -0.023 C 
ATOM      7  C   UNL     1      37.792 -24.895 -13.024  0.00  0.00    -0.077 C 
ATOM      8  C   UNL     1      37.172 -22.922 -11.815  0.00  0.00    -0.101 C 
ATOM      9  H   UNL     1      35.879 -24.329 -12.566  0.00  0.00    -0.080 HD
ENDROOT
BRANCH   2  10
ATOM     10  C   UNL     1      35.343 -23.029 -16.339  0.00  0.00    -0.022 C 
ATOM     11  C   UNL     1      34.224 -23.074 -17.165  0.00  0.00    +0.032 C 
ATOM     12  C   UNL     1      36.497 -22.369 -16.751  0.00  0.00    -0.004 C 
ATOM     13  C   UNL     1      34.260 -22.454 -18.415  0.00  0.00    +0.133 C 
ATOM     14  C   UNL     1      36.533 -21.749 -18.000  0.00  0.00    +0.003 C 
ATOM     15  C   UNL     1      35.414 -21.792 -18.832  0.00  0.00    +0.037 C 
BRANCH  13  16
ATOM     16  O   UNL     1      33.168 -22.496 -19.227  0.00  0.00    -0.506 OA
ATOM     17  H   UNL     1      33.038 -23.226 -19.799  0.00  0.00    +0.292 HD
ENDBRANCH  13  16
ENDBRANCH   2  10
BRANCH   2  18
ATOM     18  C   UNL     1      33.964 -23.353 -14.251  0.00  0.00    +0.002 C 
ATOM     19  C   UNL     1      33.167 -24.596 -13.931  0.00  0.00    +0.000 C 
ENDBRANCH   2  18
TORSDOF 3
ENDMDL
MODEL 3
REMARK VINA RESULT:      -7.5      9.259     11.384
REMARK  Name = 41049
REMARK  3 active torsions:
REMARK  status: ('A' for Active; 'I' for Inactive)
REMARK    1  A    between atoms: C_2  and  C_10
REMARK    2  A    between atoms: C_2  and  C_18
REMARK    3  A    between atoms: C_13  and  O_16
REMARK                            x       y       z     vdW  Elec       q    Type
REMARK                         _______ _______ _______ _____ _____    ______ ____
ROOT
ATOM      1  N   UNL     1      32.278  -5.872 -24.067  0.00  0.00    +0.386 N 
ATOM      2  C   UNL     1      32.488  -7.453 -22.073  0.00  0.00    +0.000 C 
ATOM      3  C   UNL     1      34.037  -7.412 -22.260  0.00  0.00    +0.002 C 
ATOM      4  C   UNL     1      31.727  -7.055 -23.377  0.00  0.00    -0.073 C 
ATOM      5  C   UNL     1      34.552  -7.888 -23.621  0.00  0.00    -0.002 C 
ATOM      6  C   UNL     1      34.576  -6.758 -24.649  0.00  0.00    -0.023 C 
ATOM      7  C   UNL     1      33.208  -6.276 -25.137  0.00  0.00    -0.077 C 
ATOM      8  C   UNL     1      31.186  -5.086 -24.654  0.00  0.00    -0.101 C 
ATOM      9  H   UNL     1      32.783  -5.310 -23.382  0.00  0.00    -0.080 HD
ENDROOT
BRANCH   2  10
ATOM     10  C   UNL     1      31.948  -8.836 -21.625  0.00  0.00    -0.022 C 
ATOM     11  C   UNL     1      31.963  -9.180 -20.277  0.00  0.00    +0.032 C 
ATOM     12  C   UNL     1      31.453  -9.726 -22.574  0.00  0.00    -0.004 C 
ATOM     13  C   UNL     1      31.479 -10.425 -19.873  0.00  0.00    +0.133 C 
ATOM     14  C   UNL     1      30.968 -10.970 -22.170  0.00  0.00    +0.003 C 
ATOM     15  C   UNL     1      30.982 -11.320 -20.820  0.00  0.00    +0.037 C 
BRANCH  13  16
ATOM     16  O   UNL     1      31.492 -10.766 -18.555  0.00  0.00    -0.506 OA
ATOM     17  H   UNL     1      32.038 -10.297 -17.956  0.00  0.00    +0.292 HD
ENDBRANCH  13  16
ENDBRANCH   2  10
BRANCH   2  18
ATOM     18  C   UNL     1      32.179  -6.413 -20.958  0.00  0.00    +0.002 C 
ATOM     19  C   UNL     1      30.824  -5.779 -21.173  0.00  0.00    +0.000 C 
ENDBRANCH   2  18
TORSDOF 3
ENDMDL
MODEL 4
REMARK VINA RESULT:      -7.4      8.131     10.139
REMARK  Name = 41049
REMARK  3 active torsions:
REMARK  status: ('A' for Active; 'I' for Inactive)
REMARK    1  A    between atoms: C_2  and  C_10
REMARK    2  A    between atoms: C_2  and  C_18
REMARK    3  A    between atoms: C_13  and  O_16
REMARK                            x       y       z     vdW  Elec       q    Type
REMARK                         _______ _______ _______ _____ _____    ______ ____
ROOT
ATOM      1  N   UNL     1      37.075 -25.701 -14.320  0.00  0.00    +0.386 N 
ATOM      2  C   UNL     1      35.250 -23.964 -14.729  0.00  0.00    +0.000 C 
ATOM      3  C   UNL     1      35.843 -23.128 -13.552  0.00  0.00    +0.002 C 
ATOM      4  C   UNL     1      35.653 -25.469 -14.644  0.00  0.00    -0.073 C 
ATOM      5  C   UNL     1      35.884 -23.833 -12.194  0.00  0.00    -0.002 C 
ATOM      6  C   UNL     1      37.157 -24.658 -12.017  0.00  0.00    -0.023 C 
ATOM      7  C   UNL     1      37.253 -25.921 -12.874  0.00  0.00    -0.077 C 
ATOM      8  C   UNL     1      37.565 -26.879 -15.047  0.00  0.00    -0.101 C 
ATOM      9  H   UNL     1      37.604 -24.875 -14.599  0.00  0.00    -0.080 HD
ENDROOT
BRANCH   2  10
ATOM     10  C   UNL     1      33.703 -23.903 -14.822  0.00  0.00    -0.022 C 
ATOM     11  C   UNL     1      32.927 -24.468 -13.815  0.00  0.00    +0.032 C 
ATOM     12  C   UNL     1      33.100 -23.283 -15.913  0.00  0.00    -0.004 C 
ATOM     13  C   UNL     1      31.535 -24.415 -13.900  0.00  0.00    +0.133 C 
ATOM     14  C   UNL     1      31.708 -23.229 -15.997  0.00  0.00    +0.003 C 
ATOM     15  C   UNL     1      30.926 -23.795 -14.990  0.00  0.00    +0.037 C 
BRANCH  13  16
ATOM     16  O   UNL     1      30.772 -24.968 -12.917  0.00  0.00    -0.506 OA
ATOM     17  H   UNL     1      30.774 -24.596 -12.057  0.00  0.00    +0.292 HD
ENDBRANCH  13  16
ENDBRANCH   2  10
BRANCH   2  18
ATOM     18  C   UNL     1      35.850 -23.341 -16.022  0.00  0.00    +0.002 C 
ATOM     19  C   UNL     1      37.017 -22.439 -15.693  0.00  0.00    +0.000 C 
ENDBRANCH   2  18
TORSDOF 3
ENDMDL
MODEL 5
REMARK VINA RESULT:      -7.4      9.064     11.270
REMARK  Name = 41049
REMARK  3 active torsions:
REMARK  status: ('A' for Active; 'I' for Inactive)
REMARK    1  A    between atoms: C_2  and  C_10
REMARK    2  A    between atoms: C_2  and  C_18
REMARK    3  A    between atoms: C_13  and  O_16
REMARK                            x       y       z     vdW  Elec       q    Type
REMARK                         _______ _______ _______ _____ _____    ______ ____
ROOT
ATOM      1  N   UNL     1      32.175  -6.081 -23.954  0.00  0.00    +0.386 N 
ATOM      2  C   UNL     1      32.547  -7.488 -21.856  0.00  0.00    +0.000 C 
ATOM      3  C   UNL     1      34.084  -7.373 -22.105  0.00  0.00    +0.002 C 
ATOM      4  C   UNL     1      31.721  -7.237 -23.156  0.00  0.00    -0.073 C 
ATOM      5  C   UNL     1      34.581  -7.921 -23.445  0.00  0.00    -0.002 C 
ATOM      6  C   UNL     1      34.502  -6.875 -24.555  0.00  0.00    -0.023 C 
ATOM      7  C   UNL     1      33.091  -6.512 -25.025  0.00  0.00    -0.077 C 
ATOM      8  C   UNL     1      31.019  -5.406 -24.556  0.00  0.00    -0.101 C 
ATOM      9  H   UNL     1      32.668  -5.440 -23.333  0.00  0.00    -0.080 HD
ENDROOT
BRANCH   2  10
ATOM     10  C   UNL     1      32.108  -8.861 -21.285  0.00  0.00    -0.022 C 
ATOM     11  C   UNL     1      31.828  -9.913 -22.151  0.00  0.00    +0.032 C 
ATOM     12  C   UNL     1      31.994  -9.032 -19.908  0.00  0.00    -0.004 C 
ATOM     13  C   UNL     1      31.430 -11.148 -21.636  0.00  0.00    +0.133 C 
ATOM     14  C   UNL     1      31.598 -10.267 -19.393  0.00  0.00    +0.003 C 
ATOM     15  C   UNL     1      31.315 -11.324 -20.258  0.00  0.00    +0.037 C 
BRANCH  13  16
ATOM     16  O   UNL     1      31.155 -12.180 -22.480  0.00  0.00    -0.506 OA
ATOM     17  H   UNL     1      30.754 -12.012 -23.310  0.00  0.00    +0.292 HD
ENDBRANCH  13  16
ENDBRANCH   2  10
BRANCH   2  18
ATOM     18  C   UNL     1      32.214  -6.385 -20.812  0.00  0.00    +0.002 C 
ATOM     19  C   UNL     1      30.861  -5.773 -21.088  0.00  0.00    +0.000 C 
ENDBRANCH   2  18
TORSDOF 3
ENDMDL
MODEL 6
REMARK VINA RESULT:      -7.4      2.896      5.450
REMARK  Name = 41049
REMARK  3 active torsions:
REMARK  status: ('A' for Active; 'I' for Inactive)
REMARK    1  A    between atoms: C_2  and  C_10
REMARK    2  A    between atoms: C_2  and  C_18
REMARK    3  A    between atoms: C_13  and  O_16
REMARK                            x       y       z     vdW  Elec       q    Type
REMARK                         _______ _______ _______ _____ _____    ______ ____
ROOT
ATOM      1  N   UNL     1      34.211 -20.463 -20.729  0.00  0.00    +0.386 N 
ATOM      2  C   UNL     1      34.713 -18.396 -22.140  0.00  0.00    +0.000 C 
ATOM      3  C   UNL     1      36.193 -18.882 -22.245  0.00  0.00    +0.002 C 
ATOM      4  C   UNL     1      33.976 -19.017 -20.913  0.00  0.00    -0.073 C 
ATOM      5  C   UNL     1      36.931 -19.051 -20.915  0.00  0.00    -0.002 C 
ATOM      6  C   UNL     1      36.706 -20.435 -20.308  0.00  0.00    -0.023 C 
ATOM      7  C   UNL     1      35.300 -20.699 -19.765  0.00  0.00    -0.077 C 
ATOM      8  C   UNL     1      32.987 -21.107 -20.236  0.00  0.00    -0.101 C 
ATOM      9  H   UNL     1      34.474 -20.860 -21.631  0.00  0.00    -0.080 HD
ENDROOT
BRANCH   2  10
ATOM     10  C   UNL     1      34.567 -16.855 -22.037  0.00  0.00    -0.022 C 
ATOM     11  C   UNL     1      34.352 -16.103 -23.187  0.00  0.00    +0.032 C 
ATOM     12  C   UNL     1      34.654 -16.234 -20.794  0.00  0.00    -0.004 C 
ATOM     13  C   UNL     1      34.223 -14.716 -23.095  0.00  0.00    +0.133 C 
ATOM     14  C   UNL     1      34.523 -14.848 -20.702  0.00  0.00    +0.003 C 
ATOM     15  C   UNL     1      34.308 -14.090 -21.852  0.00  0.00    +0.037 C 
BRANCH  13  16
ATOM     16  O   UNL     1      34.012 -13.976 -24.218  0.00  0.00    -0.506 OA
ATOM     17  H   UNL     1      33.213 -13.499 -24.321  0.00  0.00    +0.292 HD
ENDBRANCH  13  16
ENDBRANCH   2  10
BRANCH   2  18
ATOM     18  C   UNL     1      34.027 -18.874 -23.451  0.00  0.00    +0.002 C 
ATOM     19  C   UNL     1      35.026 -19.537 -24.370  0.00  0.00    +0.000 C 
ENDBRANCH   2  18
TORSDOF 3
ENDMDL
MODEL 7
REMARK VINA RESULT:      -7.3      9.454     12.864
REMARK  Name = 41049
REMARK  3 active torsions:
REMARK  status: ('A' for Active; 'I' for Inactive)
REMARK    1  A    between atoms: C_2  and  C_10
REMARK    2  A    between atoms: C_2  and  C_18
REMARK    3  A    between atoms: C_13  and  O_16
REMARK                            x       y       z     vdW  Elec       q    Type
REMARK                         _______ _______ _______ _____ _____    ______ ____
ROOT
ATOM      1  N   UNL     1      31.935 -10.385 -21.798  0.00  0.00    +0.386 N 
ATOM      2  C   UNL     1      32.664  -8.049 -22.526  0.00  0.00    +0.000 C 
ATOM      3  C   UNL     1      33.255  -7.835 -21.097  0.00  0.00    +0.002 C 
ATOM      4  C   UNL     1      31.577  -9.167 -22.552  0.00  0.00    -0.073 C 
ATOM      5  C   UNL     1      32.256  -7.958 -19.943  0.00  0.00    -0.002 C 
ATOM      6  C   UNL     1      32.103  -9.403 -19.472  0.00  0.00    -0.023 C 
ATOM      7  C   UNL     1      31.374 -10.341 -20.436  0.00  0.00    -0.077 C 
ATOM      8  C   UNL     1      31.418 -11.570 -22.491  0.00  0.00    -0.101 C 
ATOM      9  H   UNL     1      32.952 -10.433 -21.737  0.00  0.00    -0.080 HD
ENDROOT
BRANCH   2  10
ATOM     10  C   UNL     1      32.032  -6.772 -23.138  0.00  0.00    -0.022 C 
ATOM     11  C   UNL     1      31.479  -5.806 -22.304  0.00  0.00    +0.032 C 
ATOM     12  C   UNL     1      32.019  -6.601 -24.520  0.00  0.00    -0.004 C 
ATOM     13  C   UNL     1      30.909  -4.657 -22.855  0.00  0.00    +0.133 C 
ATOM     14  C   UNL     1      31.450  -5.453 -25.071  0.00  0.00    +0.003 C 
ATOM     15  C   UNL     1      30.894  -4.482 -24.238  0.00  0.00    +0.037 C 
BRANCH  13  16
ATOM     16  O   UNL     1      30.367  -3.710 -22.042  0.00  0.00    -0.506 OA
ATOM     17  H   UNL     1      29.726  -3.951 -21.403  0.00  0.00    +0.292 HD
ENDBRANCH  13  16
ENDBRANCH   2  10
BRANCH   2  18
ATOM     18  C   UNL     1      33.869  -8.480 -23.410  0.00  0.00    +0.002 C 
ATOM     19  C   UNL     1      34.985  -7.464 -23.332  0.00  0.00    +0.000 C 
ENDBRANCH   2  18
TORSDOF 3
ENDMDL
MODEL 8
REMARK VINA RESULT:      -7.2      2.890      5.421
REMARK  Name = 41049
REMARK  3 active torsions:
REMARK  status: ('A' for Active; 'I' for Inactive)
REMARK    1  A    between atoms: C_2  and  C_10
REMARK    2  A    between atoms: C_2  and  C_18
REMARK    3  A    between atoms: C_13  and  O_16
REMARK                            x       y       z     vdW  Elec       q    Type
REMARK                         _______ _______ _______ _____ _____    ______ ____
ROOT
ATOM      1  N   UNL     1      35.627 -20.154 -20.008  0.00  0.00    +0.386 N 
ATOM      2  C   UNL     1      34.665 -18.297 -21.472  0.00  0.00    +0.000 C 
ATOM      3  C   UNL     1      33.297 -18.495 -20.748  0.00  0.00    +0.002 C 
ATOM      4  C   UNL     1      35.580 -19.556 -21.357  0.00  0.00    -0.073 C 
ATOM      5  C   UNL     1      32.687 -19.896 -20.857  0.00  0.00    -0.002 C 
ATOM      6  C   UNL     1      33.201 -20.829 -19.762  0.00  0.00    -0.023 C 
ATOM      7  C   UNL     1      34.662 -21.262 -19.892  0.00  0.00    -0.077 C 
ATOM      8  C   UNL     1      36.976 -20.664 -19.737  0.00  0.00    -0.101 C 
ATOM      9  H   UNL     1      35.386 -19.431 -19.330  0.00  0.00    -0.080 HD
ENDROOT
BRANCH   2  10
ATOM     10  C   UNL     1      34.532 -17.956 -22.979  0.00  0.00    -0.022 C 
ATOM     11  C   UNL     1      34.279 -16.646 -23.372  0.00  0.00    +0.032 C 
ATOM     12  C   UNL     1      34.665 -18.964 -23.930  0.00  0.00    -0.004 C 
ATOM     13  C   UNL     1      34.157 -16.340 -24.728  0.00  0.00    +0.133 C 
ATOM     14  C   UNL     1      34.545 -18.658 -25.285  0.00  0.00    +0.003 C 
ATOM     15  C   UNL     1      34.290 -17.346 -25.684  0.00  0.00    +0.037 C 
BRANCH  13  16
ATOM     16  O   UNL     1      33.909 -15.059 -25.117  0.00  0.00    -0.506 OA
ATOM     17  H   UNL     1      33.747 -14.867 -26.019  0.00  0.00    +0.292 HD
ENDBRANCH  13  16
ENDBRANCH   2  10
BRANCH   2  18
ATOM     18  C   UNL     1      35.344 -17.098 -20.749  0.00  0.00    +0.002 C 
ATOM     19  C   UNL     1      34.323 -16.054 -20.363  0.00  0.00    +0.000 C 
ENDBRANCH   2  18
TORSDOF 3
ENDMDL
MODEL 9
REMARK VINA RESULT:      -7.1      8.571     10.538
REMARK  Name = 41049
REMARK  3 active torsions:
REMARK  status: ('A' for Active; 'I' for Inactive)
REMARK    1  A    between atoms: C_2  and  C_10
REMARK    2  A    between atoms: C_2  and  C_18
REMARK    3  A    between atoms: C_13  and  O_16
REMARK                            x       y       z     vdW  Elec       q    Type
REMARK                         _______ _______ _______ _____ _____    ______ ____
ROOT
ATOM      1  N   UNL     1      31.933  -8.396 -20.445  0.00  0.00    +0.386 N 
ATOM      2  C   UNL     1      32.060  -9.424 -22.779  0.00  0.00    +0.000 C 
ATOM      3  C   UNL     1      31.101 -10.554 -22.285  0.00  0.00    +0.002 C 
ATOM      4  C   UNL     1      32.798  -8.721 -21.597  0.00  0.00    -0.073 C 
ATOM      5  C   UNL     1      31.607 -11.379 -21.099  0.00  0.00    -0.002 C 
ATOM      6  C   UNL     1      31.249 -10.735 -19.761  0.00  0.00    -0.023 C 
ATOM      7  C   UNL     1      32.010  -9.452 -19.419  0.00  0.00    -0.077 C 
ATOM      8  C   UNL     1      32.353  -7.121 -19.852  0.00  0.00    -0.101 C 
ATOM      9  H   UNL     1      30.972  -8.326 -20.778  0.00  0.00    -0.080 HD
ENDROOT
BRANCH   2  10
ATOM     10  C   UNL     1      33.142  -9.914 -23.776  0.00  0.00    -0.022 C 
ATOM     11  C   UNL     1      32.920 -11.064 -24.527  0.00  0.00    +0.032 C 
ATOM     12  C   UNL     1      34.330  -9.201 -23.912  0.00  0.00    -0.004 C 
ATOM     13  C   UNL     1      33.895 -11.505 -25.423  0.00  0.00    +0.133 C 
ATOM     14  C   UNL     1      35.303  -9.642 -24.808  0.00  0.00    +0.003 C 
ATOM     15  C   UNL     1      35.086 -10.795 -25.563  0.00  0.00    +0.037 C 
BRANCH  13  16
ATOM     16  O   UNL     1      33.682 -12.630 -26.160  0.00  0.00    -0.506 OA
ATOM     17  H   UNL     1      33.455 -13.433 -25.734  0.00  0.00    +0.292 HD
ENDBRANCH  13  16
ENDBRANCH   2  10
BRANCH   2  18
ATOM     18  C   UNL     1      31.146  -8.395 -23.502  0.00  0.00    +0.002 C 
ATOM     19  C   UNL     1      31.804  -7.036 -23.558  0.00  0.00    +0.000 C 
ENDBRANCH   2  18
TORSDOF 3
ENDMDL
