MODEL 1
REMARK VINA RESULT:      -7.4      0.000      0.000
REMARK  Name = 447364
REMARK  5 active torsions:
REMARK  status: ('A' for Active; 'I' for Inactive)
REMARK    1  A    between atoms: C_1  and  C_12
REMARK    2  A    between atoms: C_3  and  N_9
REMARK    3  A    between atoms: C_5  and  O_10
REMARK    4  A    between atoms: C_12  and  C_14
REMARK    5  A    between atoms: C_14  and  O_15
REMARK                            x       y       z     vdW  Elec       q    Type
REMARK                         _______ _______ _______ _____ _____    ______ ____
ROOT
ATOM      1  C   UNL     1      37.654 -25.666 -13.831  0.00  0.00    -0.009 C 
ATOM      2  C   UNL     1      37.490 -25.250 -12.509  0.00  0.00    +0.023 C 
ATOM      3  C   UNL     1      36.340 -24.556 -12.134  0.00  0.00    +0.176 C 
ATOM      4  C   UNL     1      36.667 -25.389 -14.777  0.00  0.00    -0.001 C 
ATOM      5  C   UNL     1      35.353 -24.279 -13.080  0.00  0.00    +0.156 C 
ATOM      6  C   UNL     1      35.517 -24.696 -14.401  0.00  0.00    +0.038 C 
ENDROOT
BRANCH   3   9
ATOM      7  O   UNL     1      36.878 -23.176 -10.367  0.00  0.00    -0.126 OA
ATOM      8  O   UNL     1      35.377 -24.746 -10.047  0.00  0.00    -0.126 OA
ATOM      9  N   UNL     1      36.190 -24.139 -10.783  0.00  0.00    +0.061 N 
ENDBRANCH   3   9
BRANCH   5  10
ATOM     10  O   UNL     1      34.218 -23.606 -12.737  0.00  0.00    -0.504 OA
ATOM     11  H   UNL     1      33.394 -23.857 -13.107  0.00  0.00    +0.292 HD
ENDBRANCH   5  10
BRANCH   1  12
ATOM     12  C   UNL     1      38.884 -26.407 -14.233  0.00  0.00    +0.136 C 
BRANCH  12  14
ATOM     13  O   UNL     1      40.561 -24.648 -14.099  0.00  0.00    -0.250 OA
ATOM     14  C   UNL     1      39.989 -25.508 -14.752  0.00  0.00    +0.318 C 
BRANCH  14  15
ATOM     15  O   UNL     1      40.279 -25.764 -16.055  0.00  0.00    -0.480 OA
ATOM     16  H   UNL     1      40.195 -25.085 -16.696  0.00  0.00    +0.295 HD
ENDBRANCH  14  15
ENDBRANCH  12  14
ENDBRANCH   1  12
TORSDOF 5
ENDMDL
MODEL 2
REMARK VINA RESULT:      -7.2      5.909      8.648
REMARK  Name = 447364
REMARK  5 active torsions:
REMARK  status: ('A' for Active; 'I' for Inactive)
REMARK    1  A    between atoms: C_1  and  C_12
REMARK    2  A    between atoms: C_3  and  N_9
REMARK    3  A    between atoms: C_5  and  O_10
REMARK    4  A    between atoms: C_12  and  C_14
REMARK    5  A    between atoms: C_14  and  O_15
REMARK                            x       y       z     vdW  Elec       q    Type
REMARK                         _______ _______ _______ _____ _____    ______ ____
ROOT
ATOM      1  C   UNL     1      30.036 -23.541 -15.441  0.00  0.00    -0.009 C 
ATOM      2  C   UNL     1      30.905 -23.445 -16.528  0.00  0.00    +0.023 C 
ATOM      3  C   UNL     1      32.263 -23.210 -16.317  0.00  0.00    +0.176 C 
ATOM      4  C   UNL     1      30.527 -23.403 -14.143  0.00  0.00    -0.001 C 
ATOM      5  C   UNL     1      32.754 -23.072 -15.019  0.00  0.00    +0.156 C 
ATOM      6  C   UNL     1      31.885 -23.169 -13.932  0.00  0.00    +0.038 C 
ENDROOT
BRANCH   3   9
ATOM      7  O   UNL     1      34.260 -23.662 -17.380  0.00  0.00    -0.126 OA
ATOM      8  O   UNL     1      32.749 -22.484 -18.451  0.00  0.00    -0.126 OA
ATOM      9  N   UNL     1      33.133 -23.114 -17.438  0.00  0.00    +0.061 N 
ENDBRANCH   3   9
BRANCH   5  10
ATOM     10  O   UNL     1      34.078 -22.846 -14.787  0.00  0.00    -0.504 OA
ATOM     11  H   UNL     1      34.712 -23.059 -15.443  0.00  0.00    +0.292 HD
ENDBRANCH   5  10
BRANCH   1  12
ATOM     12  C   UNL     1      28.583 -23.791 -15.665  0.00  0.00    +0.136 C 
BRANCH  12  14
ATOM     13  O   UNL     1      27.900 -21.720 -16.747  0.00  0.00    -0.250 OA
ATOM     14  C   UNL     1      27.987 -22.940 -16.768  0.00  0.00    +0.318 C 
BRANCH  14  15
ATOM     15  O   UNL     1      27.544 -23.695 -17.808  0.00  0.00    -0.480 OA
ATOM     16  H   UNL     1      27.917 -23.584 -18.660  0.00  0.00    +0.295 HD
ENDBRANCH  14  15
ENDBRANCH  12  14
ENDBRANCH   1  12
TORSDOF 5
ENDMDL
MODEL 3
REMARK VINA RESULT:      -7.2      8.694      9.933
REMARK  Name = 447364
REMARK  5 active torsions:
REMARK  status: ('A' for Active; 'I' for Inactive)
REMARK    1  A    between atoms: C_1  and  C_12
REMARK    2  A    between atoms: C_3  and  N_9
REMARK    3  A    between atoms: C_5  and  O_10
REMARK    4  A    between atoms: C_12  and  C_14
REMARK    5  A    between atoms: C_14  and  O_15
REMARK                            x       y       z     vdW  Elec       q    Type
REMARK                         _______ _______ _______ _____ _____    ______ ____
ROOT
ATOM      1  C   UNL     1      34.917 -19.282 -21.300  0.00  0.00    -0.009 C 
ATOM      2  C   UNL     1      34.030 -20.202 -20.741  0.00  0.00    +0.023 C 
ATOM      3  C   UNL     1      34.490 -21.147 -19.825  0.00  0.00    +0.176 C 
ATOM      4  C   UNL     1      36.265 -19.307 -20.942  0.00  0.00    -0.001 C 
ATOM      5  C   UNL     1      35.838 -21.172 -19.466  0.00  0.00    +0.156 C 
ATOM      6  C   UNL     1      36.725 -20.251 -20.025  0.00  0.00    +0.038 C 
ENDROOT
BRANCH   3   9
ATOM      7  O   UNL     1      33.851 -23.300 -19.300  0.00  0.00    -0.126 OA
ATOM      8  O   UNL     1      32.509 -21.649 -18.758  0.00  0.00    -0.126 OA
ATOM      9  N   UNL     1      33.571 -22.077 -19.266  0.00  0.00    +0.061 N 
ENDBRANCH   3   9
BRANCH   5  10
ATOM     10  O   UNL     1      36.312 -22.084 -18.570  0.00  0.00    -0.504 OA
ATOM     11  H   UNL     1      37.111 -22.540 -18.744  0.00  0.00    +0.292 HD
ENDBRANCH   5  10
BRANCH   1  12
ATOM     12  C   UNL     1      34.426 -18.272 -22.281  0.00  0.00    +0.136 C 
BRANCH  12  14
ATOM     13  O   UNL     1      34.909 -16.216 -21.070  0.00  0.00    -0.250 OA
ATOM     14  C   UNL     1      35.025 -16.894 -22.081  0.00  0.00    +0.318 C 
BRANCH  14  15
ATOM     15  O   UNL     1      35.719 -16.480 -23.174  0.00  0.00    -0.480 OA
ATOM     16  H   UNL     1      35.705 -15.577 -23.424  0.00  0.00    +0.295 HD
ENDBRANCH  14  15
ENDBRANCH  12  14
ENDBRANCH   1  12
TORSDOF 5
ENDMDL
MODEL 4
REMARK VINA RESULT:      -7.2     10.439     11.600
REMARK  Name = 447364
REMARK  5 active torsions:
REMARK  status: ('A' for Active; 'I' for Inactive)
REMARK    1  A    between atoms: C_1  and  C_12
REMARK    2  A    between atoms: C_3  and  N_9
REMARK    3  A    between atoms: C_5  and  O_10
REMARK    4  A    between atoms: C_12  and  C_14
REMARK    5  A    between atoms: C_14  and  O_15
REMARK                            x       y       z     vdW  Elec       q    Type
REMARK                         _______ _______ _______ _____ _____    ______ ____
ROOT
ATOM      1  C   UNL     1      34.229 -19.112 -21.463  0.00  0.00    -0.009 C 
ATOM      2  C   UNL     1      34.176 -17.787 -21.030  0.00  0.00    +0.023 C 
ATOM      3  C   UNL     1      34.686 -16.769 -21.834  0.00  0.00    +0.176 C 
ATOM      4  C   UNL     1      34.792 -19.418 -22.702  0.00  0.00    -0.001 C 
ATOM      5  C   UNL     1      35.249 -17.074 -23.073  0.00  0.00    +0.156 C 
ATOM      6  C   UNL     1      35.301 -18.400 -23.507  0.00  0.00    +0.038 C 
ENDROOT
BRANCH   3   9
ATOM      7  O   UNL     1      34.317 -14.519 -22.188  0.00  0.00    -0.126 OA
ATOM      8  O   UNL     1      34.879 -15.182 -20.172  0.00  0.00    -0.126 OA
ATOM      9  N   UNL     1      34.624 -15.424 -21.375  0.00  0.00    +0.061 N 
ENDBRANCH   3   9
BRANCH   5  10
ATOM     10  O   UNL     1      35.750 -16.096 -23.880  0.00  0.00    -0.504 OA
ATOM     11  H   UNL     1      36.471 -16.282 -24.449  0.00  0.00    +0.292 HD
ENDBRANCH   5  10
BRANCH   1  12
ATOM     12  C   UNL     1      33.685 -20.202 -20.602  0.00  0.00    +0.136 C 
BRANCH  12  14
ATOM     13  O   UNL     1      35.875 -20.563 -19.603  0.00  0.00    -0.250 OA
ATOM     14  C   UNL     1      34.756 -20.980 -19.864  0.00  0.00    +0.318 C 
BRANCH  14  15
ATOM     15  O   UNL     1      34.330 -22.223 -19.518  0.00  0.00    -0.480 OA
ATOM     16  H   UNL     1      33.935 -22.779 -20.161  0.00  0.00    +0.295 HD
ENDBRANCH  14  15
ENDBRANCH  12  14
ENDBRANCH   1  12
TORSDOF 5
ENDMDL
MODEL 5
REMARK VINA RESULT:      -7.1      8.927      9.952
REMARK  Name = 447364
REMARK  5 active torsions:
REMARK  status: ('A' for Active; 'I' for Inactive)
REMARK    1  A    between atoms: C_1  and  C_12
REMARK    2  A    between atoms: C_3  and  N_9
REMARK    3  A    between atoms: C_5  and  O_10
REMARK    4  A    between atoms: C_12  and  C_14
REMARK    5  A    between atoms: C_14  and  O_15
REMARK                            x       y       z     vdW  Elec       q    Type
REMARK                         _______ _______ _______ _____ _____    ______ ____
ROOT
ATOM      1  C   UNL     1      35.200 -19.203 -21.294  0.00  0.00    -0.009 C 
ATOM      2  C   UNL     1      35.646 -20.297 -20.551  0.00  0.00    +0.023 C 
ATOM      3  C   UNL     1      34.737 -21.059 -19.817  0.00  0.00    +0.176 C 
ATOM      4  C   UNL     1      33.845 -18.873 -21.302  0.00  0.00    -0.001 C 
ATOM      5  C   UNL     1      33.382 -20.729 -19.825  0.00  0.00    +0.156 C 
ATOM      6  C   UNL     1      32.937 -19.635 -20.569  0.00  0.00    +0.038 C 
ENDROOT
BRANCH   3   9
ATOM      7  O   UNL     1      36.278 -22.051 -18.416  0.00  0.00    -0.126 OA
ATOM      8  O   UNL     1      34.550 -23.234 -19.074  0.00  0.00    -0.126 OA
ATOM      9  N   UNL     1      35.211 -22.169 -19.065  0.00  0.00    +0.061 N 
ENDBRANCH   3   9
BRANCH   5  10
ATOM     10  O   UNL     1      32.475 -21.460 -19.119  0.00  0.00    -0.504 OA
ATOM     11  H   UNL     1      32.645 -22.362 -18.931  0.00  0.00    +0.292 HD
ENDBRANCH   5  10
BRANCH   1  12
ATOM     12  C   UNL     1      36.171 -18.387 -22.078  0.00  0.00    +0.136 C 
BRANCH  12  14
ATOM     13  O   UNL     1      35.070 -18.463 -24.248  0.00  0.00    -0.250 OA
ATOM     14  C   UNL     1      35.585 -17.811 -23.352  0.00  0.00    +0.318 C 
BRANCH  14  15
ATOM     15  O   UNL     1      35.701 -16.457 -23.394  0.00  0.00    -0.480 OA
ATOM     16  H   UNL     1      36.539 -16.063 -23.537  0.00  0.00    +0.295 HD
ENDBRANCH  14  15
ENDBRANCH  12  14
ENDBRANCH   1  12
TORSDOF 5
ENDMDL
MODEL 6
REMARK VINA RESULT:      -6.9     11.678     12.988
REMARK  Name = 447364
REMARK  5 active torsions:
REMARK  status: ('A' for Active; 'I' for Inactive)
REMARK    1  A    between atoms: C_1  and  C_12
REMARK    2  A    between atoms: C_3  and  N_9
REMARK    3  A    between atoms: C_5  and  O_10
REMARK    4  A    between atoms: C_12  and  C_14
REMARK    5  A    between atoms: C_14  and  O_15
REMARK                            x       y       z     vdW  Elec       q    Type
REMARK                         _______ _______ _______ _____ _____    ______ ____
ROOT
ATOM      1  C   UNL     1      34.830 -18.654 -22.278  0.00  0.00    -0.009 C 
ATOM      2  C   UNL     1      34.596 -17.279 -22.292  0.00  0.00    +0.023 C 
ATOM      3  C   UNL     1      34.446 -16.609 -23.506  0.00  0.00    +0.176 C 
ATOM      4  C   UNL     1      34.912 -19.359 -23.479  0.00  0.00    -0.001 C 
ATOM      5  C   UNL     1      34.529 -17.313 -24.707  0.00  0.00    +0.156 C 
ATOM      6  C   UNL     1      34.761 -18.689 -24.692  0.00  0.00    +0.038 C 
ENDROOT
BRANCH   3   9
ATOM      7  O   UNL     1      33.391 -14.726 -24.319  0.00  0.00    -0.126 OA
ATOM      8  O   UNL     1      34.828 -14.491 -22.677  0.00  0.00    -0.126 OA
ATOM      9  N   UNL     1      34.210 -15.206 -23.499  0.00  0.00    +0.061 N 
ENDBRANCH   3   9
BRANCH   5  10
ATOM     10  O   UNL     1      34.382 -16.681 -25.905  0.00  0.00    -0.504 OA
ATOM     11  H   UNL     1      34.669 -17.099 -26.693  0.00  0.00    +0.292 HD
ENDBRANCH   5  10
BRANCH   1  12
ATOM     12  C   UNL     1      34.991 -19.372 -20.981  0.00  0.00    +0.136 C 
BRANCH  12  14
ATOM     13  O   UNL     1      32.607 -19.855 -20.881  0.00  0.00    -0.250 OA
ATOM     14  C   UNL     1      33.752 -20.132 -20.553  0.00  0.00    +0.318 C 
BRANCH  14  15
ATOM     15  O   UNL     1      34.056 -21.180 -19.741  0.00  0.00    -0.480 OA
ATOM     16  H   UNL     1      33.388 -21.786 -19.488  0.00  0.00    +0.295 HD
ENDBRANCH  14  15
ENDBRANCH  12  14
ENDBRANCH   1  12
TORSDOF 5
ENDMDL
MODEL 7
REMARK VINA RESULT:      -6.9     11.253     12.707
REMARK  Name = 447364
REMARK  5 active torsions:
REMARK  status: ('A' for Active; 'I' for Inactive)
REMARK    1  A    between atoms: C_1  and  C_12
REMARK    2  A    between atoms: C_3  and  N_9
REMARK    3  A    between atoms: C_5  and  O_10
REMARK    4  A    between atoms: C_12  and  C_14
REMARK    5  A    between atoms: C_14  and  O_15
REMARK                            x       y       z     vdW  Elec       q    Type
REMARK                         _______ _______ _______ _____ _____    ______ ____
ROOT
ATOM      1  C   UNL     1      34.860 -18.791 -21.621  0.00  0.00    -0.009 C 
ATOM      2  C   UNL     1      34.695 -18.775 -23.006  0.00  0.00    +0.023 C 
ATOM      3  C   UNL     1      34.629 -17.560 -23.687  0.00  0.00    +0.176 C 
ATOM      4  C   UNL     1      34.959 -17.591 -20.917  0.00  0.00    -0.001 C 
ATOM      5  C   UNL     1      34.729 -16.360 -22.983  0.00  0.00    +0.156 C 
ATOM      6  C   UNL     1      34.894 -16.376 -21.598  0.00  0.00    +0.038 C 
ENDROOT
BRANCH   3   9
ATOM      7  O   UNL     1      33.686 -18.406 -25.614  0.00  0.00    -0.126 OA
ATOM      8  O   UNL     1      35.089 -16.727 -25.788  0.00  0.00    -0.126 OA
ATOM      9  N   UNL     1      34.460 -17.564 -25.099  0.00  0.00    +0.061 N 
ENDBRANCH   3   9
BRANCH   5  10
ATOM     10  O   UNL     1      34.671 -15.159 -23.627  0.00  0.00    -0.504 OA
ATOM     11  H   UNL     1      33.990 -14.993 -24.248  0.00  0.00    +0.292 HD
ENDBRANCH   5  10
BRANCH   1  12
ATOM     12  C   UNL     1      34.929 -20.090 -20.891  0.00  0.00    +0.136 C 
BRANCH  12  14
ATOM     13  O   UNL     1      32.505 -20.128 -20.677  0.00  0.00    -0.250 OA
ATOM     14  C   UNL     1      33.600 -20.528 -20.309  0.00  0.00    +0.318 C 
BRANCH  14  15
ATOM     15  O   UNL     1      33.760 -21.432 -19.307  0.00  0.00    -0.480 OA
ATOM     16  H   UNL     1      33.977 -21.140 -18.443  0.00  0.00    +0.295 HD
ENDBRANCH  14  15
ENDBRANCH  12  14
ENDBRANCH   1  12
TORSDOF 5
ENDMDL
MODEL 8
REMARK VINA RESULT:      -6.9      5.270      8.011
REMARK  Name = 447364
REMARK  5 active torsions:
REMARK  status: ('A' for Active; 'I' for Inactive)
REMARK    1  A    between atoms: C_1  and  C_12
REMARK    2  A    between atoms: C_3  and  N_9
REMARK    3  A    between atoms: C_5  and  O_10
REMARK    4  A    between atoms: C_12  and  C_14
REMARK    5  A    between atoms: C_14  and  O_15
REMARK                            x       y       z     vdW  Elec       q    Type
REMARK                         _______ _______ _______ _____ _____    ______ ____
ROOT
ATOM      1  C   UNL     1      31.621 -23.303 -15.179  0.00  0.00    -0.009 C 
ATOM      2  C   UNL     1      31.810 -23.111 -16.549  0.00  0.00    +0.023 C 
ATOM      3  C   UNL     1      33.099 -23.090 -17.078  0.00  0.00    +0.176 C 
ATOM      4  C   UNL     1      32.722 -23.474 -14.341  0.00  0.00    -0.001 C 
ATOM      5  C   UNL     1      34.201 -23.261 -16.240  0.00  0.00    +0.156 C 
ATOM      6  C   UNL     1      34.012 -23.454 -14.871  0.00  0.00    +0.038 C 
ENDROOT
BRANCH   3   9
ATOM      7  O   UNL     1      33.948 -23.725 -19.127  0.00  0.00    -0.126 OA
ATOM      8  O   UNL     1      32.744 -21.893 -19.017  0.00  0.00    -0.126 OA
ATOM      9  N   UNL     1      33.272 -22.893 -18.476  0.00  0.00    +0.061 N 
ENDBRANCH   3   9
BRANCH   5  10
ATOM     10  O   UNL     1      35.471 -23.248 -16.735  0.00  0.00    -0.504 OA
ATOM     11  H   UNL     1      35.707 -23.826 -17.434  0.00  0.00    +0.292 HD
ENDBRANCH   5  10
BRANCH   1  12
ATOM     12  C   UNL     1      30.242 -23.325 -14.611  0.00  0.00    +0.136 C 
BRANCH  12  14
ATOM     13  O   UNL     1      28.582 -24.415 -16.019  0.00  0.00    -0.250 OA
ATOM     14  C   UNL     1      29.400 -24.481 -15.113  0.00  0.00    +0.318 C 
BRANCH  14  15
ATOM     15  O   UNL     1      29.654 -25.627 -14.427  0.00  0.00    -0.480 OA
ATOM     16  H   UNL     1      30.471 -25.734 -13.981  0.00  0.00    +0.295 HD
ENDBRANCH  14  15
ENDBRANCH  12  14
ENDBRANCH   1  12
TORSDOF 5
ENDMDL
MODEL 9
REMARK VINA RESULT:      -6.8     12.943     14.124
REMARK  Name = 447364
REMARK  5 active torsions:
REMARK  status: ('A' for Active; 'I' for Inactive)
REMARK    1  A    between atoms: C_1  and  C_12
REMARK    2  A    between atoms: C_3  and  N_9
REMARK    3  A    between atoms: C_5  and  O_10
REMARK    4  A    between atoms: C_12  and  C_14
REMARK    5  A    between atoms: C_14  and  O_15
REMARK                            x       y       z     vdW  Elec       q    Type
REMARK                         _______ _______ _______ _____ _____    ______ ____
ROOT
ATOM      1  C   UNL     1      34.809 -16.931 -22.703  0.00  0.00    -0.009 C 
ATOM      2  C   UNL     1      34.186 -15.690 -22.841  0.00  0.00    +0.023 C 
ATOM      3  C   UNL     1      33.777 -15.251 -24.099  0.00  0.00    +0.176 C 
ATOM      4  C   UNL     1      35.021 -17.733 -23.824  0.00  0.00    -0.001 C 
ATOM      5  C   UNL     1      33.989 -16.053 -25.221  0.00  0.00    +0.156 C 
ATOM      6  C   UNL     1      34.611 -17.294 -25.082  0.00  0.00    +0.038 C 
ENDROOT
BRANCH   3   9
ATOM      7  O   UNL     1      32.326 -13.627 -23.340  0.00  0.00    -0.126 OA
ATOM      8  O   UNL     1      33.424 -13.258 -25.204  0.00  0.00    -0.126 OA
ATOM      9  N   UNL     1      33.145 -13.983 -24.220  0.00  0.00    +0.061 N 
ENDBRANCH   3   9
BRANCH   5  10
ATOM     10  O   UNL     1      33.595 -15.647 -26.461  0.00  0.00    -0.504 OA
ATOM     11  H   UNL     1      33.711 -14.755 -26.721  0.00  0.00    +0.292 HD
ENDBRANCH   5  10
BRANCH   1  12
ATOM     12  C   UNL     1      35.248 -17.401 -21.357  0.00  0.00    +0.136 C 
BRANCH  12  14
ATOM     13  O   UNL     1      33.585 -19.163 -21.118  0.00  0.00    -0.250 OA
ATOM     14  C   UNL     1      34.743 -18.787 -21.007  0.00  0.00    +0.318 C 
BRANCH  14  15
ATOM     15  O   UNL     1      35.739 -19.585 -20.540  0.00  0.00    -0.480 OA
ATOM     16  H   UNL     1      36.357 -19.961 -21.137  0.00  0.00    +0.295 HD
ENDBRANCH  14  15
ENDBRANCH  12  14
ENDBRANCH   1  12
TORSDOF 5
ENDMDL
