MODEL 1
REMARK VINA RESULT:      -9.0      0.000      0.000
REMARK  Name = 12562545
REMARK  1 active torsions:
REMARK  status: ('A' for Active; 'I' for Inactive)
REMARK    1  A    between atoms: C_10  and  C_18
REMARK                            x       y       z     vdW  Elec       q    Type
REMARK                         _______ _______ _______ _____ _____    ______ ____
ROOT
ATOM      1 BR   UNL     1      35.691 -21.761 -19.100  0.00  0.00    -0.049 Br
ATOM      2  N   UNL     1      31.777 -23.949 -14.962  0.00  0.00    -0.279 N 
ATOM      3  N   UNL     1      34.281 -24.019 -13.218  0.00  0.00    -0.261 NA
ATOM      4  N   UNL     1      30.826 -24.356 -13.016  0.00  0.00    -0.131 NA
ATOM      5  N   UNL     1      29.940 -24.700 -14.008  0.00  0.00    -0.133 NA
ATOM      6  C   UNL     1      32.721 -23.527 -15.924  0.00  0.00    +0.068 C 
ATOM      7  C   UNL     1      34.101 -23.483 -15.642  0.00  0.00    +0.035 C 
ATOM      8  C   UNL     1      31.910 -23.882 -13.594  0.00  0.00    +0.172 A 
ATOM      9  C   UNL     1      33.078 -23.260 -12.935  0.00  0.00    +0.191 C 
ATOM     10  C   UNL     1      34.724 -24.108 -14.427  0.00  0.00    +0.095 C 
ATOM     11  C   UNL     1      30.508 -24.427 -15.160  0.00  0.00    +0.147 A 
ATOM     12  C   UNL     1      32.255 -23.107 -17.181  0.00  0.00    +0.018 C 
ATOM     13  C   UNL     1      34.974 -22.933 -16.596  0.00  0.00    +0.010 C 
ATOM     14  C   UNL     1      33.141 -22.589 -18.126  0.00  0.00    +0.008 C 
ATOM     15  C   UNL     1      34.496 -22.487 -17.828  0.00  0.00    +0.035 C 
ATOM     16  C   UNL     1      29.893 -24.778 -16.458  0.00  0.00    +0.074 C 
ENDROOT
BRANCH  10  18
ATOM     17  N   UNL     1      35.761 -26.106 -15.250  0.00  0.00    -0.242 NA
ATOM     18  C   UNL     1      35.953 -24.936 -14.614  0.00  0.00    +0.099 C 
ATOM     19  C   UNL     1      37.164 -24.478 -14.144  0.00  0.00    +0.021 C 
ATOM     20  C   UNL     1      38.276 -25.288 -14.344  0.00  0.00    +0.003 C 
ATOM     21  C   UNL     1      36.864 -26.868 -15.426  0.00  0.00    +0.099 C 
ATOM     22  C   UNL     1      38.132 -26.508 -14.996  0.00  0.00    +0.021 C 
ENDBRANCH  10  18
TORSDOF 1
ENDMDL
MODEL 2
REMARK VINA RESULT:      -8.2     12.106     14.454
REMARK  Name = 12562545
REMARK  1 active torsions:
REMARK  status: ('A' for Active; 'I' for Inactive)
REMARK    1  A    between atoms: C_10  and  C_18
REMARK                            x       y       z     vdW  Elec       q    Type
REMARK                         _______ _______ _______ _____ _____    ______ ____
ROOT
ATOM      1 BR   UNL     1      31.291 -11.482 -20.220  0.00  0.00    -0.049 Br
ATOM      2  N   UNL     1      33.955 -12.221 -25.659  0.00  0.00    -0.279 N 
ATOM      3  N   UNL     1      33.321 -15.159 -25.123  0.00  0.00    -0.261 NA
ATOM      4  N   UNL     1      34.405 -13.037 -27.656  0.00  0.00    -0.131 NA
ATOM      5  N   UNL     1      35.018 -11.813 -27.544  0.00  0.00    -0.133 NA
ATOM      6  C   UNL     1      33.412 -12.091 -24.361  0.00  0.00    +0.068 C 
ATOM      7  C   UNL     1      33.038 -13.214 -23.597  0.00  0.00    +0.035 C 
ATOM      8  C   UNL     1      33.749 -13.262 -26.536  0.00  0.00    +0.172 A 
ATOM      9  C   UNL     1      32.830 -14.382 -26.245  0.00  0.00    +0.191 C 
ATOM     10  C   UNL     1      33.406 -14.626 -23.951  0.00  0.00    +0.095 C 
ATOM     11  C   UNL     1      34.719 -11.326 -26.361  0.00  0.00    +0.147 A 
ATOM     12  C   UNL     1      33.211 -10.801 -23.846  0.00  0.00    +0.018 C 
ATOM     13  C   UNL     1      32.386 -13.014 -22.367  0.00  0.00    +0.010 C 
ATOM     14  C   UNL     1      32.586 -10.622 -22.612  0.00  0.00    +0.008 C 
ATOM     15  C   UNL     1      32.159 -11.726 -21.881  0.00  0.00    +0.035 C 
ATOM     16  C   UNL     1      35.304 -10.072 -25.842  0.00  0.00    +0.074 C 
ENDROOT
BRANCH  10  18
ATOM     17  N   UNL     1      34.228 -16.765 -23.248  0.00  0.00    -0.242 NA
ATOM     18  C   UNL     1      33.951 -15.503 -22.872  0.00  0.00    +0.099 C 
ATOM     19  C   UNL     1      34.132 -14.995 -21.604  0.00  0.00    +0.021 C 
ATOM     20  C   UNL     1      34.642 -15.854 -20.638  0.00  0.00    +0.003 C 
ATOM     21  C   UNL     1      34.721 -17.572 -22.281  0.00  0.00    +0.099 C 
ATOM     22  C   UNL     1      34.944 -17.169 -20.974  0.00  0.00    +0.021 C 
ENDBRANCH  10  18
TORSDOF 1
ENDMDL
MODEL 3
REMARK VINA RESULT:      -8.0      3.173      5.969
REMARK  Name = 12562545
REMARK  1 active torsions:
REMARK  status: ('A' for Active; 'I' for Inactive)
REMARK    1  A    between atoms: C_10  and  C_18
REMARK                            x       y       z     vdW  Elec       q    Type
REMARK                         _______ _______ _______ _____ _____    ______ ____
ROOT
ATOM      1 BR   UNL     1      31.165 -22.998 -14.662  0.00  0.00    -0.049 Br
ATOM      2  N   UNL     1      37.013 -24.685 -15.090  0.00  0.00    -0.279 N 
ATOM      3  N   UNL     1      37.256 -22.026 -16.569  0.00  0.00    -0.261 NA
ATOM      4  N   UNL     1      39.210 -24.550 -15.190  0.00  0.00    -0.131 NA
ATOM      5  N   UNL     1      38.870 -25.859 -14.945  0.00  0.00    -0.133 NA
ATOM      6  C   UNL     1      35.651 -24.309 -15.083  0.00  0.00    +0.068 C 
ATOM      7  C   UNL     1      35.195 -23.156 -15.751  0.00  0.00    +0.035 C 
ATOM      8  C   UNL     1      38.096 -23.850 -15.248  0.00  0.00    +0.172 A 
ATOM      9  C   UNL     1      37.964 -22.382 -15.355  0.00  0.00    +0.191 C 
ATOM     10  C   UNL     1      36.024 -22.376 -16.730  0.00  0.00    +0.095 C 
ATOM     11  C   UNL     1      37.561 -25.920 -14.860  0.00  0.00    +0.147 A 
ATOM     12  C   UNL     1      34.744 -25.094 -14.354  0.00  0.00    +0.018 C 
ATOM     13  C   UNL     1      33.853 -22.766 -15.600  0.00  0.00    +0.010 C 
ATOM     14  C   UNL     1      33.409 -24.706 -14.236  0.00  0.00    +0.008 C 
ATOM     15  C   UNL     1      32.968 -23.535 -14.844  0.00  0.00    +0.035 C 
ATOM     16  C   UNL     1      36.828 -27.196 -14.721  0.00  0.00    +0.074 C 
ENDROOT
BRANCH  10  18
ATOM     17  N   UNL     1      36.144 -21.172 -18.800  0.00  0.00    -0.242 NA
ATOM     18  C   UNL     1      35.398 -21.984 -18.028  0.00  0.00    +0.099 C 
ATOM     19  C   UNL     1      34.144 -22.454 -18.352  0.00  0.00    +0.021 C 
ATOM     20  C   UNL     1      33.607 -22.058 -19.572  0.00  0.00    +0.003 C 
ATOM     21  C   UNL     1      35.590 -20.807 -19.978  0.00  0.00    +0.099 C 
ATOM     22  C   UNL     1      34.337 -21.218 -20.406  0.00  0.00    +0.021 C 
ENDBRANCH  10  18
TORSDOF 1
ENDMDL
MODEL 4
REMARK VINA RESULT:      -7.6     11.300     13.697
REMARK  Name = 12562545
REMARK  1 active torsions:
REMARK  status: ('A' for Active; 'I' for Inactive)
REMARK    1  A    between atoms: C_10  and  C_18
REMARK                            x       y       z     vdW  Elec       q    Type
REMARK                         _______ _______ _______ _____ _____    ______ ____
ROOT
ATOM      1 BR   UNL     1      32.114 -14.538 -19.806  0.00  0.00    -0.049 Br
ATOM      2  N   UNL     1      33.654 -13.102 -25.532  0.00  0.00    -0.279 N 
ATOM      3  N   UNL     1      33.453 -16.124 -25.919  0.00  0.00    -0.261 NA
ATOM      4  N   UNL     1      33.762 -13.172 -27.732  0.00  0.00    -0.131 NA
ATOM      5  N   UNL     1      34.255 -11.960 -27.316  0.00  0.00    -0.133 NA
ATOM      6  C   UNL     1      33.381 -13.473 -24.197  0.00  0.00    +0.068 C 
ATOM      7  C   UNL     1      33.292 -14.823 -23.804  0.00  0.00    +0.035 C 
ATOM      8  C   UNL     1      33.379 -13.839 -26.663  0.00  0.00    +0.172 A 
ATOM      9  C   UNL     1      32.662 -15.130 -26.620  0.00  0.00    +0.191 C 
ATOM     10  C   UNL     1      33.723 -15.974 -24.667  0.00  0.00    +0.095 C 
ATOM     11  C   UNL     1      34.159 -11.920 -26.007  0.00  0.00    +0.147 A 
ATOM     12  C   UNL     1      33.159 -12.458 -23.252  0.00  0.00    +0.018 C 
ATOM     13  C   UNL     1      32.892 -15.125 -22.490  0.00  0.00    +0.010 C 
ATOM     14  C   UNL     1      32.789 -12.777 -21.946  0.00  0.00    +0.008 C 
ATOM     15  C   UNL     1      32.640 -14.108 -21.570  0.00  0.00    +0.035 C 
ATOM     16  C   UNL     1      34.705 -10.810 -25.198  0.00  0.00    +0.074 C 
ENDROOT
BRANCH  10  18
ATOM     17  N   UNL     1      35.350 -16.630 -23.032  0.00  0.00    -0.242 NA
ATOM     18  C   UNL     1      34.568 -17.039 -24.048  0.00  0.00    +0.099 C 
ATOM     19  C   UNL     1      34.504 -18.328 -24.531  0.00  0.00    +0.021 C 
ATOM     20  C   UNL     1      35.311 -19.281 -23.919  0.00  0.00    +0.003 C 
ATOM     21  C   UNL     1      36.121 -17.583 -22.463  0.00  0.00    +0.099 C 
ATOM     22  C   UNL     1      36.138 -18.909 -22.865  0.00  0.00    +0.021 C 
ENDBRANCH  10  18
TORSDOF 1
ENDMDL
MODEL 5
REMARK VINA RESULT:      -7.4     15.245     17.837
REMARK  Name = 12562545
REMARK  1 active torsions:
REMARK  status: ('A' for Active; 'I' for Inactive)
REMARK    1  A    between atoms: C_10  and  C_18
REMARK                            x       y       z     vdW  Elec       q    Type
REMARK                         _______ _______ _______ _____ _____    ______ ____
ROOT
ATOM      1 BR   UNL     1      30.873 -10.765 -19.401  0.00  0.00    -0.049 Br
ATOM      2  N   UNL     1      33.792 -11.147 -24.745  0.00  0.00    -0.279 N 
ATOM      3  N   UNL     1      34.467  -8.234 -24.129  0.00  0.00    -0.261 NA
ATOM      4  N   UNL     1      35.301 -10.808 -26.315  0.00  0.00    -0.131 NA
ATOM      5  N   UNL     1      34.557 -11.909 -26.664  0.00  0.00    -0.133 NA
ATOM      6  C   UNL     1      33.054 -11.003 -23.549  0.00  0.00    +0.068 C 
ATOM      7  C   UNL     1      32.949  -9.765 -22.885  0.00  0.00    +0.035 C 
ATOM      8  C   UNL     1      34.855 -10.374 -25.154  0.00  0.00    +0.172 A 
ATOM      9  C   UNL     1      35.431  -9.301 -24.316  0.00  0.00    +0.191 C 
ATOM     10  C   UNL     1      33.369  -8.455 -23.489  0.00  0.00    +0.095 C 
ATOM     11  C   UNL     1      33.681 -12.116 -25.708  0.00  0.00    +0.147 A 
ATOM     12  C   UNL     1      32.443 -12.141 -22.998  0.00  0.00    +0.018 C 
ATOM     13  C   UNL     1      32.310  -9.714 -21.634  0.00  0.00    +0.010 C 
ATOM     14  C   UNL     1      31.790 -12.066 -21.768  0.00  0.00    +0.008 C 
ATOM     15  C   UNL     1      31.737 -10.859 -21.079  0.00  0.00    +0.035 C 
ATOM     16  C   UNL     1      32.628 -13.150 -25.798  0.00  0.00    +0.074 C 
ENDROOT
BRANCH  10  18
ATOM     17  N   UNL     1      32.568  -6.559 -22.261  0.00  0.00    -0.242 NA
ATOM     18  C   UNL     1      32.432  -7.297 -23.378  0.00  0.00    +0.099 C 
ATOM     19  C   UNL     1      31.520  -7.057 -24.381  0.00  0.00    +0.021 C 
ATOM     20  C   UNL     1      30.672  -5.966 -24.228  0.00  0.00    +0.003 C 
ATOM     21  C   UNL     1      31.726  -5.507 -22.145  0.00  0.00    +0.099 C 
ATOM     22  C   UNL     1      30.770  -5.171 -23.091  0.00  0.00    +0.021 C 
ENDBRANCH  10  18
TORSDOF 1
ENDMDL
MODEL 6
REMARK VINA RESULT:      -6.9      9.499     12.240
REMARK  Name = 12562545
REMARK  1 active torsions:
REMARK  status: ('A' for Active; 'I' for Inactive)
REMARK    1  A    between atoms: C_10  and  C_18
REMARK                            x       y       z     vdW  Elec       q    Type
REMARK                         _______ _______ _______ _____ _____    ______ ____
ROOT
ATOM      1 BR   UNL     1      31.885 -12.170 -20.372  0.00  0.00    -0.049 Br
ATOM      2  N   UNL     1      33.993 -17.759 -21.613  0.00  0.00    -0.279 N 
ATOM      3  N   UNL     1      35.486 -16.270 -23.821  0.00  0.00    -0.261 NA
ATOM      4  N   UNL     1      35.357 -19.369 -22.248  0.00  0.00    -0.131 NA
ATOM      5  N   UNL     1      34.313 -19.937 -21.559  0.00  0.00    -0.133 NA
ATOM      6  C   UNL     1      33.456 -16.469 -21.405  0.00  0.00    +0.068 C 
ATOM      7  C   UNL     1      33.760 -15.391 -22.259  0.00  0.00    +0.035 C 
ATOM      8  C   UNL     1      35.174 -18.065 -22.252  0.00  0.00    +0.172 A 
ATOM      9  C   UNL     1      36.104 -17.030 -22.751  0.00  0.00    +0.191 C 
ATOM     10  C   UNL     1      34.446 -15.545 -23.586  0.00  0.00    +0.095 C 
ATOM     11  C   UNL     1      33.523 -18.965 -21.163  0.00  0.00    +0.147 A 
ATOM     12  C   UNL     1      32.628 -16.261 -20.290  0.00  0.00    +0.018 C 
ATOM     13  C   UNL     1      33.298 -14.106 -21.925  0.00  0.00    +0.010 C 
ATOM     14  C   UNL     1      32.156 -14.983 -19.989  0.00  0.00    +0.008 C 
ATOM     15  C   UNL     1      32.504 -13.904 -20.796  0.00  0.00    +0.035 C 
ATOM     16  C   UNL     1      32.229 -19.209 -20.492  0.00  0.00    +0.074 C 
ENDROOT
BRANCH  10  18
ATOM     17  N   UNL     1      33.970 -13.484 -24.716  0.00  0.00    -0.242 NA
ATOM     18  C   UNL     1      33.871 -14.826 -24.763  0.00  0.00    +0.099 C 
ATOM     19  C   UNL     1      33.296 -15.543 -25.788  0.00  0.00    +0.021 C 
ATOM     20  C   UNL     1      32.777 -14.825 -26.859  0.00  0.00    +0.003 C 
ATOM     21  C   UNL     1      33.454 -12.819 -25.773  0.00  0.00    +0.099 C 
ATOM     22  C   UNL     1      32.852 -13.436 -26.859  0.00  0.00    +0.021 C 
ENDBRANCH  10  18
TORSDOF 1
ENDMDL
MODEL 7
REMARK VINA RESULT:      -6.8     12.530     15.068
REMARK  Name = 12562545
REMARK  1 active torsions:
REMARK  status: ('A' for Active; 'I' for Inactive)
REMARK    1  A    between atoms: C_10  and  C_18
REMARK                            x       y       z     vdW  Elec       q    Type
REMARK                         _______ _______ _______ _____ _____    ______ ____
ROOT
ATOM      1 BR   UNL     1      34.760 -15.804 -20.179  0.00  0.00    -0.049 Br
ATOM      2  N   UNL     1      33.402 -13.650 -25.723  0.00  0.00    -0.279 N 
ATOM      3  N   UNL     1      33.614 -10.962 -24.291  0.00  0.00    -0.261 NA
ATOM      4  N   UNL     1      33.363 -12.323 -27.482  0.00  0.00    -0.131 NA
ATOM      5  N   UNL     1      32.857 -13.545 -27.854  0.00  0.00    -0.133 NA
ATOM      6  C   UNL     1      33.632 -14.121 -24.411  0.00  0.00    +0.068 C 
ATOM      7  C   UNL     1      33.708 -13.246 -23.310  0.00  0.00    +0.035 C 
ATOM      8  C   UNL     1      33.711 -12.402 -26.214  0.00  0.00    +0.172 A 
ATOM      9  C   UNL     1      34.427 -11.384 -25.416  0.00  0.00    +0.191 C 
ATOM     10  C   UNL     1      33.304 -11.801 -23.362  0.00  0.00    +0.095 C 
ATOM     11  C   UNL     1      32.912 -14.333 -26.805  0.00  0.00    +0.147 A 
ATOM     12  C   UNL     1      33.824 -15.499 -24.220  0.00  0.00    +0.018 C 
ATOM     13  C   UNL     1      34.066 -13.764 -22.053  0.00  0.00    +0.010 C 
ATOM     14  C   UNL     1      34.153 -15.998 -22.959  0.00  0.00    +0.008 C 
ATOM     15  C   UNL     1      34.290 -15.130 -21.880  0.00  0.00    +0.035 C 
ATOM     16  C   UNL     1      32.341 -15.696 -26.799  0.00  0.00    +0.074 C 
ENDROOT
BRANCH  10  18
ATOM     17  N   UNL     1      32.572  -9.955 -22.019  0.00  0.00    -0.242 NA
ATOM     18  C   UNL     1      32.440 -11.272 -22.264  0.00  0.00    +0.099 C 
ATOM     19  C   UNL     1      31.591 -12.123 -21.592  0.00  0.00    +0.021 C 
ATOM     20  C   UNL     1      30.809 -11.579 -20.579  0.00  0.00    +0.003 C 
ATOM     21  C   UNL     1      31.796  -9.462 -21.027  0.00  0.00    +0.099 C 
ATOM     22  C   UNL     1      30.908 -10.224 -20.285  0.00  0.00    +0.021 C 
ENDBRANCH  10  18
TORSDOF 1
ENDMDL
MODEL 8
REMARK VINA RESULT:      -6.8      1.973      5.387
REMARK  Name = 12562545
REMARK  1 active torsions:
REMARK  status: ('A' for Active; 'I' for Inactive)
REMARK    1  A    between atoms: C_10  and  C_18
REMARK                            x       y       z     vdW  Elec       q    Type
REMARK                         _______ _______ _______ _____ _____    ______ ____
ROOT
ATOM      1 BR   UNL     1      36.294 -21.263 -18.928  0.00  0.00    -0.049 Br
ATOM      2  N   UNL     1      36.763 -23.932 -13.462  0.00  0.00    -0.279 N 
ATOM      3  N   UNL     1      34.221 -25.350 -14.382  0.00  0.00    -0.261 NA
ATOM      4  N   UNL     1      36.637 -25.463 -11.882  0.00  0.00    -0.131 NA
ATOM      5  N   UNL     1      37.457 -24.455 -11.439  0.00  0.00    -0.133 NA
ATOM      6  C   UNL     1      36.580 -23.268 -14.696  0.00  0.00    +0.068 C 
ATOM      7  C   UNL     1      35.447 -23.497 -15.502  0.00  0.00    +0.035 C 
ATOM      8  C   UNL     1      36.248 -25.157 -13.103  0.00  0.00    +0.172 A 
ATOM      9  C   UNL     1      35.470 -26.001 -14.034  0.00  0.00    +0.191 C 
ATOM     10  C   UNL     1      34.227 -24.239 -15.036  0.00  0.00    +0.095 C 
ATOM     11  C   UNL     1      37.546 -23.564 -12.399  0.00  0.00    +0.147 A 
ATOM     12  C   UNL     1      37.580 -22.387 -15.136  0.00  0.00    +0.018 C 
ATOM     13  C   UNL     1      35.386 -22.904 -16.775  0.00  0.00    +0.010 C 
ATOM     14  C   UNL     1      37.489 -21.787 -16.392  0.00  0.00    +0.008 C 
ATOM     15  C   UNL     1      36.402 -22.058 -17.217  0.00  0.00    +0.035 C 
ATOM     16  C   UNL     1      38.254 -22.277 -12.233  0.00  0.00    +0.074 C 
ENDROOT
BRANCH  10  18
ATOM     17  N   UNL     1      32.577 -23.526 -16.622  0.00  0.00    -0.242 NA
ATOM     18  C   UNL     1      32.889 -23.638 -15.317  0.00  0.00    +0.099 C 
ATOM     19  C   UNL     1      32.081 -23.249 -14.272  0.00  0.00    +0.021 C 
ATOM     20  C   UNL     1      30.845 -22.696 -14.590  0.00  0.00    +0.003 C 
ATOM     21  C   UNL     1      31.369 -22.984 -16.893  0.00  0.00    +0.099 C 
ATOM     22  C   UNL     1      30.475 -22.557 -15.923  0.00  0.00    +0.021 C 
ENDBRANCH  10  18
TORSDOF 1
ENDMDL
MODEL 9
REMARK VINA RESULT:      -6.4     11.448     14.044
REMARK  Name = 12562545
REMARK  1 active torsions:
REMARK  status: ('A' for Active; 'I' for Inactive)
REMARK    1  A    between atoms: C_10  and  C_18
REMARK                            x       y       z     vdW  Elec       q    Type
REMARK                         _______ _______ _______ _____ _____    ______ ____
ROOT
ATOM      1 BR   UNL     1      32.165 -13.695 -27.784  0.00  0.00    -0.049 Br
ATOM      2  N   UNL     1      33.963 -15.403 -22.209  0.00  0.00    -0.279 N 
ATOM      3  N   UNL     1      32.545 -12.824 -21.398  0.00  0.00    -0.261 NA
ATOM      4  N   UNL     1      33.960 -15.689 -20.024  0.00  0.00    -0.131 NA
ATOM      5  N   UNL     1      34.915 -16.516 -20.565  0.00  0.00    -0.133 NA
ATOM      6  C   UNL     1      33.608 -14.938 -23.495  0.00  0.00    +0.068 C 
ATOM      7  C   UNL     1      32.994 -13.686 -23.689  0.00  0.00    +0.035 C 
ATOM      8  C   UNL     1      33.377 -15.048 -21.016  0.00  0.00    +0.172 A 
ATOM      9  C   UNL     1      32.200 -14.156 -20.938  0.00  0.00    +0.191 C 
ATOM     10  C   UNL     1      32.894 -12.631 -22.625  0.00  0.00    +0.095 C 
ATOM     11  C   UNL     1      34.887 -16.356 -21.868  0.00  0.00    +0.147 A 
ATOM     12  C   UNL     1      33.847 -15.774 -24.598  0.00  0.00    +0.018 C 
ATOM     13  C   UNL     1      32.550 -13.337 -24.977  0.00  0.00    +0.010 C 
ATOM     14  C   UNL     1      33.423 -15.399 -25.873  0.00  0.00    +0.008 C 
ATOM     15  C   UNL     1      32.761 -14.190 -26.060  0.00  0.00    +0.035 C 
ATOM     16  C   UNL     1      35.861 -17.000 -22.773  0.00  0.00    +0.074 C 
ENDROOT
BRANCH  10  18
ATOM     17  N   UNL     1      32.520 -10.275 -22.388  0.00  0.00    -0.242 NA
ATOM     18  C   UNL     1      33.256 -11.228 -22.988  0.00  0.00    +0.099 C 
ATOM     19  C   UNL     1      34.280 -10.996 -23.880  0.00  0.00    +0.021 C 
ATOM     20  C   UNL     1      34.576  -9.671 -24.183  0.00  0.00    +0.003 C 
ATOM     21  C   UNL     1      32.836  -9.000 -22.707  0.00  0.00    +0.099 C 
ATOM     22  C   UNL     1      33.844  -8.648 -23.590  0.00  0.00    +0.021 C 
ENDBRANCH  10  18
TORSDOF 1
ENDMDL
