MODEL 1
REMARK VINA RESULT:     -10.1      0.000      0.000
REMARK  Name = 46944259
REMARK  8 active torsions:
REMARK  status: ('A' for Active; 'I' for Inactive)
REMARK    1  A    between atoms: C_5  and  O_22
REMARK    2  A    between atoms: C_6  and  C_11
REMARK    3  A    between atoms: C_12  and  C_15
REMARK    4  A    between atoms: N_13  and  C_18
REMARK    5  A    between atoms: C_18  and  C_19
REMARK    6  A    between atoms: C_19  and  O_20
REMARK    7  A    between atoms: O_22  and  C_23
REMARK    8  A    between atoms: C_23  and  C_28
REMARK                            x       y       z     vdW  Elec       q    Type
REMARK                         _______ _______ _______ _____ _____    ______ ____
ROOT
ATOM      1  N   UNL     1      33.172 -14.864 -26.257  0.00  0.00    -0.276 N 
ATOM      2  N   UNL     1      32.888 -13.765 -25.539  0.00  0.00    -0.173 NA
ATOM      3  C   UNL     1      33.818 -15.396 -24.230  0.00  0.00    +0.039 A 
ATOM      4  C   UNL     1      33.732 -15.880 -25.531  0.00  0.00    +0.076 A 
ATOM      5  C   UNL     1      34.797 -17.498 -23.572  0.00  0.00    +0.139 C 
ATOM      6  C   UNL     1      33.282 -14.093 -24.306  0.00  0.00    +0.102 A 
ATOM      7  C   UNL     1      34.358 -16.215 -23.225  0.00  0.00    +0.040 C 
ATOM      8  C   UNL     1      34.163 -17.157 -25.898  0.00  0.00    +0.022 C 
ATOM      9  C   UNL     1      34.700 -17.960 -24.886  0.00  0.00    +0.038 C 
ATOM     10  H   UNL     1      32.993 -14.934 -27.223  0.00  0.00    +0.189 HD
ENDROOT
BRANCH   6  11
ATOM     11  C   UNL     1      33.165 -13.209 -23.201  0.00  0.00    +0.021 C 
ATOM     12  C   UNL     1      31.998 -12.815 -22.591  0.00  0.00    +0.005 C 
BRANCH  12  15
ATOM     13  N   UNL     1      31.725 -10.134 -20.174  0.00  0.00    -0.208 N 
ATOM     14  N   UNL     1      31.686 -11.145 -19.290  0.00  0.00    -0.176 NA
ATOM     15  C   UNL     1      31.880 -11.911 -21.434  0.00  0.00    +0.037 C 
ATOM     16  C   UNL     1      31.841 -10.538 -21.471  0.00  0.00    +0.086 C 
ATOM     17  C   UNL     1      31.781 -12.229 -20.065  0.00  0.00    +0.119 C 
BRANCH  13  18
ATOM     18  C   UNL     1      31.649  -8.771 -19.704  0.00  0.00    +0.148 C 
BRANCH  18  19
ATOM     19  C   UNL     1      32.614  -7.848 -20.442  0.00  0.00    +0.161 C 
BRANCH  19  20
ATOM     20  O   UNL     1      33.287  -7.012 -19.508  0.00  0.00    -0.380 OA
ATOM     21  H   UNL     1      32.882  -7.114 -18.633  0.00  0.00    +0.211 HD
ENDBRANCH  19  20
ENDBRANCH  18  19
ENDBRANCH  13  18
ENDBRANCH  12  15
ENDBRANCH   6  11
BRANCH   5  22
ATOM     22  O   UNL     1      35.325 -18.309 -22.611  0.00  0.00    -0.475 OA
BRANCH  22  23
ATOM     23  C   UNL     1      34.656 -18.342 -21.354  0.00  0.00    +0.190 C 
ATOM     24  C   UNL     1      35.097 -17.149 -20.512  0.00  0.00    +0.052 C 
BRANCH  23  28
ATOM     25 CL   UNL     1      32.251 -19.959 -20.317  0.00  0.00    -0.081 Cl
ATOM     26 CL   UNL     1      37.601 -19.194 -21.105  0.00  0.00    -0.081 Cl
ATOM     27  N   UNL     1      35.479 -22.091 -19.405  0.00  0.00    -0.241 NA
ATOM     28  C   UNL     1      34.945 -19.657 -20.670  0.00  0.00    +0.041 C 
ATOM     29  C   UNL     1      33.900 -20.433 -20.180  0.00  0.00    +0.077 C 
ATOM     30  C   UNL     1      36.256 -20.097 -20.528  0.00  0.00    +0.077 C 
ATOM     31  C   UNL     1      34.217 -21.632 -19.561  0.00  0.00    +0.110 C 
ATOM     32  C   UNL     1      36.468 -21.310 -19.894  0.00  0.00    +0.110 C 
ENDBRANCH  23  28
ENDBRANCH  22  23
ENDBRANCH   5  22
TORSDOF 8
ENDMDL
MODEL 2
REMARK VINA RESULT:     -10.1      0.089      1.653
REMARK  Name = 46944259
REMARK  8 active torsions:
REMARK  status: ('A' for Active; 'I' for Inactive)
REMARK    1  A    between atoms: C_5  and  O_22
REMARK    2  A    between atoms: C_6  and  C_11
REMARK    3  A    between atoms: C_12  and  C_15
REMARK    4  A    between atoms: N_13  and  C_18
REMARK    5  A    between atoms: C_18  and  C_19
REMARK    6  A    between atoms: C_19  and  O_20
REMARK    7  A    between atoms: O_22  and  C_23
REMARK    8  A    between atoms: C_23  and  C_28
REMARK                            x       y       z     vdW  Elec       q    Type
REMARK                         _______ _______ _______ _____ _____    ______ ____
ROOT
ATOM      1  N   UNL     1      33.185 -14.777 -26.201  0.00  0.00    -0.276 N 
ATOM      2  N   UNL     1      32.896 -13.700 -25.452  0.00  0.00    -0.173 NA
ATOM      3  C   UNL     1      33.800 -15.378 -24.184  0.00  0.00    +0.039 A 
ATOM      4  C   UNL     1      33.730 -15.819 -25.501  0.00  0.00    +0.076 A 
ATOM      5  C   UNL     1      34.761 -17.505 -23.582  0.00  0.00    +0.139 C 
ATOM      6  C   UNL     1      33.271 -14.070 -24.225  0.00  0.00    +0.102 A 
ATOM      7  C   UNL     1      34.323 -16.232 -23.199  0.00  0.00    +0.040 C 
ATOM      8  C   UNL     1      34.161 -17.085 -25.904  0.00  0.00    +0.022 C 
ATOM      9  C   UNL     1      34.680 -17.924 -24.912  0.00  0.00    +0.038 C 
ATOM     10  H   UNL     1      33.019 -14.814 -27.171  0.00  0.00    +0.189 HD
ENDROOT
BRANCH   6  11
ATOM     11  C   UNL     1      33.143 -13.223 -23.094  0.00  0.00    +0.021 C 
ATOM     12  C   UNL     1      31.983 -12.649 -22.631  0.00  0.00    +0.005 C 
BRANCH  12  15
ATOM     13  N   UNL     1      31.691 -10.047 -20.130  0.00  0.00    -0.208 N 
ATOM     14  N   UNL     1      31.610 -11.087 -19.283  0.00  0.00    -0.176 NA
ATOM     15  C   UNL     1      31.849 -11.783 -21.446  0.00  0.00    +0.037 C 
ATOM     16  C   UNL     1      31.835 -10.409 -21.437  0.00  0.00    +0.086 C 
ATOM     17  C   UNL     1      31.707 -12.145 -20.093  0.00  0.00    +0.119 C 
BRANCH  13  18
ATOM     18  C   UNL     1      31.626  -8.700 -19.616  0.00  0.00    +0.148 C 
BRANCH  18  19
ATOM     19  C   UNL     1      32.483  -7.729 -20.422  0.00  0.00    +0.161 C 
BRANCH  19  20
ATOM     20  O   UNL     1      33.373  -7.039 -19.553  0.00  0.00    -0.380 OA
ATOM     21  H   UNL     1      34.229  -6.922 -19.995  0.00  0.00    +0.211 HD
ENDBRANCH  19  20
ENDBRANCH  18  19
ENDBRANCH  13  18
ENDBRANCH  12  15
ENDBRANCH   6  11
BRANCH   5  22
ATOM     22  O   UNL     1      35.272 -18.350 -22.642  0.00  0.00    -0.475 OA
BRANCH  22  23
ATOM     23  C   UNL     1      34.646 -18.346 -21.361  0.00  0.00    +0.190 C 
ATOM     24  C   UNL     1      35.150 -17.155 -20.553  0.00  0.00    +0.052 C 
BRANCH  23  28
ATOM     25 CL   UNL     1      37.586 -19.209 -21.079  0.00  0.00    -0.081 Cl
ATOM     26 CL   UNL     1      32.226 -19.948 -20.344  0.00  0.00    -0.081 Cl
ATOM     27  N   UNL     1      35.433 -22.089 -19.384  0.00  0.00    -0.241 NA
ATOM     28  C   UNL     1      34.922 -19.659 -20.668  0.00  0.00    +0.041 C 
ATOM     29  C   UNL     1      36.230 -20.103 -20.510  0.00  0.00    +0.077 C 
ATOM     30  C   UNL     1      33.869 -20.428 -20.185  0.00  0.00    +0.077 C 
ATOM     31  C   UNL     1      36.431 -21.314 -19.867  0.00  0.00    +0.110 C 
ATOM     32  C   UNL     1      34.175 -21.624 -19.556  0.00  0.00    +0.110 C 
ENDBRANCH  23  28
ENDBRANCH  22  23
ENDBRANCH   5  22
TORSDOF 8
ENDMDL
MODEL 3
REMARK VINA RESULT:     -10.0      1.724      2.093
REMARK  Name = 46944259
REMARK  8 active torsions:
REMARK  status: ('A' for Active; 'I' for Inactive)
REMARK    1  A    between atoms: C_5  and  O_22
REMARK    2  A    between atoms: C_6  and  C_11
REMARK    3  A    between atoms: C_12  and  C_15
REMARK    4  A    between atoms: N_13  and  C_18
REMARK    5  A    between atoms: C_18  and  C_19
REMARK    6  A    between atoms: C_19  and  O_20
REMARK    7  A    between atoms: O_22  and  C_23
REMARK    8  A    between atoms: C_23  and  C_28
REMARK                            x       y       z     vdW  Elec       q    Type
REMARK                         _______ _______ _______ _____ _____    ______ ____
ROOT
ATOM      1  N   UNL     1      32.849 -15.242 -26.799  0.00  0.00    -0.276 N 
ATOM      2  N   UNL     1      32.759 -13.947 -26.455  0.00  0.00    -0.173 NA
ATOM      3  C   UNL     1      33.801 -15.170 -24.824  0.00  0.00    +0.039 A 
ATOM      4  C   UNL     1      33.464 -16.030 -25.863  0.00  0.00    +0.076 A 
ATOM      5  C   UNL     1      34.751 -17.049 -23.651  0.00  0.00    +0.139 C 
ATOM      6  C   UNL     1      33.338 -13.907 -25.252  0.00  0.00    +0.102 A 
ATOM      7  C   UNL     1      34.456 -15.681 -23.692  0.00  0.00    +0.040 C 
ATOM      8  C   UNL     1      33.749 -17.397 -25.843  0.00  0.00    +0.022 C 
ATOM      9  C   UNL     1      34.403 -17.891 -24.708  0.00  0.00    +0.038 C 
ATOM     10  H   UNL     1      32.504 -15.595 -27.650  0.00  0.00    +0.189 HD
ENDROOT
BRANCH   6  11
ATOM     11  C   UNL     1      33.466 -12.710 -24.500  0.00  0.00    +0.021 C 
ATOM     12  C   UNL     1      33.809 -11.472 -24.988  0.00  0.00    +0.005 C 
BRANCH  12  15
ATOM     13  N   UNL     1      33.522  -8.558 -22.858  0.00  0.00    -0.208 N 
ATOM     14  N   UNL     1      34.745  -8.279 -23.340  0.00  0.00    -0.176 NA
ATOM     15  C   UNL     1      33.925 -10.226 -24.209  0.00  0.00    +0.037 C 
ATOM     16  C   UNL     1      32.987  -9.713 -23.347  0.00  0.00    +0.086 C 
ATOM     17  C   UNL     1      34.986  -9.302 -24.165  0.00  0.00    +0.119 C 
BRANCH  13  18
ATOM     18  C   UNL     1      32.904  -7.659 -21.913  0.00  0.00    +0.148 C 
BRANCH  18  19
ATOM     19  C   UNL     1      32.728  -8.294 -20.537  0.00  0.00    +0.161 C 
BRANCH  19  20
ATOM     20  O   UNL     1      33.199  -7.405 -19.533  0.00  0.00    -0.380 OA
ATOM     21  H   UNL     1      34.150  -7.253 -19.657  0.00  0.00    +0.211 HD
ENDBRANCH  19  20
ENDBRANCH  18  19
ENDBRANCH  13  18
ENDBRANCH  12  15
ENDBRANCH   6  11
BRANCH   5  22
ATOM     22  O   UNL     1      35.387 -17.565 -22.561  0.00  0.00    -0.475 OA
BRANCH  22  23
ATOM     23  C   UNL     1      34.600 -17.773 -21.391  0.00  0.00    +0.190 C 
ATOM     24  C   UNL     1      34.919 -16.690 -20.365  0.00  0.00    +0.052 C 
BRANCH  23  28
ATOM     25 CL   UNL     1      32.177 -19.393 -20.405  0.00  0.00    -0.081 Cl
ATOM     26 CL   UNL     1      37.514 -18.755 -21.367  0.00  0.00    -0.081 Cl
ATOM     27  N   UNL     1      35.348 -21.726 -19.859  0.00  0.00    -0.241 NA
ATOM     28  C   UNL     1      34.862 -19.160 -20.854  0.00  0.00    +0.041 C 
ATOM     29  C   UNL     1      33.808 -19.941 -20.393  0.00  0.00    +0.077 C 
ATOM     30  C   UNL     1      36.159 -19.660 -20.818  0.00  0.00    +0.077 C 
ATOM     31  C   UNL     1      34.101 -21.206 -19.910  0.00  0.00    +0.110 C 
ATOM     32  C   UNL     1      36.347 -20.938 -20.316  0.00  0.00    +0.110 C 
ENDBRANCH  23  28
ENDBRANCH  22  23
ENDBRANCH   5  22
TORSDOF 8
ENDMDL
MODEL 4
REMARK VINA RESULT:     -10.0      4.507      7.448
REMARK  Name = 46944259
REMARK  8 active torsions:
REMARK  status: ('A' for Active; 'I' for Inactive)
REMARK    1  A    between atoms: C_5  and  O_22
REMARK    2  A    between atoms: C_6  and  C_11
REMARK    3  A    between atoms: C_12  and  C_15
REMARK    4  A    between atoms: N_13  and  C_18
REMARK    5  A    between atoms: C_18  and  C_19
REMARK    6  A    between atoms: C_19  and  O_20
REMARK    7  A    between atoms: O_22  and  C_23
REMARK    8  A    between atoms: C_23  and  C_28
REMARK                            x       y       z     vdW  Elec       q    Type
REMARK                         _______ _______ _______ _____ _____    ______ ____
ROOT
ATOM      1  N   UNL     1      31.700  -9.021 -19.186  0.00  0.00    -0.276 N 
ATOM      2  N   UNL     1      31.889  -7.836 -19.788  0.00  0.00    -0.173 NA
ATOM      3  C   UNL     1      32.081  -9.566 -21.276  0.00  0.00    +0.039 A 
ATOM      4  C   UNL     1      31.801 -10.099 -20.022  0.00  0.00    +0.076 A 
ATOM      5  C   UNL     1      32.122 -11.808 -22.160  0.00  0.00    +0.139 C 
ATOM      6  C   UNL     1      32.122  -8.171 -21.060  0.00  0.00    +0.102 A 
ATOM      7  C   UNL     1      32.247 -10.430 -22.370  0.00  0.00    +0.040 C 
ATOM      8  C   UNL     1      31.672 -11.471 -19.790  0.00  0.00    +0.022 C 
ATOM      9  C   UNL     1      31.840 -12.318 -20.891  0.00  0.00    +0.038 C 
ATOM     10  H   UNL     1      31.504  -9.107 -18.225  0.00  0.00    +0.189 HD
ENDROOT
BRANCH   6  11
ATOM     11  C   UNL     1      32.380  -7.212 -22.074  0.00  0.00    +0.021 C 
ATOM     12  C   UNL     1      31.562  -6.904 -23.134  0.00  0.00    +0.005 C 
BRANCH  12  15
ATOM     13  N   UNL     1      32.730  -4.754 -25.803  0.00  0.00    -0.208 N 
ATOM     14  N   UNL     1      31.597  -4.079 -25.543  0.00  0.00    -0.176 NA
ATOM     15  C   UNL     1      31.824  -5.895 -24.176  0.00  0.00    +0.037 C 
ATOM     16  C   UNL     1      32.913  -5.849 -25.012  0.00  0.00    +0.086 C 
ATOM     17  C   UNL     1      31.047  -4.781 -24.549  0.00  0.00    +0.119 C 
BRANCH  13  18
ATOM     18  C   UNL     1      33.618  -4.288 -26.841  0.00  0.00    +0.148 C 
BRANCH  18  19
ATOM     19  C   UNL     1      33.042  -4.504 -28.237  0.00  0.00    +0.161 C 
BRANCH  19  20
ATOM     20  O   UNL     1      31.931  -3.640 -28.438  0.00  0.00    -0.380 OA
ATOM     21  H   UNL     1      31.609  -3.323 -27.580  0.00  0.00    +0.211 HD
ENDBRANCH  19  20
ENDBRANCH  18  19
ENDBRANCH  13  18
ENDBRANCH  12  15
ENDBRANCH   6  11
BRANCH   5  22
ATOM     22  O   UNL     1      32.279 -12.664 -23.210  0.00  0.00    -0.475 OA
BRANCH  22  23
ATOM     23  C   UNL     1      33.605 -12.855 -23.695  0.00  0.00    +0.190 C 
ATOM     24  C   UNL     1      33.817 -12.003 -24.942  0.00  0.00    +0.052 C 
BRANCH  23  28
ATOM     25 CL   UNL     1      32.877 -13.907 -26.493  0.00  0.00    -0.081 Cl
ATOM     26 CL   UNL     1      34.754 -14.558 -21.406  0.00  0.00    -0.081 Cl
ATOM     27  N   UNL     1      34.247 -17.041 -24.467  0.00  0.00    -0.241 NA
ATOM     28  C   UNL     1      33.830 -14.323 -23.966  0.00  0.00    +0.041 C 
ATOM     29  C   UNL     1      33.520 -14.858 -25.211  0.00  0.00    +0.077 C 
ATOM     30  C   UNL     1      34.348 -15.145 -22.971  0.00  0.00    +0.077 C 
ATOM     31  C   UNL     1      33.745 -16.211 -25.410  0.00  0.00    +0.110 C 
ATOM     32  C   UNL     1      34.536 -16.485 -23.270  0.00  0.00    +0.110 C 
ENDBRANCH  23  28
ENDBRANCH  22  23
ENDBRANCH   5  22
TORSDOF 8
ENDMDL
MODEL 5
REMARK VINA RESULT:     -10.0      3.582      9.393
REMARK  Name = 46944259
REMARK  8 active torsions:
REMARK  status: ('A' for Active; 'I' for Inactive)
REMARK    1  A    between atoms: C_5  and  O_22
REMARK    2  A    between atoms: C_6  and  C_11
REMARK    3  A    between atoms: C_12  and  C_15
REMARK    4  A    between atoms: N_13  and  C_18
REMARK    5  A    between atoms: C_18  and  C_19
REMARK    6  A    between atoms: C_19  and  O_20
REMARK    7  A    between atoms: O_22  and  C_23
REMARK    8  A    between atoms: C_23  and  C_28
REMARK                            x       y       z     vdW  Elec       q    Type
REMARK                         _______ _______ _______ _____ _____    ______ ____
ROOT
ATOM      1  N   UNL     1      33.357 -16.480 -26.293  0.00  0.00    -0.276 N 
ATOM      2  N   UNL     1      33.842 -17.431 -25.479  0.00  0.00    -0.173 NA
ATOM      3  C   UNL     1      33.974 -15.361 -24.511  0.00  0.00    +0.039 A 
ATOM      4  C   UNL     1      33.407 -15.215 -25.772  0.00  0.00    +0.076 A 
ATOM      5  C   UNL     1      33.774 -12.978 -24.206  0.00  0.00    +0.139 C 
ATOM      6  C   UNL     1      34.218 -16.746 -24.395  0.00  0.00    +0.102 A 
ATOM      7  C   UNL     1      34.166 -14.226 -23.707  0.00  0.00    +0.040 C 
ATOM      8  C   UNL     1      33.010 -13.980 -26.290  0.00  0.00    +0.022 C 
ATOM      9  C   UNL     1      33.206 -12.859 -25.476  0.00  0.00    +0.038 C 
ATOM     10  H   UNL     1      32.996 -16.674 -27.188  0.00  0.00    +0.189 HD
ENDROOT
BRANCH   6  11
ATOM     11  C   UNL     1      34.798 -17.366 -23.258  0.00  0.00    +0.021 C 
ATOM     12  C   UNL     1      34.583 -18.655 -22.831  0.00  0.00    +0.005 C 
BRANCH  12  15
ATOM     13  N   UNL     1      35.602 -20.629 -19.972  0.00  0.00    -0.208 N 
ATOM     14  N   UNL     1      36.650 -19.788 -19.963  0.00  0.00    -0.176 NA
ATOM     15  C   UNL     1      35.199 -19.302 -21.660  0.00  0.00    +0.037 C 
ATOM     16  C   UNL     1      34.704 -20.380 -20.968  0.00  0.00    +0.086 C 
ATOM     17  C   UNL     1      36.399 -18.979 -20.996  0.00  0.00    +0.119 C 
BRANCH  13  18
ATOM     18  C   UNL     1      35.513 -21.671 -18.978  0.00  0.00    +0.148 C 
BRANCH  18  19
ATOM     19  C   UNL     1      34.117 -22.281 -18.900  0.00  0.00    +0.161 C 
BRANCH  19  20
ATOM     20  O   UNL     1      34.111 -23.550 -19.540  0.00  0.00    -0.380 OA
ATOM     21  H   UNL     1      34.184 -23.429 -20.499  0.00  0.00    +0.211 HD
ENDBRANCH  19  20
ENDBRANCH  18  19
ENDBRANCH  13  18
ENDBRANCH  12  15
ENDBRANCH   6  11
BRANCH   5  22
ATOM     22  O   UNL     1      33.951 -11.863 -23.441  0.00  0.00    -0.475 OA
BRANCH  22  23
ATOM     23  C   UNL     1      33.686 -10.607 -24.059  0.00  0.00    +0.190 C 
ATOM     24  C   UNL     1      34.965 -10.076 -24.698  0.00  0.00    +0.052 C 
BRANCH  23  28
ATOM     25 CL   UNL     1      31.553 -11.697 -22.128  0.00  0.00    -0.081 Cl
ATOM     26 CL   UNL     1      34.768  -7.728 -24.059  0.00  0.00    -0.081 Cl
ATOM     27  N   UNL     1      32.094  -7.889 -21.124  0.00  0.00    -0.241 NA
ATOM     28  C   UNL     1      33.127  -9.653 -23.030  0.00  0.00    +0.041 C 
ATOM     29  C   UNL     1      32.161 -10.087 -22.129  0.00  0.00    +0.077 C 
ATOM     30  C   UNL     1      33.578  -8.339 -22.979  0.00  0.00    +0.077 C 
ATOM     31  C   UNL     1      31.681  -9.174 -21.204  0.00  0.00    +0.110 C 
ATOM     32  C   UNL     1      33.034  -7.505 -22.016  0.00  0.00    +0.110 C 
ENDBRANCH  23  28
ENDBRANCH  22  23
ENDBRANCH   5  22
TORSDOF 8
ENDMDL
MODEL 6
REMARK VINA RESULT:     -10.0      4.521      7.502
REMARK  Name = 46944259
REMARK  8 active torsions:
REMARK  status: ('A' for Active; 'I' for Inactive)
REMARK    1  A    between atoms: C_5  and  O_22
REMARK    2  A    between atoms: C_6  and  C_11
REMARK    3  A    between atoms: C_12  and  C_15
REMARK    4  A    between atoms: N_13  and  C_18
REMARK    5  A    between atoms: C_18  and  C_19
REMARK    6  A    between atoms: C_19  and  O_20
REMARK    7  A    between atoms: O_22  and  C_23
REMARK    8  A    between atoms: C_23  and  C_28
REMARK                            x       y       z     vdW  Elec       q    Type
REMARK                         _______ _______ _______ _____ _____    ______ ____
ROOT
ATOM      1  N   UNL     1      31.714  -8.987 -19.188  0.00  0.00    -0.276 N 
ATOM      2  N   UNL     1      31.913  -7.800 -19.785  0.00  0.00    -0.173 NA
ATOM      3  C   UNL     1      32.101  -9.525 -21.279  0.00  0.00    +0.039 A 
ATOM      4  C   UNL     1      31.813 -10.062 -20.029  0.00  0.00    +0.076 A 
ATOM      5  C   UNL     1      32.132 -11.764 -22.172  0.00  0.00    +0.139 C 
ATOM      6  C   UNL     1      32.149  -8.132 -21.057  0.00  0.00    +0.102 A 
ATOM      7  C   UNL     1      32.266 -10.386 -22.376  0.00  0.00    +0.040 C 
ATOM      8  C   UNL     1      31.675 -11.434 -19.803  0.00  0.00    +0.022 C 
ATOM      9  C   UNL     1      31.842 -12.278 -20.906  0.00  0.00    +0.038 C 
ATOM     10  H   UNL     1      31.514  -9.076 -18.228  0.00  0.00    +0.189 HD
ENDROOT
BRANCH   6  11
ATOM     11  C   UNL     1      32.417  -7.170 -22.066  0.00  0.00    +0.021 C 
ATOM     12  C   UNL     1      31.596  -6.838 -23.117  0.00  0.00    +0.005 C 
BRANCH  12  15
ATOM     13  N   UNL     1      32.764  -4.709 -25.802  0.00  0.00    -0.208 N 
ATOM     14  N   UNL     1      31.686  -3.975 -25.478  0.00  0.00    -0.176 NA
ATOM     15  C   UNL     1      31.869  -5.827 -24.153  0.00  0.00    +0.037 C 
ATOM     16  C   UNL     1      32.919  -5.828 -25.039  0.00  0.00    +0.086 C 
ATOM     17  C   UNL     1      31.143  -4.662 -24.470  0.00  0.00    +0.119 C 
BRANCH  13  18
ATOM     18  C   UNL     1      33.629  -4.276 -26.874  0.00  0.00    +0.148 C 
BRANCH  18  19
ATOM     19  C   UNL     1      32.996  -4.478 -28.247  0.00  0.00    +0.161 C 
BRANCH  19  20
ATOM     20  O   UNL     1      31.901  -3.586 -28.408  0.00  0.00    -0.380 OA
ATOM     21  H   UNL     1      32.103  -2.744 -27.971  0.00  0.00    +0.211 HD
ENDBRANCH  19  20
ENDBRANCH  18  19
ENDBRANCH  13  18
ENDBRANCH  12  15
ENDBRANCH   6  11
BRANCH   5  22
ATOM     22  O   UNL     1      32.288 -12.617 -23.224  0.00  0.00    -0.475 OA
BRANCH  22  23
ATOM     23  C   UNL     1      33.617 -12.822 -23.698  0.00  0.00    +0.190 C 
ATOM     24  C   UNL     1      33.841 -11.987 -24.955  0.00  0.00    +0.052 C 
BRANCH  23  28
ATOM     25 CL   UNL     1      34.742 -14.502 -21.379  0.00  0.00    -0.081 Cl
ATOM     26 CL   UNL     1      32.901 -13.907 -26.486  0.00  0.00    -0.081 Cl
ATOM     27  N   UNL     1      34.237 -17.022 -24.411  0.00  0.00    -0.241 NA
ATOM     28  C   UNL     1      33.834 -14.295 -23.948  0.00  0.00    +0.041 C 
ATOM     29  C   UNL     1      34.340 -15.107 -22.939  0.00  0.00    +0.077 C 
ATOM     30  C   UNL     1      33.529 -14.844 -25.188  0.00  0.00    +0.077 C 
ATOM     31  C   UNL     1      34.522 -16.452 -23.218  0.00  0.00    +0.110 C 
ATOM     32  C   UNL     1      33.746 -16.201 -25.367  0.00  0.00    +0.110 C 
ENDBRANCH  23  28
ENDBRANCH  22  23
ENDBRANCH   5  22
TORSDOF 8
ENDMDL
MODEL 7
REMARK VINA RESULT:     -10.0      4.312      7.375
REMARK  Name = 46944259
REMARK  8 active torsions:
REMARK  status: ('A' for Active; 'I' for Inactive)
REMARK    1  A    between atoms: C_5  and  O_22
REMARK    2  A    between atoms: C_6  and  C_11
REMARK    3  A    between atoms: C_12  and  C_15
REMARK    4  A    between atoms: N_13  and  C_18
REMARK    5  A    between atoms: C_18  and  C_19
REMARK    6  A    between atoms: C_19  and  O_20
REMARK    7  A    between atoms: O_22  and  C_23
REMARK    8  A    between atoms: C_23  and  C_28
REMARK                            x       y       z     vdW  Elec       q    Type
REMARK                         _______ _______ _______ _____ _____    ______ ____
ROOT
ATOM      1  N   UNL     1      31.691  -9.446 -19.003  0.00  0.00    -0.276 N 
ATOM      2  N   UNL     1      31.852  -8.197 -19.470  0.00  0.00    -0.173 NA
ATOM      3  C   UNL     1      32.055  -9.746 -21.144  0.00  0.00    +0.039 A 
ATOM      4  C   UNL     1      31.800 -10.422 -19.956  0.00  0.00    +0.076 A 
ATOM      5  C   UNL     1      32.124 -11.873 -22.275  0.00  0.00    +0.139 C 
ATOM      6  C   UNL     1      32.074  -8.384 -20.774  0.00  0.00    +0.102 A 
ATOM      7  C   UNL     1      32.222 -10.478 -22.331  0.00  0.00    +0.040 C 
ATOM      8  C   UNL     1      31.698 -11.813 -19.879  0.00  0.00    +0.022 C 
ATOM      9  C   UNL     1      31.867 -12.528 -21.069  0.00  0.00    +0.038 C 
ATOM     10  H   UNL     1      31.509  -9.643 -18.055  0.00  0.00    +0.189 HD
ENDROOT
BRANCH   6  11
ATOM     11  C   UNL     1      32.303  -7.312 -21.676  0.00  0.00    +0.021 C 
ATOM     12  C   UNL     1      31.436  -6.858 -22.641  0.00  0.00    +0.005 C 
BRANCH  12  15
ATOM     13  N   UNL     1      31.736  -3.745 -24.467  0.00  0.00    -0.208 N 
ATOM     14  N   UNL     1      32.312  -4.528 -25.396  0.00  0.00    -0.176 NA
ATOM     15  C   UNL     1      31.668  -5.734 -23.565  0.00  0.00    +0.037 C 
ATOM     16  C   UNL     1      31.333  -4.419 -23.352  0.00  0.00    +0.086 C 
ATOM     17  C   UNL     1      32.268  -5.741 -24.839  0.00  0.00    +0.119 C 
BRANCH  13  18
ATOM     18  C   UNL     1      31.595  -2.330 -24.712  0.00  0.00    +0.148 C 
BRANCH  18  19
ATOM     19  C   UNL     1      30.569  -2.029 -25.800  0.00  0.00    +0.161 C 
BRANCH  19  20
ATOM     20  O   UNL     1      29.256  -2.199 -25.282  0.00  0.00    -0.380 OA
ATOM     21  H   UNL     1      28.883  -1.332 -25.056  0.00  0.00    +0.211 HD
ENDBRANCH  19  20
ENDBRANCH  18  19
ENDBRANCH  13  18
ENDBRANCH  12  15
ENDBRANCH   6  11
BRANCH   5  22
ATOM     22  O   UNL     1      32.282 -12.603 -23.416  0.00  0.00    -0.475 OA
BRANCH  22  23
ATOM     23  C   UNL     1      33.618 -12.817 -23.866  0.00  0.00    +0.190 C 
ATOM     24  C   UNL     1      33.883 -11.956 -25.097  0.00  0.00    +0.052 C 
BRANCH  23  28
ATOM     25 CL   UNL     1      34.750 -14.552 -21.591  0.00  0.00    -0.081 Cl
ATOM     26 CL   UNL     1      32.865 -13.840 -26.667  0.00  0.00    -0.081 Cl
ATOM     27  N   UNL     1      34.192 -17.007 -24.667  0.00  0.00    -0.241 NA
ATOM     28  C   UNL     1      33.819 -14.287 -24.147  0.00  0.00    +0.041 C 
ATOM     29  C   UNL     1      34.328 -15.123 -23.159  0.00  0.00    +0.077 C 
ATOM     30  C   UNL     1      33.497 -14.809 -25.394  0.00  0.00    +0.077 C 
ATOM     31  C   UNL     1      34.494 -16.464 -23.466  0.00  0.00    +0.110 C 
ATOM     32  C   UNL     1      33.700 -16.164 -25.602  0.00  0.00    +0.110 C 
ENDBRANCH  23  28
ENDBRANCH  22  23
ENDBRANCH   5  22
TORSDOF 8
ENDMDL
MODEL 8
REMARK VINA RESULT:      -9.9      5.408     10.407
REMARK  Name = 46944259
REMARK  8 active torsions:
REMARK  status: ('A' for Active; 'I' for Inactive)
REMARK    1  A    between atoms: C_5  and  O_22
REMARK    2  A    between atoms: C_6  and  C_11
REMARK    3  A    between atoms: C_12  and  C_15
REMARK    4  A    between atoms: N_13  and  C_18
REMARK    5  A    between atoms: C_18  and  C_19
REMARK    6  A    between atoms: C_19  and  O_20
REMARK    7  A    between atoms: O_22  and  C_23
REMARK    8  A    between atoms: C_23  and  C_28
REMARK                            x       y       z     vdW  Elec       q    Type
REMARK                         _______ _______ _______ _____ _____    ______ ____
ROOT
ATOM      1  N   UNL     1      38.427 -23.602 -15.521  0.00  0.00    -0.276 N 
ATOM      2  N   UNL     1      38.427 -22.650 -16.468  0.00  0.00    -0.173 NA
ATOM      3  C   UNL     1      36.295 -23.223 -15.862  0.00  0.00    +0.039 A 
ATOM      4  C   UNL     1      37.180 -23.990 -15.113  0.00  0.00    +0.076 A 
ATOM      5  C   UNL     1      34.472 -24.325 -14.733  0.00  0.00    +0.139 C 
ATOM      6  C   UNL     1      37.126 -22.422 -16.674  0.00  0.00    +0.102 A 
ATOM      7  C   UNL     1      34.912 -23.388 -15.675  0.00  0.00    +0.040 C 
ATOM      8  C   UNL     1      36.762 -24.930 -14.168  0.00  0.00    +0.022 C 
ATOM      9  C   UNL     1      35.382 -25.082 -13.993  0.00  0.00    +0.038 C 
ATOM     10  H   UNL     1      39.254 -23.988 -15.150  0.00  0.00    +0.189 HD
ENDROOT
BRANCH   6  11
ATOM     11  C   UNL     1      36.652 -21.471 -17.614  0.00  0.00    +0.021 C 
ATOM     12  C   UNL     1      36.124 -21.743 -18.854  0.00  0.00    +0.005 C 
BRANCH  12  15
ATOM     13  N   UNL     1      35.478 -19.150 -21.297  0.00  0.00    -0.208 N 
ATOM     14  N   UNL     1      34.200 -19.536 -21.137  0.00  0.00    -0.176 NA
ATOM     15  C   UNL     1      35.616 -20.755 -19.823  0.00  0.00    +0.037 C 
ATOM     16  C   UNL     1      36.365 -19.848 -20.532  0.00  0.00    +0.086 C 
ATOM     17  C   UNL     1      34.291 -20.517 -20.236  0.00  0.00    +0.119 C 
BRANCH  13  18
ATOM     18  C   UNL     1      35.792 -18.081 -22.214  0.00  0.00    +0.148 C 
BRANCH  18  19
ATOM     19  C   UNL     1      35.089 -16.777 -21.849  0.00  0.00    +0.161 C 
BRANCH  19  20
ATOM     20  O   UNL     1      35.151 -16.576 -20.443  0.00  0.00    -0.380 OA
ATOM     21  H   UNL     1      34.841 -15.681 -20.231  0.00  0.00    +0.211 HD
ENDBRANCH  19  20
ENDBRANCH  18  19
ENDBRANCH  13  18
ENDBRANCH  12  15
ENDBRANCH   6  11
BRANCH   5  22
ATOM     22  O   UNL     1      33.134 -24.500 -14.536  0.00  0.00    -0.475 OA
BRANCH  22  23
ATOM     23  C   UNL     1      32.319 -23.331 -14.562  0.00  0.00    +0.190 C 
ATOM     24  C   UNL     1      32.197 -22.767 -13.150  0.00  0.00    +0.052 C 
BRANCH  23  28
ATOM     25 CL   UNL     1      30.373 -24.950 -12.812  0.00  0.00    -0.081 Cl
ATOM     26 CL   UNL     1      31.738 -22.359 -17.421  0.00  0.00    -0.081 Cl
ATOM     27  N   UNL     1      28.481 -24.311 -16.249  0.00  0.00    -0.241 NA
ATOM     28  C   UNL     1      30.973 -23.675 -15.154  0.00  0.00    +0.041 C 
ATOM     29  C   UNL     1      30.050 -24.404 -14.412  0.00  0.00    +0.077 C 
ATOM     30  C   UNL     1      30.651 -23.262 -16.442  0.00  0.00    +0.077 C 
ATOM     31  C   UNL     1      28.829 -24.694 -15.000  0.00  0.00    +0.110 C 
ATOM     32  C   UNL     1      29.403 -23.603 -16.939  0.00  0.00    +0.110 C 
ENDBRANCH  23  28
ENDBRANCH  22  23
ENDBRANCH   5  22
TORSDOF 8
ENDMDL
MODEL 9
REMARK VINA RESULT:      -9.8      5.976     10.450
REMARK  Name = 46944259
REMARK  8 active torsions:
REMARK  status: ('A' for Active; 'I' for Inactive)
REMARK    1  A    between atoms: C_5  and  O_22
REMARK    2  A    between atoms: C_6  and  C_11
REMARK    3  A    between atoms: C_12  and  C_15
REMARK    4  A    between atoms: N_13  and  C_18
REMARK    5  A    between atoms: C_18  and  C_19
REMARK    6  A    between atoms: C_19  and  O_20
REMARK    7  A    between atoms: O_22  and  C_23
REMARK    8  A    between atoms: C_23  and  C_28
REMARK                            x       y       z     vdW  Elec       q    Type
REMARK                         _______ _______ _______ _____ _____    ______ ____
ROOT
ATOM      1  N   UNL     1      31.168 -23.564 -16.474  0.00  0.00    -0.276 N 
ATOM      2  N   UNL     1      31.519 -22.972 -17.627  0.00  0.00    -0.173 NA
ATOM      3  C   UNL     1      33.311 -23.175 -16.216  0.00  0.00    +0.039 A 
ATOM      4  C   UNL     1      32.197 -23.716 -15.584  0.00  0.00    +0.076 A 
ATOM      5  C   UNL     1      34.617 -23.731 -14.268  0.00  0.00    +0.139 C 
ATOM      6  C   UNL     1      32.824 -22.736 -17.466  0.00  0.00    +0.102 A 
ATOM      7  C   UNL     1      34.548 -23.177 -15.552  0.00  0.00    +0.040 C 
ATOM      8  C   UNL     1      32.243 -24.274 -14.304  0.00  0.00    +0.022 C 
ATOM      9  C   UNL     1      33.483 -24.269 -13.656  0.00  0.00    +0.038 C 
ATOM     10  H   UNL     1      30.249 -23.864 -16.284  0.00  0.00    +0.189 HD
ENDROOT
BRANCH   6  11
ATOM     11  C   UNL     1      33.619 -22.108 -18.459  0.00  0.00    +0.021 C 
ATOM     12  C   UNL     1      33.214 -21.121 -19.327  0.00  0.00    +0.005 C 
BRANCH  12  15
ATOM     13  N   UNL     1      34.714 -19.270 -22.053  0.00  0.00    -0.208 N 
ATOM     14  N   UNL     1      35.859 -19.763 -21.550  0.00  0.00    -0.176 NA
ATOM     15  C   UNL     1      34.046 -20.458 -20.346  0.00  0.00    +0.037 C 
ATOM     16  C   UNL     1      33.599 -19.656 -21.369  0.00  0.00    +0.086 C 
ATOM     17  C   UNL     1      35.444 -20.488 -20.508  0.00  0.00    +0.119 C 
BRANCH  13  18
ATOM     18  C   UNL     1      34.753 -18.418 -23.217  0.00  0.00    +0.148 C 
BRANCH  18  19
ATOM     19  C   UNL     1      34.830 -16.939 -22.852  0.00  0.00    +0.161 C 
BRANCH  19  20
ATOM     20  O   UNL     1      35.787 -16.289 -23.680  0.00  0.00    -0.380 OA
ATOM     21  H   UNL     1      36.639 -16.249 -23.219  0.00  0.00    +0.211 HD
ENDBRANCH  19  20
ENDBRANCH  18  19
ENDBRANCH  13  18
ENDBRANCH  12  15
ENDBRANCH   6  11
BRANCH   5  22
ATOM     22  O   UNL     1      35.809 -23.744 -13.606  0.00  0.00    -0.475 OA
BRANCH  22  23
ATOM     23  C   UNL     1      36.211 -24.981 -13.024  0.00  0.00    +0.190 C 
ATOM     24  C   UNL     1      36.260 -24.834 -11.506  0.00  0.00    +0.052 C 
BRANCH  23  28
ATOM     25 CL   UNL     1      36.195 -26.994 -15.350  0.00  0.00    -0.081 Cl
ATOM     26 CL   UNL     1      38.733 -23.739 -11.774  0.00  0.00    -0.081 Cl
ATOM     27  N   UNL     1      40.018 -26.150 -14.660  0.00  0.00    -0.241 NA
ATOM     28  C   UNL     1      37.547 -25.391 -13.597  0.00  0.00    +0.041 C 
ATOM     29  C   UNL     1      37.605 -26.298 -14.650  0.00  0.00    +0.077 C 
ATOM     30  C   UNL     1      38.722 -24.863 -13.075  0.00  0.00    +0.077 C 
ATOM     31  C   UNL     1      38.854 -26.642 -15.141  0.00  0.00    +0.110 C 
ATOM     32  C   UNL     1      39.921 -25.271 -13.637  0.00  0.00    +0.110 C 
ENDBRANCH  23  28
ENDBRANCH  22  23
ENDBRANCH   5  22
TORSDOF 8
ENDMDL
