MODEL 1
REMARK VINA RESULT:     -12.4      0.000      0.000
REMARK  Name = 25151352
REMARK  5 active torsions:
REMARK  status: ('A' for Active; 'I' for Inactive)
REMARK    1  A    between atoms: N_1  and  C_21
REMARK    2  A    between atoms: C_3  and  C_9
REMARK    3  A    between atoms: C_9  and  C_13
REMARK    4  A    between atoms: C_21  and  C_23
REMARK    5  A    between atoms: C_27  and  C_31
REMARK                            x       y       z     vdW  Elec       q    Type
REMARK                         _______ _______ _______ _____ _____    ______ ____
ROOT
ATOM      1  N   UNL     1      33.081 -21.930 -19.094  0.00  0.00    -0.314 N 
ATOM      2  N   UNL     1      32.968 -20.005 -20.494  0.00  0.00    -0.230 NA
ATOM      3  C   UNL     1      35.014 -18.980 -21.273  0.00  0.00    +0.002 C 
ATOM      4  C   UNL     1      35.760 -19.935 -20.591  0.00  0.00    +0.000 C 
ATOM      5  C   UNL     1      33.633 -19.058 -21.194  0.00  0.00    +0.096 C 
ATOM      6  C   UNL     1      33.727 -20.914 -19.843  0.00  0.00    +0.129 C 
ATOM      7  C   UNL     1      35.112 -20.923 -19.859  0.00  0.00    +0.034 C 
ATOM      8  H   UNL     1      32.098 -21.944 -19.068  0.00  0.00    +0.149 HD
ENDROOT
BRANCH   3   9
ATOM      9  C   UNL     1      35.694 -17.886 -22.083  0.00  0.00    +0.056 C 
BRANCH   9  13
ATOM     10 CL   UNL     1      33.436 -12.591 -23.542  0.00  0.00    -0.081 Cl
ATOM     11  N   UNL     1      34.350 -17.947 -25.484  0.00  0.00    -0.297 N 
ATOM     12  N   UNL     1      33.462 -15.763 -25.976  0.00  0.00    -0.228 NA
ATOM     13  C   UNL     1      35.086 -17.639 -23.407  0.00  0.00    -0.000 C 
ATOM     14  C   UNL     1      34.518 -16.421 -23.863  0.00  0.00    +0.030 C 
ATOM     15  C   UNL     1      34.069 -16.646 -25.161  0.00  0.00    +0.132 C 
ATOM     16  C   UNL     1      34.969 -18.561 -24.426  0.00  0.00    +0.059 C 
ATOM     17  C   UNL     1      34.327 -15.137 -23.326  0.00  0.00    +0.015 C 
ATOM     18  C   UNL     1      33.704 -14.183 -24.129  0.00  0.00    +0.077 C 
ATOM     19  C   UNL     1      33.304 -14.544 -25.408  0.00  0.00    +0.112 C 
ATOM     20  H   UNL     1      34.141 -18.376 -26.345  0.00  0.00    +0.154 HD
ENDBRANCH   9  13
ENDBRANCH   3   9
BRANCH   1  21
ATOM     21  C   UNL     1      33.799 -22.931 -18.376  0.00  0.00    +0.117 C 
BRANCH  21  23
ATOM     22  N   UNL     1      30.973 -23.595 -15.950  0.00  0.00    -0.240 NA
ATOM     23  C   UNL     1      33.072 -23.298 -17.113  0.00  0.00    +0.017 C 
ATOM     24  C   UNL     1      33.767 -23.669 -15.967  0.00  0.00    +0.000 C 
ATOM     25  C   UNL     1      31.688 -23.277 -17.053  0.00  0.00    +0.096 C 
ATOM     26  C   UNL     1      33.066 -24.002 -14.813  0.00  0.00    +0.023 C 
ATOM     27  C   UNL     1      31.683 -23.950 -14.856  0.00  0.00    +0.153 C 
BRANCH  27  31
ATOM     28  F   UNL     1      30.843 -23.297 -12.713  0.00  0.00    -0.164 F 
ATOM     29  F   UNL     1      29.597 -24.622 -13.895  0.00  0.00    -0.164 F 
ATOM     30  F   UNL     1      31.416 -25.378 -12.973  0.00  0.00    -0.164 F 
ATOM     31  C   UNL     1      30.899 -24.302 -13.636  0.00  0.00    +0.435 C 
ENDBRANCH  27  31
ENDBRANCH  21  23
ENDBRANCH   1  21
TORSDOF 5
ENDMDL
MODEL 2
REMARK VINA RESULT:     -12.4      1.523      1.968
REMARK  Name = 25151352
REMARK  5 active torsions:
REMARK  status: ('A' for Active; 'I' for Inactive)
REMARK    1  A    between atoms: N_1  and  C_21
REMARK    2  A    between atoms: C_3  and  C_9
REMARK    3  A    between atoms: C_9  and  C_13
REMARK    4  A    between atoms: C_21  and  C_23
REMARK    5  A    between atoms: C_27  and  C_31
REMARK                            x       y       z     vdW  Elec       q    Type
REMARK                         _______ _______ _______ _____ _____    ______ ____
ROOT
ATOM      1  N   UNL     1      33.009 -22.012 -18.967  0.00  0.00    -0.314 N 
ATOM      2  N   UNL     1      32.699 -20.323 -20.620  0.00  0.00    -0.230 NA
ATOM      3  C   UNL     1      34.626 -19.184 -21.531  0.00  0.00    +0.002 C 
ATOM      4  C   UNL     1      35.466 -19.943 -20.723  0.00  0.00    +0.000 C 
ATOM      5  C   UNL     1      33.263 -19.410 -21.443  0.00  0.00    +0.096 C 
ATOM      6  C   UNL     1      33.546 -21.041 -19.849  0.00  0.00    +0.129 C 
ATOM      7  C   UNL     1      34.924 -20.891 -19.863  0.00  0.00    +0.034 C 
ATOM      8  H   UNL     1      32.033 -22.136 -18.940  0.00  0.00    +0.149 HD
ENDROOT
BRANCH   3   9
ATOM      9  C   UNL     1      35.190 -18.140 -22.484  0.00  0.00    +0.056 C 
BRANCH   9  13
ATOM     10 CL   UNL     1      33.029 -14.515 -26.663  0.00  0.00    -0.081 Cl
ATOM     11  N   UNL     1      34.398 -14.863 -21.068  0.00  0.00    -0.297 N 
ATOM     12  N   UNL     1      33.533 -13.473 -22.835  0.00  0.00    -0.228 NA
ATOM     13  C   UNL     1      34.789 -16.752 -22.176  0.00  0.00    -0.000 C 
ATOM     14  C   UNL     1      34.263 -15.801 -23.090  0.00  0.00    +0.030 C 
ATOM     15  C   UNL     1      34.030 -14.634 -22.367  0.00  0.00    +0.132 C 
ATOM     16  C   UNL     1      34.861 -16.147 -20.940  0.00  0.00    +0.059 C 
ATOM     17  C   UNL     1      33.953 -15.787 -24.459  0.00  0.00    +0.015 C 
ATOM     18  C   UNL     1      33.434 -14.609 -24.996  0.00  0.00    +0.077 C 
ATOM     19  C   UNL     1      33.253 -13.517 -24.159  0.00  0.00    +0.112 C 
ATOM     20  H   UNL     1      34.339 -14.206 -20.338  0.00  0.00    +0.154 HD
ENDBRANCH   9  13
ENDBRANCH   3   9
BRANCH   1  21
ATOM     21  C   UNL     1      33.825 -22.815 -18.118  0.00  0.00    +0.117 C 
BRANCH  21  23
ATOM     22  N   UNL     1      30.919 -23.631 -15.837  0.00  0.00    -0.240 NA
ATOM     23  C   UNL     1      33.056 -23.245 -16.900  0.00  0.00    +0.017 C 
ATOM     24  C   UNL     1      33.713 -23.643 -15.740  0.00  0.00    +0.000 C 
ATOM     25  C   UNL     1      31.670 -23.257 -16.896  0.00  0.00    +0.096 C 
ATOM     26  C   UNL     1      32.973 -24.035 -14.629  0.00  0.00    +0.023 C 
ATOM     27  C   UNL     1      31.592 -24.011 -14.728  0.00  0.00    +0.153 C 
BRANCH  27  31
ATOM     28  F   UNL     1      31.282 -25.493 -12.875  0.00  0.00    -0.164 F 
ATOM     29  F   UNL     1      30.618 -23.444 -12.617  0.00  0.00    -0.164 F 
ATOM     30  F   UNL     1      29.501 -24.792 -13.907  0.00  0.00    -0.164 F 
ATOM     31  C   UNL     1      30.768 -24.426 -13.555  0.00  0.00    +0.435 C 
ENDBRANCH  27  31
ENDBRANCH  21  23
ENDBRANCH   1  21
TORSDOF 5
ENDMDL
MODEL 3
REMARK VINA RESULT:     -12.2      3.665      5.580
REMARK  Name = 25151352
REMARK  5 active torsions:
REMARK  status: ('A' for Active; 'I' for Inactive)
REMARK    1  A    between atoms: N_1  and  C_21
REMARK    2  A    between atoms: C_3  and  C_9
REMARK    3  A    between atoms: C_9  and  C_13
REMARK    4  A    between atoms: C_21  and  C_23
REMARK    5  A    between atoms: C_27  and  C_31
REMARK                            x       y       z     vdW  Elec       q    Type
REMARK                         _______ _______ _______ _____ _____    ______ ____
ROOT
ATOM      1  N   UNL     1      35.281 -17.832 -20.918  0.00  0.00    -0.314 N 
ATOM      2  N   UNL     1      34.868 -15.488 -21.044  0.00  0.00    -0.230 NA
ATOM      3  C   UNL     1      34.253 -14.503 -23.164  0.00  0.00    +0.002 C 
ATOM      4  C   UNL     1      34.327 -15.750 -23.774  0.00  0.00    +0.000 C 
ATOM      5  C   UNL     1      34.530 -14.426 -21.809  0.00  0.00    +0.096 C 
ATOM      6  C   UNL     1      34.932 -16.684 -21.672  0.00  0.00    +0.129 C 
ATOM      7  C   UNL     1      34.673 -16.867 -23.021  0.00  0.00    +0.034 C 
ATOM      8  H   UNL     1      35.470 -17.727 -19.958  0.00  0.00    +0.149 HD
ENDROOT
BRANCH   3   9
ATOM      9  C   UNL     1      33.876 -13.262 -23.961  0.00  0.00    +0.056 C 
BRANCH   9  13
ATOM     10 CL   UNL     1      34.623  -7.373 -24.130  0.00  0.00    -0.081 Cl
ATOM     11  N   UNL     1      31.271 -11.573 -22.028  0.00  0.00    -0.297 N 
ATOM     12  N   UNL     1      31.662  -9.200 -22.160  0.00  0.00    -0.228 NA
ATOM     13  C   UNL     1      32.957 -12.342 -23.260  0.00  0.00    -0.000 C 
ATOM     14  C   UNL     1      33.038 -10.925 -23.230  0.00  0.00    +0.030 C 
ATOM     15  C   UNL     1      31.973 -10.477 -22.455  0.00  0.00    +0.132 C 
ATOM     16  C   UNL     1      31.860 -12.713 -22.511  0.00  0.00    +0.059 C 
ATOM     17  C   UNL     1      33.896  -9.955 -23.774  0.00  0.00    +0.015 C 
ATOM     18  C   UNL     1      33.620  -8.617 -23.500  0.00  0.00    +0.077 C 
ATOM     19  C   UNL     1      32.522  -8.309 -22.708  0.00  0.00    +0.112 C 
ATOM     20  H   UNL     1      30.467 -11.547 -21.462  0.00  0.00    +0.154 HD
ENDBRANCH   9  13
ENDBRANCH   3   9
BRANCH   1  21
ATOM     21  C   UNL     1      35.372 -19.133 -21.495  0.00  0.00    +0.117 C 
BRANCH  21  23
ATOM     22  N   UNL     1      33.034 -21.296 -19.452  0.00  0.00    -0.240 NA
ATOM     23  C   UNL     1      34.888 -20.175 -20.524  0.00  0.00    +0.017 C 
ATOM     24  C   UNL     1      35.786 -20.965 -19.813  0.00  0.00    +0.000 C 
ATOM     25  C   UNL     1      33.535 -20.379 -20.310  0.00  0.00    +0.096 C 
ATOM     26  C   UNL     1      35.308 -21.919 -18.922  0.00  0.00    +0.023 C 
ATOM     27  C   UNL     1      33.936 -22.045 -18.780  0.00  0.00    +0.153 C 
BRANCH  27  31
ATOM     28  F   UNL     1      34.059 -23.114 -16.643  0.00  0.00    -0.164 F 
ATOM     29  F   UNL     1      32.083 -22.847 -17.496  0.00  0.00    -0.164 F 
ATOM     30  F   UNL     1      33.436 -24.327 -18.337  0.00  0.00    -0.164 F 
ATOM     31  C   UNL     1      33.389 -23.060 -17.832  0.00  0.00    +0.435 C 
ENDBRANCH  27  31
ENDBRANCH  21  23
ENDBRANCH   1  21
TORSDOF 5
ENDMDL
MODEL 4
REMARK VINA RESULT:     -12.1      7.463     12.101
REMARK  Name = 25151352
REMARK  5 active torsions:
REMARK  status: ('A' for Active; 'I' for Inactive)
REMARK    1  A    between atoms: N_1  and  C_21
REMARK    2  A    between atoms: C_3  and  C_9
REMARK    3  A    between atoms: C_9  and  C_13
REMARK    4  A    between atoms: C_21  and  C_23
REMARK    5  A    between atoms: C_27  and  C_31
REMARK                            x       y       z     vdW  Elec       q    Type
REMARK                         _______ _______ _______ _____ _____    ______ ____
ROOT
ATOM      1  N   UNL     1      33.634 -13.586 -22.738  0.00  0.00    -0.314 N 
ATOM      2  N   UNL     1      34.235 -15.311 -21.207  0.00  0.00    -0.230 NA
ATOM      3  C   UNL     1      35.098 -17.404 -22.055  0.00  0.00    +0.002 C 
ATOM      4  C   UNL     1      34.979 -16.934 -23.358  0.00  0.00    +0.000 C 
ATOM      5  C   UNL     1      34.717 -16.561 -21.024  0.00  0.00    +0.096 C 
ATOM      6  C   UNL     1      34.132 -14.889 -22.488  0.00  0.00    +0.129 C 
ATOM      7  C   UNL     1      34.487 -15.654 -23.587  0.00  0.00    +0.034 C 
ATOM      8  H   UNL     1      33.375 -13.025 -21.972  0.00  0.00    +0.149 HD
ENDROOT
BRANCH   3   9
ATOM      9  C   UNL     1      35.634 -18.800 -21.772  0.00  0.00    +0.056 C 
BRANCH   9  13
ATOM     10 CL   UNL     1      37.290 -22.323 -17.287  0.00  0.00    -0.081 Cl
ATOM     11  N   UNL     1      32.796 -20.754 -20.547  0.00  0.00    -0.297 N 
ATOM     12  N   UNL     1      33.569 -22.143 -18.738  0.00  0.00    -0.228 NA
ATOM     13  C   UNL     1      34.675 -19.696 -21.093  0.00  0.00    -0.000 C 
ATOM     14  C   UNL     1      34.957 -20.578 -20.017  0.00  0.00    +0.030 C 
ATOM     15  C   UNL     1      33.765 -21.221 -19.699  0.00  0.00    +0.132 C 
ATOM     16  C   UNL     1      33.337 -19.826 -21.398  0.00  0.00    +0.059 C 
ATOM     17  C   UNL     1      36.094 -20.912 -19.262  0.00  0.00    +0.015 C 
ATOM     18  C   UNL     1      35.947 -21.862 -18.253  0.00  0.00    +0.077 C 
ATOM     19  C   UNL     1      34.696 -22.428 -18.044  0.00  0.00    +0.112 C 
ATOM     20  H   UNL     1      31.854 -21.039 -20.544  0.00  0.00    +0.154 HD
ENDBRANCH   9  13
ENDBRANCH   3   9
BRANCH   1  21
ATOM     21  C   UNL     1      33.492 -13.057 -24.054  0.00  0.00    +0.117 C 
BRANCH  21  23
ATOM     22  N   UNL     1      33.250  -9.380 -23.195  0.00  0.00    -0.240 NA
ATOM     23  C   UNL     1      33.764 -11.578 -24.060  0.00  0.00    +0.017 C 
ATOM     24  C   UNL     1      34.738 -11.031 -24.890  0.00  0.00    +0.000 C 
ATOM     25  C   UNL     1      33.055 -10.717 -23.239  0.00  0.00    +0.096 C 
ATOM     26  C   UNL     1      34.967  -9.660 -24.873  0.00  0.00    +0.023 C 
ATOM     27  C   UNL     1      34.204  -8.885 -24.015  0.00  0.00    +0.153 C 
BRANCH  27  31
ATOM     28  F   UNL     1      35.530  -7.043 -23.260  0.00  0.00    -0.164 F 
ATOM     29  F   UNL     1      34.589  -6.844 -25.204  0.00  0.00    -0.164 F 
ATOM     30  F   UNL     1      33.381  -6.740 -23.398  0.00  0.00    -0.164 F 
ATOM     31  C   UNL     1      34.424  -7.409 -23.972  0.00  0.00    +0.435 C 
ENDBRANCH  27  31
ENDBRANCH  21  23
ENDBRANCH   1  21
TORSDOF 5
ENDMDL
MODEL 5
REMARK VINA RESULT:     -11.8      4.038      6.454
REMARK  Name = 25151352
REMARK  5 active torsions:
REMARK  status: ('A' for Active; 'I' for Inactive)
REMARK    1  A    between atoms: N_1  and  C_21
REMARK    2  A    between atoms: C_3  and  C_9
REMARK    3  A    between atoms: C_9  and  C_13
REMARK    4  A    between atoms: C_21  and  C_23
REMARK    5  A    between atoms: C_27  and  C_31
REMARK                            x       y       z     vdW  Elec       q    Type
REMARK                         _______ _______ _______ _____ _____    ______ ____
ROOT
ATOM      1  N   UNL     1      34.953 -16.821 -21.486  0.00  0.00    -0.314 N 
ATOM      2  N   UNL     1      34.073 -14.612 -21.653  0.00  0.00    -0.230 NA
ATOM      3  C   UNL     1      33.501 -13.722 -23.827  0.00  0.00    +0.002 C 
ATOM      4  C   UNL     1      33.902 -14.910 -24.427  0.00  0.00    +0.000 C 
ATOM      5  C   UNL     1      33.605 -13.624 -22.449  0.00  0.00    +0.096 C 
ATOM      6  C   UNL     1      34.455 -15.751 -22.273  0.00  0.00    +0.129 C 
ATOM      7  C   UNL     1      34.390 -15.949 -23.643  0.00  0.00    +0.034 C 
ATOM      8  H   UNL     1      35.009 -16.703 -20.511  0.00  0.00    +0.149 HD
ENDROOT
BRANCH   3   9
ATOM      9  C   UNL     1      32.962 -12.567 -24.658  0.00  0.00    +0.056 C 
BRANCH   9  13
ATOM     10 CL   UNL     1      31.896  -7.980 -21.039  0.00  0.00    -0.081 Cl
ATOM     11  N   UNL     1      35.437  -9.922 -25.161  0.00  0.00    -0.297 N 
ATOM     12  N   UNL     1      34.919  -8.116 -23.653  0.00  0.00    -0.228 NA
ATOM     13  C   UNL     1      33.818 -11.363 -24.658  0.00  0.00    -0.000 C 
ATOM     14  C   UNL     1      33.658 -10.212 -23.842  0.00  0.00    +0.030 C 
ATOM     15  C   UNL     1      34.684  -9.334 -24.179  0.00  0.00    +0.132 C 
ATOM     16  C   UNL     1      34.920 -11.156 -25.460  0.00  0.00    +0.059 C 
ATOM     17  C   UNL     1      32.758  -9.802 -22.845  0.00  0.00    +0.015 C 
ATOM     18  C   UNL     1      32.955  -8.550 -22.266  0.00  0.00    +0.077 C 
ATOM     19  C   UNL     1      34.022  -7.774 -22.699  0.00  0.00    +0.112 C 
ATOM     20  H   UNL     1      36.229  -9.522 -25.585  0.00  0.00    +0.154 HD
ENDBRANCH   9  13
ENDBRANCH   3   9
BRANCH   1  21
ATOM     21  C   UNL     1      35.378 -18.059 -22.053  0.00  0.00    +0.117 C 
BRANCH  21  23
ATOM     22  N   UNL     1      35.574 -21.051 -19.745  0.00  0.00    -0.240 NA
ATOM     23  C   UNL     1      34.953 -19.209 -21.182  0.00  0.00    +0.017 C 
ATOM     24  C   UNL     1      33.607 -19.509 -20.998  0.00  0.00    +0.000 C 
ATOM     25  C   UNL     1      35.888 -20.003 -20.539  0.00  0.00    +0.096 C 
ATOM     26  C   UNL     1      33.244 -20.580 -20.187  0.00  0.00    +0.023 C 
ATOM     27  C   UNL     1      34.257 -21.312 -19.589  0.00  0.00    +0.153 C 
BRANCH  27  31
ATOM     28  F   UNL     1      32.694 -22.333 -18.093  0.00  0.00    -0.164 F 
ATOM     29  F   UNL     1      33.833 -23.657 -19.378  0.00  0.00    -0.164 F 
ATOM     30  F   UNL     1      34.809 -22.661 -17.709  0.00  0.00    -0.164 F 
ATOM     31  C   UNL     1      33.903 -22.467 -18.712  0.00  0.00    +0.435 C 
ENDBRANCH  27  31
ENDBRANCH  21  23
ENDBRANCH   1  21
TORSDOF 5
ENDMDL
MODEL 6
REMARK VINA RESULT:     -11.5      6.643     11.156
REMARK  Name = 25151352
REMARK  5 active torsions:
REMARK  status: ('A' for Active; 'I' for Inactive)
REMARK    1  A    between atoms: N_1  and  C_21
REMARK    2  A    between atoms: C_3  and  C_9
REMARK    3  A    between atoms: C_9  and  C_13
REMARK    4  A    between atoms: C_21  and  C_23
REMARK    5  A    between atoms: C_27  and  C_31
REMARK                            x       y       z     vdW  Elec       q    Type
REMARK                         _______ _______ _______ _____ _____    ______ ____
ROOT
ATOM      1  N   UNL     1      34.847 -16.600 -21.606  0.00  0.00    -0.314 N 
ATOM      2  N   UNL     1      36.200 -18.487 -21.071  0.00  0.00    -0.230 NA
ATOM      3  C   UNL     1      35.146 -20.543 -20.361  0.00  0.00    +0.002 C 
ATOM      4  C   UNL     1      33.893 -19.953 -20.488  0.00  0.00    +0.000 C 
ATOM      5  C   UNL     1      36.258 -19.775 -20.663  0.00  0.00    +0.096 C 
ATOM      6  C   UNL     1      34.966 -17.947 -21.181  0.00  0.00    +0.129 C 
ATOM      7  C   UNL     1      33.793 -18.630 -20.904  0.00  0.00    +0.034 C 
ATOM      8  H   UNL     1      35.667 -16.095 -21.808  0.00  0.00    +0.149 HD
ENDROOT
BRANCH   3   9
ATOM      9  C   UNL     1      35.288 -21.989 -19.909  0.00  0.00    +0.056 C 
BRANCH   9  13
ATOM     10 CL   UNL     1      31.112 -23.892 -16.138  0.00  0.00    -0.081 Cl
ATOM     11  N   UNL     1      36.608 -22.172 -16.503  0.00  0.00    -0.297 N 
ATOM     12  N   UNL     1      34.845 -22.950 -15.058  0.00  0.00    -0.228 NA
ATOM     13  C   UNL     1      35.561 -22.154 -18.466  0.00  0.00    -0.000 C 
ATOM     14  C   UNL     1      34.645 -22.598 -17.477  0.00  0.00    +0.030 C 
ATOM     15  C   UNL     1      35.328 -22.599 -16.265  0.00  0.00    +0.132 C 
ATOM     16  C   UNL     1      36.761 -21.898 -17.838  0.00  0.00    +0.059 C 
ATOM     17  C   UNL     1      33.301 -23.006 -17.462  0.00  0.00    +0.015 C 
ATOM     18  C   UNL     1      32.749 -23.381 -16.238  0.00  0.00    +0.077 C 
ATOM     19  C   UNL     1      33.547 -23.333 -15.103  0.00  0.00    +0.112 C 
ATOM     20  H   UNL     1      37.311 -22.076 -15.821  0.00  0.00    +0.154 HD
ENDBRANCH   9  13
ENDBRANCH   3   9
BRANCH   1  21
ATOM     21  C   UNL     1      33.587 -15.948 -21.751  0.00  0.00    +0.117 C 
BRANCH  21  23
ATOM     22  N   UNL     1      32.905 -13.343 -24.410  0.00  0.00    -0.240 NA
ATOM     23  C   UNL     1      33.487 -15.290 -23.099  0.00  0.00    +0.017 C 
ATOM     24  C   UNL     1      33.860 -15.966 -24.257  0.00  0.00    +0.000 C 
ATOM     25  C   UNL     1      33.021 -13.992 -23.229  0.00  0.00    +0.096 C 
ATOM     26  C   UNL     1      33.755 -15.332 -25.490  0.00  0.00    +0.023 C 
ATOM     27  C   UNL     1      33.277 -14.032 -25.512  0.00  0.00    +0.153 C 
BRANCH  27  31
ATOM     28  F   UNL     1      31.917 -13.435 -27.387  0.00  0.00    -0.164 F 
ATOM     29  F   UNL     1      33.384 -11.977 -26.734  0.00  0.00    -0.164 F 
ATOM     30  F   UNL     1      34.031 -13.785 -27.754  0.00  0.00    -0.164 F 
ATOM     31  C   UNL     1      33.153 -13.321 -26.818  0.00  0.00    +0.435 C 
ENDBRANCH  27  31
ENDBRANCH  21  23
ENDBRANCH   1  21
TORSDOF 5
ENDMDL
MODEL 7
REMARK VINA RESULT:     -11.4      6.008     10.909
REMARK  Name = 25151352
REMARK  5 active torsions:
REMARK  status: ('A' for Active; 'I' for Inactive)
REMARK    1  A    between atoms: N_1  and  C_21
REMARK    2  A    between atoms: C_3  and  C_9
REMARK    3  A    between atoms: C_9  and  C_13
REMARK    4  A    between atoms: C_21  and  C_23
REMARK    5  A    between atoms: C_27  and  C_31
REMARK                            x       y       z     vdW  Elec       q    Type
REMARK                         _______ _______ _______ _____ _____    ______ ____
ROOT
ATOM      1  N   UNL     1      33.829 -18.665 -21.230  0.00  0.00    -0.314 N 
ATOM      2  N   UNL     1      32.734 -20.388 -19.999  0.00  0.00    -0.230 NA
ATOM      3  C   UNL     1      34.040 -22.191 -19.059  0.00  0.00    +0.002 C 
ATOM      4  C   UNL     1      35.202 -21.628 -19.575  0.00  0.00    +0.000 C 
ATOM      5  C   UNL     1      32.842 -21.538 -19.297  0.00  0.00    +0.096 C 
ATOM      6  C   UNL     1      33.884 -19.871 -20.486  0.00  0.00    +0.129 C 
ATOM      7  C   UNL     1      35.132 -20.447 -20.304  0.00  0.00    +0.034 C 
ATOM      8  H   UNL     1      32.954 -18.239 -21.373  0.00  0.00    +0.149 HD
ENDROOT
BRANCH   3   9
ATOM      9  C   UNL     1      34.085 -23.483 -18.256  0.00  0.00    +0.056 C 
BRANCH   9  13
ATOM     10 CL   UNL     1      28.669 -23.688 -15.826  0.00  0.00    -0.081 Cl
ATOM     11  N   UNL     1      34.271 -22.974 -14.640  0.00  0.00    -0.297 N 
ATOM     12  N   UNL     1      32.033 -23.075 -13.754  0.00  0.00    -0.228 NA
ATOM     13  C   UNL     1      33.878 -23.307 -16.804  0.00  0.00    -0.000 C 
ATOM     14  C   UNL     1      32.636 -23.336 -16.117  0.00  0.00    +0.030 C 
ATOM     15  C   UNL     1      32.916 -23.126 -14.770  0.00  0.00    +0.132 C 
ATOM     16  C   UNL     1      34.866 -23.082 -15.870  0.00  0.00    +0.059 C 
ATOM     17  C   UNL     1      31.291 -23.517 -16.477  0.00  0.00    +0.015 C 
ATOM     18  C   UNL     1      30.335 -23.475 -15.464  0.00  0.00    +0.077 C 
ATOM     19  C   UNL     1      30.754 -23.255 -14.159  0.00  0.00    +0.112 C 
ATOM     20  H   UNL     1      34.745 -22.812 -13.793  0.00  0.00    +0.154 HD
ENDBRANCH   9  13
ENDBRANCH   3   9
BRANCH   1  21
ATOM     21  C   UNL     1      34.991 -18.048 -21.780  0.00  0.00    +0.117 C 
BRANCH  21  23
ATOM     22  N   UNL     1      34.213 -14.370 -22.212  0.00  0.00    -0.240 NA
ATOM     23  C   UNL     1      34.633 -16.741 -22.432  0.00  0.00    +0.017 C 
ATOM     24  C   UNL     1      34.396 -16.663 -23.801  0.00  0.00    +0.000 C 
ATOM     25  C   UNL     1      34.530 -15.576 -21.690  0.00  0.00    +0.096 C 
ATOM     26  C   UNL     1      34.067 -15.440 -24.375  0.00  0.00    +0.023 C 
ATOM     27  C   UNL     1      33.989 -14.334 -23.545  0.00  0.00    +0.153 C 
BRANCH  27  31
ATOM     28  F   UNL     1      34.646 -12.088 -24.042  0.00  0.00    -0.164 F 
ATOM     29  F   UNL     1      33.317 -13.058 -25.455  0.00  0.00    -0.164 F 
ATOM     30  F   UNL     1      32.564 -12.430 -23.514  0.00  0.00    -0.164 F 
ATOM     31  C   UNL     1      33.639 -13.006 -24.128  0.00  0.00    +0.435 C 
ENDBRANCH  27  31
ENDBRANCH  21  23
ENDBRANCH   1  21
TORSDOF 5
ENDMDL
MODEL 8
REMARK VINA RESULT:     -11.4      7.143     11.179
REMARK  Name = 25151352
REMARK  5 active torsions:
REMARK  status: ('A' for Active; 'I' for Inactive)
REMARK    1  A    between atoms: N_1  and  C_21
REMARK    2  A    between atoms: C_3  and  C_9
REMARK    3  A    between atoms: C_9  and  C_13
REMARK    4  A    between atoms: C_21  and  C_23
REMARK    5  A    between atoms: C_27  and  C_31
REMARK                            x       y       z     vdW  Elec       q    Type
REMARK                         _______ _______ _______ _____ _____    ______ ____
ROOT
ATOM      1  N   UNL     1      33.838 -12.868 -25.829  0.00  0.00    -0.314 N 
ATOM      2  N   UNL     1      35.025 -10.806 -25.692  0.00  0.00    -0.230 NA
ATOM      3  C   UNL     1      34.429  -9.203 -23.983  0.00  0.00    +0.002 C 
ATOM      4  C   UNL     1      33.439 -10.059 -23.515  0.00  0.00    +0.000 C 
ATOM      5  C   UNL     1      35.189  -9.619 -25.065  0.00  0.00    +0.096 C 
ATOM      6  C   UNL     1      34.052 -11.611 -25.209  0.00  0.00    +0.129 C 
ATOM      7  C   UNL     1      33.240 -11.288 -24.134  0.00  0.00    +0.034 C 
ATOM      8  H   UNL     1      34.402 -13.118 -26.595  0.00  0.00    +0.149 HD
ENDROOT
BRANCH   3   9
ATOM      9  C   UNL     1      34.672  -7.852 -23.326  0.00  0.00    +0.056 C 
BRANCH   9  13
ATOM     10 CL   UNL     1      32.382  -4.040 -27.262  0.00  0.00    -0.081 Cl
ATOM     11  N   UNL     1      31.647  -6.285 -21.997  0.00  0.00    -0.297 N 
ATOM     12  N   UNL     1      30.800  -4.764 -23.662  0.00  0.00    -0.228 NA
ATOM     13  C   UNL     1      33.444  -7.083 -23.038  0.00  0.00    -0.000 C 
ATOM     14  C   UNL     1      32.810  -6.149 -23.898  0.00  0.00    +0.030 C 
ATOM     15  C   UNL     1      31.693  -5.670 -23.220  0.00  0.00    +0.132 C 
ATOM     16  C   UNL     1      32.706  -7.146 -21.875  0.00  0.00    +0.059 C 
ATOM     17  C   UNL     1      33.050  -5.644 -25.187  0.00  0.00    +0.015 C 
ATOM     18  C   UNL     1      32.155  -4.703 -25.693  0.00  0.00    +0.077 C 
ATOM     19  C   UNL     1      31.080  -4.312 -24.906  0.00  0.00    +0.112 C 
ATOM     20  H   UNL     1      30.958  -6.133 -21.311  0.00  0.00    +0.154 HD
ENDBRANCH   9  13
ENDBRANCH   3   9
BRANCH   1  21
ATOM     21  C   UNL     1      32.836 -13.782 -25.388  0.00  0.00    +0.117 C 
BRANCH  21  23
ATOM     22  N   UNL     1      34.274 -17.280 -25.299  0.00  0.00    -0.240 NA
ATOM     23  C   UNL     1      33.467 -15.043 -24.866  0.00  0.00    +0.017 C 
ATOM     24  C   UNL     1      33.824 -15.165 -23.527  0.00  0.00    +0.000 C 
ATOM     25  C   UNL     1      33.711 -16.120 -25.703  0.00  0.00    +0.096 C 
ATOM     26  C   UNL     1      34.406 -16.345 -23.074  0.00  0.00    +0.023 C 
ATOM     27  C   UNL     1      34.608 -17.363 -23.992  0.00  0.00    +0.153 C 
BRANCH  27  31
ATOM     28  F   UNL     1      35.171 -19.638 -24.471  0.00  0.00    -0.164 F 
ATOM     29  F   UNL     1      36.554 -18.525 -23.226  0.00  0.00    -0.164 F 
ATOM     30  F   UNL     1      34.632 -19.149 -22.422  0.00  0.00    -0.164 F 
ATOM     31  C   UNL     1      35.230 -18.642 -23.539  0.00  0.00    +0.435 C 
ENDBRANCH  27  31
ENDBRANCH  21  23
ENDBRANCH   1  21
TORSDOF 5
ENDMDL
MODEL 9
REMARK VINA RESULT:     -11.2      5.095      7.722
REMARK  Name = 25151352
REMARK  5 active torsions:
REMARK  status: ('A' for Active; 'I' for Inactive)
REMARK    1  A    between atoms: N_1  and  C_21
REMARK    2  A    between atoms: C_3  and  C_9
REMARK    3  A    between atoms: C_9  and  C_13
REMARK    4  A    between atoms: C_21  and  C_23
REMARK    5  A    between atoms: C_27  and  C_31
REMARK                            x       y       z     vdW  Elec       q    Type
REMARK                         _______ _______ _______ _____ _____    ______ ____
ROOT
ATOM      1  N   UNL     1      33.770 -15.769 -20.944  0.00  0.00    -0.314 N 
ATOM      2  N   UNL     1      32.692 -13.782 -20.190  0.00  0.00    -0.230 NA
ATOM      3  C   UNL     1      31.674 -12.296 -21.802  0.00  0.00    +0.002 C 
ATOM      4  C   UNL     1      32.062 -13.141 -22.836  0.00  0.00    +0.000 C 
ATOM      5  C   UNL     1      32.010 -12.658 -20.508  0.00  0.00    +0.096 C 
ATOM      6  C   UNL     1      33.053 -14.578 -21.221  0.00  0.00    +0.129 C 
ATOM      7  C   UNL     1      32.766 -14.305 -22.549  0.00  0.00    +0.034 C 
ATOM      8  H   UNL     1      33.986 -15.983 -20.008  0.00  0.00    +0.149 HD
ENDROOT
BRANCH   3   9
ATOM      9  C   UNL     1      30.902 -11.016 -22.085  0.00  0.00    +0.056 C 
BRANCH   9  13
ATOM     10 CL   UNL     1      35.431 -10.381 -25.874  0.00  0.00    -0.081 Cl
ATOM     11  N   UNL     1      32.536  -7.779 -21.615  0.00  0.00    -0.297 N 
ATOM     12  N   UNL     1      34.351  -7.621 -23.191  0.00  0.00    -0.228 NA
ATOM     13  C   UNL     1      31.732  -9.794 -22.106  0.00  0.00    -0.000 C 
ATOM     14  C   UNL     1      32.834  -9.534 -22.962  0.00  0.00    +0.030 C 
ATOM     15  C   UNL     1      33.312  -8.270 -22.631  0.00  0.00    +0.132 C 
ATOM     16  C   UNL     1      31.572  -8.696 -21.287  0.00  0.00    +0.059 C 
ATOM     17  C   UNL     1      33.493 -10.226 -23.991  0.00  0.00    +0.015 C 
ATOM     18  C   UNL     1      34.575  -9.599 -24.607  0.00  0.00    +0.077 C 
ATOM     19  C   UNL     1      34.948  -8.333 -24.175  0.00  0.00    +0.112 C 
ATOM     20  H   UNL     1      32.652  -6.900 -21.186  0.00  0.00    +0.154 HD
ENDBRANCH   9  13
ENDBRANCH   3   9
BRANCH   1  21
ATOM     21  C   UNL     1      34.191 -16.668 -21.967  0.00  0.00    +0.117 C 
BRANCH  21  23
ATOM     22  N   UNL     1      36.405 -19.379 -20.529  0.00  0.00    -0.240 NA
ATOM     23  C   UNL     1      34.622 -17.980 -21.371  0.00  0.00    +0.017 C 
ATOM     24  C   UNL     1      33.698 -18.986 -21.108  0.00  0.00    +0.000 C 
ATOM     25  C   UNL     1      35.951 -18.224 -21.065  0.00  0.00    +0.096 C 
ATOM     26  C   UNL     1      34.127 -20.189 -20.557  0.00  0.00    +0.023 C 
ATOM     27  C   UNL     1      35.478 -20.334 -20.288  0.00  0.00    +0.153 C 
BRANCH  27  31
ATOM     28  F   UNL     1      37.159 -22.035 -20.223  0.00  0.00    -0.164 F 
ATOM     29  F   UNL     1      36.186 -21.543 -18.348  0.00  0.00    -0.164 F 
ATOM     30  F   UNL     1      35.101 -22.645 -19.876  0.00  0.00    -0.164 F 
ATOM     31  C   UNL     1      35.973 -21.611 -19.695  0.00  0.00    +0.435 C 
ENDBRANCH  27  31
ENDBRANCH  21  23
ENDBRANCH   1  21
TORSDOF 5
ENDMDL
