MODEL 1
REMARK VINA RESULT:      -9.5      0.000      0.000
REMARK  Name = 449014
REMARK  7 active torsions:
REMARK  status: ('A' for Active; 'I' for Inactive)
REMARK    1  A    between atoms: C_1  and  N_2
REMARK    2  A    between atoms: C_1  and  C_12
REMARK    3  A    between atoms: C_1  and  C_16
REMARK    4  A    between atoms: C_6  and  C_9
REMARK    5  A    between atoms: C_12  and  O_14
REMARK    6  A    between atoms: C_16  and  C_17
REMARK    7  A    between atoms: C_17  and  C_20
REMARK                            x       y       z     vdW  Elec       q    Type
REMARK                         _______ _______ _______ _____ _____    ______ ____
ROOT
ATOM      1  C   UNL     1      34.557 -23.739 -16.434  0.00  0.00    +0.087 C 
ENDROOT
BRANCH   1   2
ATOM      2  N   UNL     1      35.840 -24.057 -15.788  0.00  0.00    -0.246 NA
ATOM      3  N   UNL     1      37.882 -23.783 -15.035  0.00  0.00    -0.251 NA
ATOM      4  C   UNL     1      36.160 -25.244 -15.232  0.00  0.00    +0.125 C 
ATOM      5  C   UNL     1      36.880 -23.204 -15.658  0.00  0.00    +0.201 C 
ATOM      6  C   UNL     1      37.441 -25.055 -14.767  0.00  0.00    +0.124 C 
BRANCH   6   9
ATOM      7  O   UNL     1      38.887 -26.923 -14.675  0.00  0.00    -0.269 OA
ATOM      8  N   UNL     1      38.328 -25.941 -12.695  0.00  0.00    -0.324 N 
ATOM      9  C   UNL     1      38.245 -26.024 -14.088  0.00  0.00    +0.257 C 
ATOM     10  H   UNL     1      38.872 -26.591 -12.195  0.00  0.00    +0.145 HD
ATOM     11  H   UNL     1      37.843 -25.232 -12.215  0.00  0.00    +0.145 HD
ENDBRANCH   6   9
ENDBRANCH   1   2
BRANCH   1  12
ATOM     12  C   UNL     1      33.383 -23.678 -15.421  0.00  0.00    +0.125 C 
ATOM     13  C   UNL     1      32.049 -23.293 -16.049  0.00  0.00    +0.033 C 
BRANCH  12  14
ATOM     14  O   UNL     1      33.680 -22.779 -14.356  0.00  0.00    -0.383 OA
ATOM     15  H   UNL     1      34.177 -23.248 -13.666  0.00  0.00    +0.210 HD
ENDBRANCH  12  14
ENDBRANCH   1  12
BRANCH   1  16
ATOM     16  C   UNL     1      34.613 -22.462 -17.313  0.00  0.00    +0.023 C 
BRANCH  16  17
ATOM     17  C   UNL     1      34.361 -22.694 -18.812  0.00  0.00    +0.029 C 
BRANCH  17  20
ATOM     18 CL   UNL     1      36.912 -21.373 -19.811  0.00  0.00    -0.082 Cl
ATOM     19 CL   UNL     1      36.460 -18.692 -21.524  0.00  0.00    -0.081 Cl
ATOM     20  C   UNL     1      34.214 -21.430 -19.622  0.00  0.00    -0.011 C 
ATOM     21  C   UNL     1      35.320 -20.756 -20.122  0.00  0.00    +0.064 C 
ATOM     22  C   UNL     1      32.928 -20.962 -19.854  0.00  0.00    -0.003 C 
ATOM     23  C   UNL     1      35.136 -19.591 -20.867  0.00  0.00    +0.068 C 
ATOM     24  C   UNL     1      32.744 -19.797 -20.600  0.00  0.00    +0.001 C 
ATOM     25  C   UNL     1      33.849 -19.112 -21.105  0.00  0.00    +0.012 C 
ENDBRANCH  17  20
ENDBRANCH  16  17
ENDBRANCH   1  16
TORSDOF 7
ENDMDL
MODEL 2
REMARK VINA RESULT:      -9.0      6.991     10.579
REMARK  Name = 449014
REMARK  7 active torsions:
REMARK  status: ('A' for Active; 'I' for Inactive)
REMARK    1  A    between atoms: C_1  and  N_2
REMARK    2  A    between atoms: C_1  and  C_12
REMARK    3  A    between atoms: C_1  and  C_16
REMARK    4  A    between atoms: C_6  and  C_9
REMARK    5  A    between atoms: C_12  and  O_14
REMARK    6  A    between atoms: C_16  and  C_17
REMARK    7  A    between atoms: C_17  and  C_20
REMARK                            x       y       z     vdW  Elec       q    Type
REMARK                         _______ _______ _______ _____ _____    ______ ____
ROOT
ATOM      1  C   UNL     1      33.588 -16.224 -22.718  0.00  0.00    +0.087 C 
ENDROOT
BRANCH   1   2
ATOM      2  N   UNL     1      33.071 -14.997 -22.092  0.00  0.00    -0.246 NA
ATOM      3  N   UNL     1      32.498 -13.581 -20.517  0.00  0.00    -0.251 NA
ATOM      4  C   UNL     1      32.588 -13.926 -22.756  0.00  0.00    +0.125 C 
ATOM      5  C   UNL     1      33.007 -14.768 -20.762  0.00  0.00    +0.201 C 
ATOM      6  C   UNL     1      32.234 -13.051 -21.755  0.00  0.00    +0.124 C 
BRANCH   6   9
ATOM      7  O   UNL     1      32.242 -10.819 -22.535  0.00  0.00    -0.269 OA
ATOM      8  N   UNL     1      30.383 -11.526 -21.421  0.00  0.00    -0.324 N 
ATOM      9  C   UNL     1      31.664 -11.751 -21.933  0.00  0.00    +0.257 C 
ATOM     10  H   UNL     1      29.959 -10.644 -21.525  0.00  0.00    +0.145 HD
ATOM     11  H   UNL     1      29.904 -12.251 -20.958  0.00  0.00    +0.145 HD
ENDBRANCH   6   9
ENDBRANCH   1   2
BRANCH   1  12
ATOM     12  C   UNL     1      34.485 -15.926 -23.949  0.00  0.00    +0.125 C 
ATOM     13  C   UNL     1      34.157 -16.780 -25.168  0.00  0.00    +0.033 C 
BRANCH  12  14
ATOM     14  O   UNL     1      35.862 -16.083 -23.621  0.00  0.00    -0.383 OA
ATOM     15  H   UNL     1      36.324 -16.514 -24.359  0.00  0.00    +0.210 HD
ENDBRANCH  12  14
ENDBRANCH   1  12
BRANCH   1  16
ATOM     16  C   UNL     1      34.297 -17.172 -21.716  0.00  0.00    +0.023 C 
BRANCH  16  17
ATOM     17  C   UNL     1      34.494 -18.613 -22.214  0.00  0.00    +0.029 C 
BRANCH  17  20
ATOM     18 CL   UNL     1      37.060 -19.511 -20.850  0.00  0.00    -0.082 Cl
ATOM     19 CL   UNL     1      36.668 -21.755 -18.584  0.00  0.00    -0.081 Cl
ATOM     20  C   UNL     1      34.375 -19.666 -21.140  0.00  0.00    -0.011 C 
ATOM     21  C   UNL     1      35.490 -20.139 -20.461  0.00  0.00    +0.064 C 
ATOM     22  C   UNL     1      33.106 -20.148 -20.852  0.00  0.00    -0.003 C 
ATOM     23  C   UNL     1      35.332 -21.113 -19.476  0.00  0.00    +0.068 C 
ATOM     24  C   UNL     1      32.948 -21.122 -19.866  0.00  0.00    +0.001 C 
ATOM     25  C   UNL     1      34.061 -21.605 -19.178  0.00  0.00    +0.012 C 
ENDBRANCH  17  20
ENDBRANCH  16  17
ENDBRANCH   1  16
TORSDOF 7
ENDMDL
MODEL 3
REMARK VINA RESULT:      -9.0      3.063      5.324
REMARK  Name = 449014
REMARK  7 active torsions:
REMARK  status: ('A' for Active; 'I' for Inactive)
REMARK    1  A    between atoms: C_1  and  N_2
REMARK    2  A    between atoms: C_1  and  C_12
REMARK    3  A    between atoms: C_1  and  C_16
REMARK    4  A    between atoms: C_6  and  C_9
REMARK    5  A    between atoms: C_12  and  O_14
REMARK    6  A    between atoms: C_16  and  C_17
REMARK    7  A    between atoms: C_17  and  C_20
REMARK                            x       y       z     vdW  Elec       q    Type
REMARK                         _______ _______ _______ _____ _____    ______ ____
ROOT
ATOM      1  C   UNL     1      33.273 -22.982 -16.473  0.00  0.00    +0.087 C 
ENDROOT
BRANCH   1   2
ATOM      2  N   UNL     1      31.872 -23.279 -16.134  0.00  0.00    -0.246 NA
ATOM      3  N   UNL     1      30.151 -24.067 -15.026  0.00  0.00    -0.251 NA
ATOM      4  C   UNL     1      30.798 -22.901 -16.858  0.00  0.00    +0.125 C 
ATOM      5  C   UNL     1      31.462 -23.971 -15.049  0.00  0.00    +0.201 C 
ATOM      6  C   UNL     1      29.731 -23.403 -16.150  0.00  0.00    +0.124 C 
BRANCH   6   9
ATOM      7  O   UNL     1      27.813 -23.904 -17.439  0.00  0.00    -0.269 OA
ATOM      8  N   UNL     1      27.561 -22.412 -15.734  0.00  0.00    -0.324 N 
ATOM      9  C   UNL     1      28.349 -23.274 -16.501  0.00  0.00    +0.257 C 
ATOM     10  H   UNL     1      26.606 -22.299 -15.946  0.00  0.00    +0.145 HD
ATOM     11  H   UNL     1      27.960 -21.919 -14.981  0.00  0.00    +0.145 HD
ENDBRANCH   6   9
ENDBRANCH   1   2
BRANCH   1  12
ATOM     12  C   UNL     1      34.274 -23.708 -15.535  0.00  0.00    +0.125 C 
ATOM     13  C   UNL     1      35.359 -22.797 -14.972  0.00  0.00    +0.033 C 
BRANCH  12  14
ATOM     14  O   UNL     1      34.885 -24.810 -16.201  0.00  0.00    -0.383 OA
ATOM     15  H   UNL     1      34.223 -25.265 -16.746  0.00  0.00    +0.210 HD
ENDBRANCH  12  14
ENDBRANCH   1  12
BRANCH   1  16
ATOM     16  C   UNL     1      33.610 -23.236 -17.966  0.00  0.00    +0.023 C 
BRANCH  16  17
ATOM     17  C   UNL     1      34.806 -22.436 -18.507  0.00  0.00    +0.029 C 
BRANCH  17  20
ATOM     18 CL   UNL     1      37.082 -20.975 -19.898  0.00  0.00    -0.082 Cl
ATOM     19 CL   UNL     1      36.159 -18.653 -21.919  0.00  0.00    -0.081 Cl
ATOM     20  C   UNL     1      34.436 -21.333 -19.468  0.00  0.00    -0.011 C 
ATOM     21  C   UNL     1      35.405 -20.611 -20.151  0.00  0.00    +0.064 C 
ATOM     22  C   UNL     1      33.086 -21.066 -19.649  0.00  0.00    -0.003 C 
ATOM     23  C   UNL     1      35.016 -19.601 -21.030  0.00  0.00    +0.068 C 
ATOM     24  C   UNL     1      32.697 -20.056 -20.529  0.00  0.00    +0.001 C 
ATOM     25  C   UNL     1      33.662 -19.323 -21.219  0.00  0.00    +0.012 C 
ENDBRANCH  17  20
ENDBRANCH  16  17
ENDBRANCH   1  16
TORSDOF 7
ENDMDL
MODEL 4
REMARK VINA RESULT:      -8.9      7.822     11.351
REMARK  Name = 449014
REMARK  7 active torsions:
REMARK  status: ('A' for Active; 'I' for Inactive)
REMARK    1  A    between atoms: C_1  and  N_2
REMARK    2  A    between atoms: C_1  and  C_12
REMARK    3  A    between atoms: C_1  and  C_16
REMARK    4  A    between atoms: C_6  and  C_9
REMARK    5  A    between atoms: C_12  and  O_14
REMARK    6  A    between atoms: C_16  and  C_17
REMARK    7  A    between atoms: C_17  and  C_20
REMARK                            x       y       z     vdW  Elec       q    Type
REMARK                         _______ _______ _______ _____ _____    ______ ____
ROOT
ATOM      1  C   UNL     1      33.878 -16.486 -23.944  0.00  0.00    +0.087 C 
ENDROOT
BRANCH   1   2
ATOM      2  N   UNL     1      33.690 -15.084 -24.348  0.00  0.00    -0.246 NA
ATOM      3  N   UNL     1      33.143 -13.362 -25.593  0.00  0.00    -0.251 NA
ATOM      4  C   UNL     1      33.994 -14.007 -23.594  0.00  0.00    +0.125 C 
ATOM      5  C   UNL     1      33.185 -14.675 -25.532  0.00  0.00    +0.201 C 
ATOM      6  C   UNL     1      33.646 -12.939 -24.388  0.00  0.00    +0.124 C 
BRANCH   6   9
ATOM      7  O   UNL     1      32.962 -10.948 -23.312  0.00  0.00    -0.269 OA
ATOM      8  N   UNL     1      34.875 -10.859 -24.549  0.00  0.00    -0.324 N 
ATOM      9  C   UNL     1      33.772 -11.555 -24.047  0.00  0.00    +0.257 C 
ATOM     10  H   UNL     1      34.995  -9.906 -24.335  0.00  0.00    +0.145 HD
ATOM     11  H   UNL     1      35.533 -11.323 -25.116  0.00  0.00    +0.145 HD
ENDBRANCH   6   9
ENDBRANCH   1   2
BRANCH   1  12
ATOM     12  C   UNL     1      34.287 -17.394 -25.134  0.00  0.00    +0.125 C 
ATOM     13  C   UNL     1      34.557 -18.841 -24.737  0.00  0.00    +0.033 C 
BRANCH  12  14
ATOM     14  O   UNL     1      35.429 -16.869 -25.803  0.00  0.00    -0.383 OA
ATOM     15  H   UNL     1      35.199 -16.663 -26.723  0.00  0.00    +0.210 HD
ENDBRANCH  12  14
ENDBRANCH   1  12
BRANCH   1  16
ATOM     16  C   UNL     1      34.847 -16.653 -22.744  0.00  0.00    +0.023 C 
BRANCH  16  17
ATOM     17  C   UNL     1      34.220 -17.271 -21.484  0.00  0.00    +0.029 C 
BRANCH  17  20
ATOM     18 CL   UNL     1      32.388 -19.515 -20.557  0.00  0.00    -0.082 Cl
ATOM     19 CL   UNL     1      33.901 -22.187 -19.611  0.00  0.00    -0.081 Cl
ATOM     20  C   UNL     1      34.872 -18.553 -21.027  0.00  0.00    -0.011 C 
ATOM     21  C   UNL     1      34.119 -19.633 -20.586  0.00  0.00    +0.064 C 
ATOM     22  C   UNL     1      36.258 -18.615 -21.063  0.00  0.00    -0.003 C 
ATOM     23  C   UNL     1      34.765 -20.797 -20.173  0.00  0.00    +0.068 C 
ATOM     24  C   UNL     1      36.904 -19.781 -20.650  0.00  0.00    +0.001 C 
ATOM     25  C   UNL     1      36.157 -20.872 -20.205  0.00  0.00    +0.012 C 
ENDBRANCH  17  20
ENDBRANCH  16  17
ENDBRANCH   1  16
TORSDOF 7
ENDMDL
MODEL 5
REMARK VINA RESULT:      -8.9      7.066     10.606
REMARK  Name = 449014
REMARK  7 active torsions:
REMARK  status: ('A' for Active; 'I' for Inactive)
REMARK    1  A    between atoms: C_1  and  N_2
REMARK    2  A    between atoms: C_1  and  C_12
REMARK    3  A    between atoms: C_1  and  C_16
REMARK    4  A    between atoms: C_6  and  C_9
REMARK    5  A    between atoms: C_12  and  O_14
REMARK    6  A    between atoms: C_16  and  C_17
REMARK    7  A    between atoms: C_17  and  C_20
REMARK                            x       y       z     vdW  Elec       q    Type
REMARK                         _______ _______ _______ _____ _____    ______ ____
ROOT
ATOM      1  C   UNL     1      34.912 -16.132 -22.344  0.00  0.00    +0.087 C 
ENDROOT
BRANCH   1   2
ATOM      2  N   UNL     1      34.343 -15.191 -23.322  0.00  0.00    -0.246 NA
ATOM      3  N   UNL     1      33.673 -13.293 -24.194  0.00  0.00    -0.251 NA
ATOM      4  C   UNL     1      33.870 -15.524 -24.540  0.00  0.00    +0.125 C 
ATOM      5  C   UNL     1      34.215 -13.859 -23.139  0.00  0.00    +0.201 C 
ATOM      6  C   UNL     1      33.454 -14.325 -25.072  0.00  0.00    +0.124 C 
BRANCH   6   9
ATOM      7  O   UNL     1      33.016 -13.089 -27.039  0.00  0.00    -0.269 OA
ATOM      8  N   UNL     1      32.106 -15.174 -26.895  0.00  0.00    -0.324 N 
ATOM      9  C   UNL     1      32.868 -14.130 -26.362  0.00  0.00    +0.257 C 
ATOM     10  H   UNL     1      31.688 -15.076 -27.780  0.00  0.00    +0.145 HD
ATOM     11  H   UNL     1      31.990 -16.009 -26.385  0.00  0.00    +0.145 HD
ENDBRANCH   6   9
ENDBRANCH   1   2
BRANCH   1  12
ATOM     12  C   UNL     1      34.293 -15.961 -20.931  0.00  0.00    +0.125 C 
ATOM     13  C   UNL     1      32.789 -15.714 -20.945  0.00  0.00    +0.033 C 
BRANCH  12  14
ATOM     14  O   UNL     1      34.936 -14.908 -20.220  0.00  0.00    -0.383 OA
ATOM     15  H   UNL     1      35.221 -15.231 -19.350  0.00  0.00    +0.210 HD
ENDBRANCH  12  14
ENDBRANCH   1  12
BRANCH   1  16
ATOM     16  C   UNL     1      34.857 -17.610 -22.812  0.00  0.00    +0.023 C 
BRANCH  16  17
ATOM     17  C   UNL     1      35.695 -18.588 -21.973  0.00  0.00    +0.029 C 
BRANCH  17  20
ATOM     18 CL   UNL     1      37.213 -20.368 -20.029  0.00  0.00    -0.082 Cl
ATOM     19 CL   UNL     1      35.369 -22.344 -18.290  0.00  0.00    -0.081 Cl
ATOM     20  C   UNL     1      34.884 -19.539 -21.128  0.00  0.00    -0.011 C 
ATOM     21  C   UNL     1      35.487 -20.390 -20.212  0.00  0.00    +0.064 C 
ATOM     22  C   UNL     1      33.506 -19.532 -21.297  0.00  0.00    -0.003 C 
ATOM     23  C   UNL     1      34.698 -21.252 -19.452  0.00  0.00    +0.068 C 
ATOM     24  C   UNL     1      32.717 -20.394 -20.536  0.00  0.00    +0.001 C 
ATOM     25  C   UNL     1      33.312 -21.254 -19.614  0.00  0.00    +0.012 C 
ENDBRANCH  17  20
ENDBRANCH  16  17
ENDBRANCH   1  16
TORSDOF 7
ENDMDL
MODEL 6
REMARK VINA RESULT:      -8.9      7.024     10.568
REMARK  Name = 449014
REMARK  7 active torsions:
REMARK  status: ('A' for Active; 'I' for Inactive)
REMARK    1  A    between atoms: C_1  and  N_2
REMARK    2  A    between atoms: C_1  and  C_12
REMARK    3  A    between atoms: C_1  and  C_16
REMARK    4  A    between atoms: C_6  and  C_9
REMARK    5  A    between atoms: C_12  and  O_14
REMARK    6  A    between atoms: C_16  and  C_17
REMARK    7  A    between atoms: C_17  and  C_20
REMARK                            x       y       z     vdW  Elec       q    Type
REMARK                         _______ _______ _______ _____ _____    ______ ____
ROOT
ATOM      1  C   UNL     1      35.061 -16.099 -22.169  0.00  0.00    +0.087 C 
ENDROOT
BRANCH   1   2
ATOM      2  N   UNL     1      34.429 -15.329 -23.251  0.00  0.00    -0.246 NA
ATOM      3  N   UNL     1      33.598 -13.610 -24.333  0.00  0.00    -0.251 NA
ATOM      4  C   UNL     1      34.023 -15.834 -24.435  0.00  0.00    +0.125 C 
ATOM      5  C   UNL     1      34.166 -14.004 -23.215  0.00  0.00    +0.201 C 
ATOM      6  C   UNL     1      33.506 -14.745 -25.098  0.00  0.00    +0.124 C 
BRANCH   6   9
ATOM      7  O   UNL     1      32.456 -15.767 -26.954  0.00  0.00    -0.269 OA
ATOM      8  N   UNL     1      32.905 -13.538 -27.109  0.00  0.00    -0.324 N 
ATOM      9  C   UNL     1      32.938 -14.748 -26.411  0.00  0.00    +0.257 C 
ATOM     10  H   UNL     1      32.521 -13.502 -28.015  0.00  0.00    +0.145 HD
ATOM     11  H   UNL     1      33.265 -12.721 -26.694  0.00  0.00    +0.145 HD
ENDBRANCH   6   9
ENDBRANCH   1   2
BRANCH   1  12
ATOM     12  C   UNL     1      34.243 -16.047 -20.851  0.00  0.00    +0.125 C 
ATOM     13  C   UNL     1      32.809 -15.563 -21.037  0.00  0.00    +0.033 C 
BRANCH  12  14
ATOM     14  O   UNL     1      34.894 -15.229 -19.883  0.00  0.00    -0.383 OA
ATOM     15  H   UNL     1      35.772 -14.977 -20.211  0.00  0.00    +0.210 HD
ENDBRANCH  12  14
ENDBRANCH   1  12
BRANCH   1  16
ATOM     16  C   UNL     1      35.395 -17.559 -22.571  0.00  0.00    +0.023 C 
BRANCH  16  17
ATOM     17  C   UNL     1      34.427 -18.621 -22.025  0.00  0.00    +0.029 C 
BRANCH  17  20
ATOM     18 CL   UNL     1      32.564 -20.574 -20.622  0.00  0.00    -0.082 Cl
ATOM     19 CL   UNL     1      34.011 -22.580 -18.570  0.00  0.00    -0.081 Cl
ATOM     20  C   UNL     1      35.047 -19.589 -21.048  0.00  0.00    -0.011 C 
ATOM     21  C   UNL     1      34.279 -20.518 -20.360  0.00  0.00    +0.064 C 
ATOM     22  C   UNL     1      36.421 -19.519 -20.861  0.00  0.00    -0.003 C 
ATOM     23  C   UNL     1      34.896 -21.393 -19.467  0.00  0.00    +0.068 C 
ATOM     24  C   UNL     1      37.038 -20.396 -19.968  0.00  0.00    +0.001 C 
ATOM     25  C   UNL     1      36.275 -21.332 -19.271  0.00  0.00    +0.012 C 
ENDBRANCH  17  20
ENDBRANCH  16  17
ENDBRANCH   1  16
TORSDOF 7
ENDMDL
MODEL 7
REMARK VINA RESULT:      -8.8      7.186     10.704
REMARK  Name = 449014
REMARK  7 active torsions:
REMARK  status: ('A' for Active; 'I' for Inactive)
REMARK    1  A    between atoms: C_1  and  N_2
REMARK    2  A    between atoms: C_1  and  C_12
REMARK    3  A    between atoms: C_1  and  C_16
REMARK    4  A    between atoms: C_6  and  C_9
REMARK    5  A    between atoms: C_12  and  O_14
REMARK    6  A    between atoms: C_16  and  C_17
REMARK    7  A    between atoms: C_17  and  C_20
REMARK                            x       y       z     vdW  Elec       q    Type
REMARK                         _______ _______ _______ _____ _____    ______ ____
ROOT
ATOM      1  C   UNL     1      34.749 -16.095 -22.351  0.00  0.00    +0.087 C 
ENDROOT
BRANCH   1   2
ATOM      2  N   UNL     1      34.240 -15.037 -23.237  0.00  0.00    -0.246 NA
ATOM      3  N   UNL     1      33.240 -14.099 -24.950  0.00  0.00    -0.251 NA
ATOM      4  C   UNL     1      34.380 -13.711 -23.029  0.00  0.00    +0.125 C 
ATOM      5  C   UNL     1      33.558 -15.242 -24.386  0.00  0.00    +0.201 C 
ATOM      6  C   UNL     1      33.749 -13.140 -24.110  0.00  0.00    +0.124 C 
BRANCH   6   9
ATOM      7  O   UNL     1      34.033 -11.184 -25.409  0.00  0.00    -0.269 OA
ATOM      8  N   UNL     1      32.967 -10.959 -23.406  0.00  0.00    -0.324 N 
ATOM      9  C   UNL     1      33.617 -11.738 -24.367  0.00  0.00    +0.257 C 
ATOM     10  H   UNL     1      32.858  -9.992 -23.550  0.00  0.00    +0.145 HD
ATOM     11  H   UNL     1      32.618 -11.378 -22.587  0.00  0.00    +0.145 HD
ENDBRANCH   6   9
ENDBRANCH   1   2
BRANCH   1  12
ATOM     12  C   UNL     1      34.077 -16.069 -20.953  0.00  0.00    +0.125 C 
ATOM     13  C   UNL     1      32.644 -15.548 -20.970  0.00  0.00    +0.033 C 
BRANCH  12  14
ATOM     14  O   UNL     1      34.846 -15.298 -20.035  0.00  0.00    -0.383 OA
ATOM     15  H   UNL     1      35.310 -14.593 -20.514  0.00  0.00    +0.210 HD
ENDBRANCH  12  14
ENDBRANCH   1  12
BRANCH   1  16
ATOM     16  C   UNL     1      34.684 -17.510 -22.985  0.00  0.00    +0.023 C 
BRANCH  16  17
ATOM     17  C   UNL     1      35.598 -18.558 -22.329  0.00  0.00    +0.029 C 
BRANCH  17  20
ATOM     18 CL   UNL     1      37.321 -20.101 -20.355  0.00  0.00    -0.082 Cl
ATOM     19 CL   UNL     1      35.697 -22.053 -18.385  0.00  0.00    -0.081 Cl
ATOM     20  C   UNL     1      34.892 -19.492 -21.377  0.00  0.00    -0.011 C 
ATOM     21  C   UNL     1      35.594 -20.238 -20.440  0.00  0.00    +0.064 C 
ATOM     22  C   UNL     1      33.510 -19.579 -21.470  0.00  0.00    -0.003 C 
ATOM     23  C   UNL     1      34.900 -21.089 -19.580  0.00  0.00    +0.068 C 
ATOM     24  C   UNL     1      32.816 -20.430 -20.609  0.00  0.00    +0.001 C 
ATOM     25  C   UNL     1      33.511 -21.184 -19.665  0.00  0.00    +0.012 C 
ENDBRANCH  17  20
ENDBRANCH  16  17
ENDBRANCH   1  16
TORSDOF 7
ENDMDL
MODEL 8
REMARK VINA RESULT:      -8.8      7.181     10.810
REMARK  Name = 449014
REMARK  7 active torsions:
REMARK  status: ('A' for Active; 'I' for Inactive)
REMARK    1  A    between atoms: C_1  and  N_2
REMARK    2  A    between atoms: C_1  and  C_12
REMARK    3  A    between atoms: C_1  and  C_16
REMARK    4  A    between atoms: C_6  and  C_9
REMARK    5  A    between atoms: C_12  and  O_14
REMARK    6  A    between atoms: C_16  and  C_17
REMARK    7  A    between atoms: C_17  and  C_20
REMARK                            x       y       z     vdW  Elec       q    Type
REMARK                         _______ _______ _______ _____ _____    ______ ____
ROOT
ATOM      1  C   UNL     1      33.601 -15.978 -22.665  0.00  0.00    +0.087 C 
ENDROOT
BRANCH   1   2
ATOM      2  N   UNL     1      33.033 -14.799 -21.993  0.00  0.00    -0.246 NA
ATOM      3  N   UNL     1      32.408 -13.466 -20.367  0.00  0.00    -0.251 NA
ATOM      4  C   UNL     1      32.496 -13.730 -22.616  0.00  0.00    +0.125 C 
ATOM      5  C   UNL     1      32.969 -14.619 -20.655  0.00  0.00    +0.201 C 
ATOM      6  C   UNL     1      32.110 -12.906 -21.583  0.00  0.00    +0.124 C 
BRANCH   6   9
ATOM      7  O   UNL     1      30.462 -11.292 -21.067  0.00  0.00    -0.269 OA
ATOM      8  N   UNL     1      32.050 -10.707 -22.594  0.00  0.00    -0.324 N 
ATOM      9  C   UNL     1      31.479 -11.629 -21.712  0.00  0.00    +0.257 C 
ATOM     10  H   UNL     1      31.643  -9.818 -22.708  0.00  0.00    +0.145 HD
ATOM     11  H   UNL     1      32.860 -10.946 -23.099  0.00  0.00    +0.145 HD
ENDBRANCH   6   9
ENDBRANCH   1   2
BRANCH   1  12
ATOM     12  C   UNL     1      34.511 -15.595 -23.863  0.00  0.00    +0.125 C 
ATOM     13  C   UNL     1      33.982 -16.068 -25.211  0.00  0.00    +0.033 C 
BRANCH  12  14
ATOM     14  O   UNL     1      35.832 -16.093 -23.675  0.00  0.00    -0.383 OA
ATOM     15  H   UNL     1      36.129 -15.892 -22.773  0.00  0.00    +0.210 HD
ENDBRANCH  12  14
ENDBRANCH   1  12
BRANCH   1  16
ATOM     16  C   UNL     1      34.322 -16.949 -21.694  0.00  0.00    +0.023 C 
BRANCH  16  17
ATOM     17  C   UNL     1      34.237 -18.435 -22.080  0.00  0.00    +0.029 C 
BRANCH  17  20
ATOM     18 CL   UNL     1      32.601 -20.553 -20.634  0.00  0.00    -0.082 Cl
ATOM     19 CL   UNL     1      34.294 -22.466 -18.684  0.00  0.00    -0.081 Cl
ATOM     20  C   UNL     1      34.976 -19.364 -21.149  0.00  0.00    -0.011 C 
ATOM     21  C   UNL     1      34.316 -20.363 -20.445  0.00  0.00    +0.064 C 
ATOM     22  C   UNL     1      36.347 -19.187 -21.020  0.00  0.00    -0.003 C 
ATOM     23  C   UNL     1      35.040 -21.199 -19.596  0.00  0.00    +0.068 C 
ATOM     24  C   UNL     1      37.071 -20.024 -20.170  0.00  0.00    +0.001 C 
ATOM     25  C   UNL     1      36.417 -21.029 -19.459  0.00  0.00    +0.012 C 
ENDBRANCH  17  20
ENDBRANCH  16  17
ENDBRANCH   1  16
TORSDOF 7
ENDMDL
MODEL 9
REMARK VINA RESULT:      -8.7      5.622      8.505
REMARK  Name = 449014
REMARK  7 active torsions:
REMARK  status: ('A' for Active; 'I' for Inactive)
REMARK    1  A    between atoms: C_1  and  N_2
REMARK    2  A    between atoms: C_1  and  C_12
REMARK    3  A    between atoms: C_1  and  C_16
REMARK    4  A    between atoms: C_6  and  C_9
REMARK    5  A    between atoms: C_12  and  O_14
REMARK    6  A    between atoms: C_16  and  C_17
REMARK    7  A    between atoms: C_17  and  C_20
REMARK                            x       y       z     vdW  Elec       q    Type
REMARK                         _______ _______ _______ _____ _____    ______ ____
ROOT
ATOM      1  C   UNL     1      35.455 -18.074 -23.328  0.00  0.00    +0.087 C 
ENDROOT
BRANCH   1   2
ATOM      2  N   UNL     1      35.316 -18.888 -22.110  0.00  0.00    -0.246 NA
ATOM      3  N   UNL     1      35.854 -19.856 -20.216  0.00  0.00    -0.251 NA
ATOM      4  C   UNL     1      34.203 -19.555 -21.740  0.00  0.00    +0.125 C 
ATOM      5  C   UNL     1      36.285 -19.082 -21.188  0.00  0.00    +0.201 C 
ATOM      6  C   UNL     1      34.558 -20.154 -20.554  0.00  0.00    +0.124 C 
BRANCH   6   9
ATOM      7  O   UNL     1      32.516 -20.743 -19.517  0.00  0.00    -0.269 OA
ATOM      8  N   UNL     1      34.286 -22.144 -19.201  0.00  0.00    -0.324 N 
ATOM      9  C   UNL     1      33.722 -20.987 -19.745  0.00  0.00    +0.257 C 
ATOM     10  H   UNL     1      33.740 -22.741 -18.640  0.00  0.00    +0.145 HD
ATOM     11  H   UNL     1      35.228 -22.364 -19.381  0.00  0.00    +0.145 HD
ENDBRANCH   6   9
ENDBRANCH   1   2
BRANCH   1  12
ATOM     12  C   UNL     1      34.508 -18.545 -24.464  0.00  0.00    +0.125 C 
ATOM     13  C   UNL     1      34.851 -19.924 -25.017  0.00  0.00    +0.033 C 
BRANCH  12  14
ATOM     14  O   UNL     1      34.490 -17.602 -25.532  0.00  0.00    -0.383 OA
ATOM     15  H   UNL     1      34.503 -16.702 -25.169  0.00  0.00    +0.210 HD
ENDBRANCH  12  14
ENDBRANCH   1  12
BRANCH   1  16
ATOM     16  C   UNL     1      35.314 -16.552 -23.068  0.00  0.00    +0.023 C 
BRANCH  16  17
ATOM     17  C   UNL     1      34.126 -16.152 -22.179  0.00  0.00    +0.029 C 
BRANCH  17  20
ATOM     18 CL   UNL     1      32.439 -14.864 -20.000  0.00  0.00    -0.082 Cl
ATOM     19 CL   UNL     1      31.335 -11.930 -20.707  0.00  0.00    -0.081 Cl
ATOM     20  C   UNL     1      33.578 -14.773 -22.452  0.00  0.00    -0.011 C 
ATOM     21  C   UNL     1      32.798 -14.104 -21.518  0.00  0.00    +0.064 C 
ATOM     22  C   UNL     1      33.884 -14.192 -23.675  0.00  0.00    -0.003 C 
ATOM     23  C   UNL     1      32.313 -12.831 -21.814  0.00  0.00    +0.068 C 
ATOM     24  C   UNL     1      33.399 -12.917 -23.970  0.00  0.00    +0.001 C 
ATOM     25  C   UNL     1      32.614 -12.237 -23.040  0.00  0.00    +0.012 C 
ENDBRANCH  17  20
ENDBRANCH  16  17
ENDBRANCH   1  16
TORSDOF 7
ENDMDL
