MODEL 1
REMARK VINA RESULT:     -10.7      0.000      0.000
REMARK  Name = 77999
REMARK  6 active torsions:
REMARK  status: ('A' for Active; 'I' for Inactive)
REMARK    1  A    between atoms: C_1  and  C_18
REMARK    2  A    between atoms: C_4  and  O_7
REMARK    3  A    between atoms: O_7  and  C_8
REMARK    4  A    between atoms: C_8  and  C_9
REMARK    5  A    between atoms: C_9  and  N_10
REMARK    6  A    between atoms: C_18  and  C_23
REMARK                            x       y       z     vdW  Elec       q    Type
REMARK                         _______ _______ _______ _____ _____    ______ ____
ROOT
ATOM      1  C   UNL     1      34.074 -20.135 -20.606  0.00  0.00    -0.021 C 
ATOM      2  C   UNL     1      35.410 -20.409 -20.353  0.00  0.00    -0.001 C 
ATOM      3  C   UNL     1      33.065 -20.819 -19.944  0.00  0.00    -0.001 C 
ATOM      4  C   UNL     1      34.740 -22.082 -18.745  0.00  0.00    +0.139 C 
ATOM      5  C   UNL     1      35.745 -21.388 -19.417  0.00  0.00    +0.037 C 
ATOM      6  C   UNL     1      33.400 -21.798 -19.008  0.00  0.00    +0.037 C 
ENDROOT
BRANCH   4   7
ATOM      7  O   UNL     1      35.066 -23.038 -17.832  0.00  0.00    -0.474 OA
BRANCH   7   8
ATOM      8  C   UNL     1      34.309 -23.067 -16.623  0.00  0.00    +0.227 C 
BRANCH   8   9
ATOM      9  C   UNL     1      35.201 -22.670 -15.459  0.00  0.00    +0.140 C 
BRANCH   9  10
ATOM     10  N   UNL     1      35.247 -23.735 -14.485  0.00  0.00    -0.288 N 
ATOM     11  C   UNL     1      34.022 -24.069 -13.757  0.00  0.00    +0.114 C 
ATOM     12  N   UNL     1      36.429 -25.421 -13.288  0.00  0.00    -0.229 NA
ATOM     13  C   UNL     1      36.432 -24.434 -14.222  0.00  0.00    +0.132 C 
ATOM     14  C   UNL     1      37.570 -24.078 -14.942  0.00  0.00    +0.034 C 
ATOM     15  C   UNL     1      38.754 -24.762 -14.693  0.00  0.00    +0.004 C 
ATOM     16  C   UNL     1      37.599 -26.064 -13.072  0.00  0.00    +0.100 C 
ATOM     17  C   UNL     1      38.778 -25.776 -13.742  0.00  0.00    +0.021 C 
ENDBRANCH   9  10
ENDBRANCH   8   9
ENDBRANCH   7   8
ENDBRANCH   4   7
BRANCH   1  18
ATOM     18  C   UNL     1      33.712 -19.078 -21.617  0.00  0.00    +0.047 C 
BRANCH  18  23
ATOM     19  S   UNL     1      34.737 -18.919 -24.167  0.00  0.00    -0.048 S 
ATOM     20  O   UNL     1      35.211 -16.513 -21.187  0.00  0.00    -0.274 OA
ATOM     21  O   UNL     1      34.921 -16.854 -25.784  0.00  0.00    -0.263 OA
ATOM     22  N   UNL     1      35.107 -16.482 -23.498  0.00  0.00    -0.246 N 
ATOM     23  C   UNL     1      34.925 -18.590 -22.388  0.00  0.00    +0.137 C 
ATOM     24  C   UNL     1      35.096 -17.094 -22.261  0.00  0.00    +0.239 C 
ATOM     25  C   UNL     1      34.939 -17.242 -24.625  0.00  0.00    +0.279 C 
ATOM     26  H   UNL     1      35.235 -15.508 -23.569  0.00  0.00    +0.158 HD
ENDBRANCH  18  23
ENDBRANCH   1  18
TORSDOF 6
ENDMDL
MODEL 2
REMARK VINA RESULT:     -10.6      3.103     10.613
REMARK  Name = 77999
REMARK  6 active torsions:
REMARK  status: ('A' for Active; 'I' for Inactive)
REMARK    1  A    between atoms: C_1  and  C_18
REMARK    2  A    between atoms: C_4  and  O_7
REMARK    3  A    between atoms: O_7  and  C_8
REMARK    4  A    between atoms: C_8  and  C_9
REMARK    5  A    between atoms: C_9  and  N_10
REMARK    6  A    between atoms: C_18  and  C_23
REMARK                            x       y       z     vdW  Elec       q    Type
REMARK                         _______ _______ _______ _____ _____    ______ ____
ROOT
ATOM      1  C   UNL     1      34.014 -22.378 -18.583  0.00  0.00    -0.021 C 
ATOM      2  C   UNL     1      33.102 -21.613 -19.295  0.00  0.00    -0.001 C 
ATOM      3  C   UNL     1      35.379 -22.158 -18.699  0.00  0.00    -0.001 C 
ATOM      4  C   UNL     1      34.934 -20.374 -20.267  0.00  0.00    +0.139 C 
ATOM      5  C   UNL     1      33.564 -20.605 -20.142  0.00  0.00    +0.037 C 
ATOM      6  C   UNL     1      35.841 -21.150 -19.546  0.00  0.00    +0.037 C 
ENDROOT
BRANCH   4   7
ATOM      7  O   UNL     1      35.385 -19.391 -21.094  0.00  0.00    -0.474 OA
BRANCH   7   8
ATOM      8  C   UNL     1      34.458 -18.367 -21.452  0.00  0.00    +0.227 C 
BRANCH   8   9
ATOM      9  C   UNL     1      35.168 -17.312 -22.284  0.00  0.00    +0.140 C 
BRANCH   9  10
ATOM     10  N   UNL     1      34.708 -17.368 -23.651  0.00  0.00    -0.288 N 
ATOM     11  C   UNL     1      34.828 -18.634 -24.378  0.00  0.00    +0.114 C 
ATOM     12  N   UNL     1      33.760 -16.341 -25.580  0.00  0.00    -0.229 NA
ATOM     13  C   UNL     1      34.168 -16.243 -24.288  0.00  0.00    +0.132 C 
ATOM     14  C   UNL     1      34.076 -15.063 -23.553  0.00  0.00    +0.034 C 
ATOM     15  C   UNL     1      33.542 -13.938 -24.170  0.00  0.00    +0.004 C 
ATOM     16  C   UNL     1      33.247 -15.226 -26.147  0.00  0.00    +0.100 C 
ATOM     17  C   UNL     1      33.117 -14.012 -25.492  0.00  0.00    +0.021 C 
ENDBRANCH   9  10
ENDBRANCH   8   9
ENDBRANCH   7   8
ENDBRANCH   4   7
BRANCH   1  18
ATOM     18  C   UNL     1      33.515 -23.466 -17.668  0.00  0.00    +0.047 C 
BRANCH  18  23
ATOM     19  S   UNL     1      32.155 -23.285 -15.282  0.00  0.00    -0.048 S 
ATOM     20  O   UNL     1      35.842 -24.221 -15.929  0.00  0.00    -0.274 OA
ATOM     21  O   UNL     1      32.176 -24.896 -13.204  0.00  0.00    -0.263 OA
ATOM     22  N   UNL     1      34.127 -24.677 -14.446  0.00  0.00    -0.246 N 
ATOM     23  C   UNL     1      33.713 -23.113 -16.205  0.00  0.00    +0.137 C 
ATOM     24  C   UNL     1      34.693 -24.051 -15.538  0.00  0.00    +0.239 C 
ATOM     25  C   UNL     1      32.819 -24.423 -14.129  0.00  0.00    +0.279 C 
ATOM     26  H   UNL     1      34.659 -25.300 -13.900  0.00  0.00    +0.158 HD
ENDBRANCH  18  23
ENDBRANCH   1  18
TORSDOF 6
ENDMDL
MODEL 3
REMARK VINA RESULT:     -10.5      3.307     10.310
REMARK  Name = 77999
REMARK  6 active torsions:
REMARK  status: ('A' for Active; 'I' for Inactive)
REMARK    1  A    between atoms: C_1  and  C_18
REMARK    2  A    between atoms: C_4  and  O_7
REMARK    3  A    between atoms: O_7  and  C_8
REMARK    4  A    between atoms: C_8  and  C_9
REMARK    5  A    between atoms: C_9  and  N_10
REMARK    6  A    between atoms: C_18  and  C_23
REMARK                            x       y       z     vdW  Elec       q    Type
REMARK                         _______ _______ _______ _____ _____    ______ ____
ROOT
ATOM      1  C   UNL     1      35.010 -22.877 -16.852  0.00  0.00    -0.021 C 
ATOM      2  C   UNL     1      34.005 -22.872 -17.809  0.00  0.00    -0.001 C 
ATOM      3  C   UNL     1      36.231 -22.265 -17.092  0.00  0.00    -0.001 C 
ATOM      4  C   UNL     1      35.450 -21.620 -19.286  0.00  0.00    +0.139 C 
ATOM      5  C   UNL     1      34.227 -22.240 -19.033  0.00  0.00    +0.037 C 
ATOM      6  C   UNL     1      36.452 -21.633 -18.316  0.00  0.00    +0.037 C 
ENDROOT
BRANCH   4   7
ATOM      7  O   UNL     1      35.667 -21.005 -20.480  0.00  0.00    -0.474 OA
BRANCH   7   8
ATOM      8  C   UNL     1      34.907 -19.827 -20.751  0.00  0.00    +0.227 C 
BRANCH   8   9
ATOM      9  C   UNL     1      35.843 -18.712 -21.186  0.00  0.00    +0.140 C 
BRANCH   9  10
ATOM     10  N   UNL     1      35.292 -18.022 -22.329  0.00  0.00    -0.288 N 
ATOM     11  C   UNL     1      35.312 -18.696 -23.629  0.00  0.00    +0.114 C 
ATOM     12  N   UNL     1      34.263 -16.118 -23.323  0.00  0.00    -0.229 NA
ATOM     13  C   UNL     1      34.758 -16.732 -22.217  0.00  0.00    +0.132 C 
ATOM     14  C   UNL     1      34.763 -16.135 -20.958  0.00  0.00    +0.034 C 
ATOM     15  C   UNL     1      34.236 -14.854 -20.829  0.00  0.00    +0.004 C 
ATOM     16  C   UNL     1      33.759 -14.874 -23.159  0.00  0.00    +0.100 C 
ATOM     17  C   UNL     1      33.723 -14.204 -21.946  0.00  0.00    +0.021 C 
ENDBRANCH   9  10
ENDBRANCH   8   9
ENDBRANCH   7   8
ENDBRANCH   4   7
BRANCH   1  18
ATOM     18  C   UNL     1      34.771 -23.560 -15.530  0.00  0.00    +0.047 C 
BRANCH  18  23
ATOM     19  S   UNL     1      36.195 -23.526 -13.174  0.00  0.00    -0.048 S 
ATOM     20  O   UNL     1      36.011 -26.271 -15.880  0.00  0.00    -0.274 OA
ATOM     21  O   UNL     1      36.513 -25.412 -11.370  0.00  0.00    -0.263 OA
ATOM     22  N   UNL     1      36.291 -26.043 -13.595  0.00  0.00    -0.246 N 
ATOM     23  C   UNL     1      36.062 -24.060 -14.908  0.00  0.00    +0.137 C 
ATOM     24  C   UNL     1      36.114 -25.570 -14.880  0.00  0.00    +0.239 C 
ATOM     25  C   UNL     1      36.362 -25.155 -12.555  0.00  0.00    +0.279 C 
ATOM     26  H   UNL     1      36.367 -27.011 -13.429  0.00  0.00    +0.158 HD
ENDBRANCH  18  23
ENDBRANCH   1  18
TORSDOF 6
ENDMDL
MODEL 4
REMARK VINA RESULT:     -10.5      1.315      1.848
REMARK  Name = 77999
REMARK  6 active torsions:
REMARK  status: ('A' for Active; 'I' for Inactive)
REMARK    1  A    between atoms: C_1  and  C_18
REMARK    2  A    between atoms: C_4  and  O_7
REMARK    3  A    between atoms: O_7  and  C_8
REMARK    4  A    between atoms: C_8  and  C_9
REMARK    5  A    between atoms: C_9  and  N_10
REMARK    6  A    between atoms: C_18  and  C_23
REMARK                            x       y       z     vdW  Elec       q    Type
REMARK                         _______ _______ _______ _____ _____    ______ ____
ROOT
ATOM      1  C   UNL     1      33.924 -19.998 -20.683  0.00  0.00    -0.021 C 
ATOM      2  C   UNL     1      35.241 -20.382 -20.476  0.00  0.00    -0.001 C 
ATOM      3  C   UNL     1      32.880 -20.636 -20.028  0.00  0.00    -0.001 C 
ATOM      4  C   UNL     1      34.480 -22.076 -18.930  0.00  0.00    +0.139 C 
ATOM      5  C   UNL     1      35.521 -21.427 -19.595  0.00  0.00    +0.037 C 
ATOM      6  C   UNL     1      33.160 -21.681 -19.147  0.00  0.00    +0.037 C 
ENDROOT
BRANCH   4   7
ATOM      7  O   UNL     1      34.753 -23.096 -18.072  0.00  0.00    -0.474 OA
BRANCH   7   8
ATOM      8  C   UNL     1      34.547 -22.847 -16.682  0.00  0.00    +0.227 C 
BRANCH   8   9
ATOM      9  C   UNL     1      35.193 -23.956 -15.869  0.00  0.00    +0.140 C 
BRANCH   9  10
ATOM     10  N   UNL     1      36.342 -23.444 -15.159  0.00  0.00    -0.288 N 
ATOM     11  C   UNL     1      37.428 -22.838 -15.932  0.00  0.00    +0.114 C 
ATOM     12  N   UNL     1      37.542 -23.043 -13.141  0.00  0.00    -0.229 NA
ATOM     13  C   UNL     1      36.437 -23.528 -13.764  0.00  0.00    +0.132 C 
ATOM     14  C   UNL     1      35.376 -24.114 -13.076  0.00  0.00    +0.034 C 
ATOM     15  C   UNL     1      35.455 -24.204 -11.690  0.00  0.00    +0.004 C 
ATOM     16  C   UNL     1      37.583 -23.149 -11.794  0.00  0.00    +0.100 C 
ATOM     17  C   UNL     1      36.575 -23.716 -11.029  0.00  0.00    +0.021 C 
ENDBRANCH   9  10
ENDBRANCH   8   9
ENDBRANCH   7   8
ENDBRANCH   4   7
BRANCH   1  18
ATOM     18  C   UNL     1      33.621 -18.869 -21.634  0.00  0.00    +0.047 C 
BRANCH  18  23
ATOM     19  S   UNL     1      34.687 -18.821 -24.172  0.00  0.00    -0.048 S 
ATOM     20  O   UNL     1      35.155 -16.314 -21.275  0.00  0.00    -0.274 OA
ATOM     21  O   UNL     1      34.928 -16.820 -25.860  0.00  0.00    -0.263 OA
ATOM     22  N   UNL     1      35.086 -16.367 -23.587  0.00  0.00    -0.246 N 
ATOM     23  C   UNL     1      34.854 -18.430 -22.404  0.00  0.00    +0.137 C 
ATOM     24  C   UNL     1      35.047 -16.932 -22.328  0.00  0.00    +0.239 C 
ATOM     25  C   UNL     1      34.923 -17.164 -24.688  0.00  0.00    +0.279 C 
ATOM     26  H   UNL     1      35.230 -15.398 -23.691  0.00  0.00    +0.158 HD
ENDBRANCH  18  23
ENDBRANCH   1  18
TORSDOF 6
ENDMDL
MODEL 5
REMARK VINA RESULT:     -10.5      1.706      3.323
REMARK  Name = 77999
REMARK  6 active torsions:
REMARK  status: ('A' for Active; 'I' for Inactive)
REMARK    1  A    between atoms: C_1  and  C_18
REMARK    2  A    between atoms: C_4  and  O_7
REMARK    3  A    between atoms: O_7  and  C_8
REMARK    4  A    between atoms: C_8  and  C_9
REMARK    5  A    between atoms: C_9  and  N_10
REMARK    6  A    between atoms: C_18  and  C_23
REMARK                            x       y       z     vdW  Elec       q    Type
REMARK                         _______ _______ _______ _____ _____    ______ ____
ROOT
ATOM      1  C   UNL     1      34.454 -20.219 -20.608  0.00  0.00    -0.021 C 
ATOM      2  C   UNL     1      35.820 -20.289 -20.381  0.00  0.00    -0.001 C 
ATOM      3  C   UNL     1      33.565 -20.988 -19.871  0.00  0.00    -0.001 C 
ATOM      4  C   UNL     1      35.426 -21.923 -18.647  0.00  0.00    +0.139 C 
ATOM      5  C   UNL     1      36.310 -21.146 -19.395  0.00  0.00    +0.037 C 
ATOM      6  C   UNL     1      34.054 -21.845 -18.885  0.00  0.00    +0.037 C 
ENDROOT
BRANCH   4   7
ATOM      7  O   UNL     1      35.903 -22.761 -17.686  0.00  0.00    -0.474 OA
BRANCH   7   8
ATOM      8  C   UNL     1      35.339 -22.639 -16.381  0.00  0.00    +0.227 C 
BRANCH   8   9
ATOM      9  C   UNL     1      34.966 -24.018 -15.861  0.00  0.00    +0.140 C 
BRANCH   9  10
ATOM     10  N   UNL     1      34.212 -23.897 -14.635  0.00  0.00    -0.288 N 
ATOM     11  C   UNL     1      34.920 -24.042 -13.362  0.00  0.00    +0.114 C 
ATOM     12  N   UNL     1      32.163 -23.566 -13.468  0.00  0.00    -0.229 NA
ATOM     13  C   UNL     1      32.832 -23.659 -14.647  0.00  0.00    +0.132 C 
ATOM     14  C   UNL     1      32.206 -23.529 -15.884  0.00  0.00    +0.034 C 
ATOM     15  C   UNL     1      30.836 -23.292 -15.913  0.00  0.00    +0.004 C 
ATOM     16  C   UNL     1      30.832 -23.336 -13.535  0.00  0.00    +0.100 C 
ATOM     17  C   UNL     1      30.128 -23.193 -14.721  0.00  0.00    +0.021 C 
ENDBRANCH   9  10
ENDBRANCH   8   9
ENDBRANCH   7   8
ENDBRANCH   4   7
BRANCH   1  18
ATOM     18  C   UNL     1      33.925 -19.293 -21.674  0.00  0.00    +0.047 C 
BRANCH  18  23
ATOM     19  S   UNL     1      34.825 -18.942 -24.251  0.00  0.00    -0.048 S 
ATOM     20  O   UNL     1      35.138 -16.587 -21.210  0.00  0.00    -0.274 OA
ATOM     21  O   UNL     1      34.709 -16.822 -25.803  0.00  0.00    -0.263 OA
ATOM     22  N   UNL     1      34.941 -16.500 -23.513  0.00  0.00    -0.246 N 
ATOM     23  C   UNL     1      35.044 -18.647 -22.470  0.00  0.00    +0.137 C 
ATOM     24  C   UNL     1      35.048 -17.145 -22.298  0.00  0.00    +0.239 C 
ATOM     25  C   UNL     1      34.817 -17.239 -24.659  0.00  0.00    +0.279 C 
ATOM     26  H   UNL     1      34.955 -15.516 -23.555  0.00  0.00    +0.158 HD
ENDBRANCH  18  23
ENDBRANCH   1  18
TORSDOF 6
ENDMDL
MODEL 6
REMARK VINA RESULT:     -10.4      2.710      4.370
REMARK  Name = 77999
REMARK  6 active torsions:
REMARK  status: ('A' for Active; 'I' for Inactive)
REMARK    1  A    between atoms: C_1  and  C_18
REMARK    2  A    between atoms: C_4  and  O_7
REMARK    3  A    between atoms: O_7  and  C_8
REMARK    4  A    between atoms: C_8  and  C_9
REMARK    5  A    between atoms: C_9  and  N_10
REMARK    6  A    between atoms: C_18  and  C_23
REMARK                            x       y       z     vdW  Elec       q    Type
REMARK                         _______ _______ _______ _____ _____    ______ ____
ROOT
ATOM      1  C   UNL     1      35.274 -20.355 -20.264  0.00  0.00    -0.021 C 
ATOM      2  C   UNL     1      36.130 -21.100 -19.465  0.00  0.00    -0.001 C 
ATOM      3  C   UNL     1      33.907 -20.595 -20.267  0.00  0.00    -0.001 C 
ATOM      4  C   UNL     1      34.236 -22.355 -18.645  0.00  0.00    +0.139 C 
ATOM      5  C   UNL     1      35.608 -22.106 -18.651  0.00  0.00    +0.037 C 
ATOM      6  C   UNL     1      33.386 -21.600 -19.453  0.00  0.00    +0.037 C 
ENDROOT
BRANCH   4   7
ATOM      7  O   UNL     1      33.726 -23.338 -17.852  0.00  0.00    -0.474 OA
BRANCH   7   8
ATOM      8  C   UNL     1      34.307 -23.493 -16.558  0.00  0.00    +0.227 C 
BRANCH   8   9
ATOM      9  C   UNL     1      33.419 -22.824 -15.522  0.00  0.00    +0.140 C 
BRANCH   9  10
ATOM     10  N   UNL     1      32.533 -23.798 -14.928  0.00  0.00    -0.288 N 
ATOM     11  C   UNL     1      33.087 -24.749 -13.961  0.00  0.00    +0.114 C 
ATOM     12  N   UNL     1      30.383 -24.795 -14.690  0.00  0.00    -0.229 NA
ATOM     13  C   UNL     1      31.175 -23.854 -15.266  0.00  0.00    +0.132 C 
ATOM     14  C   UNL     1      30.698 -22.927 -16.190  0.00  0.00    +0.034 C 
ATOM     15  C   UNL     1      29.352 -22.968 -16.537  0.00  0.00    +0.004 C 
ATOM     16  C   UNL     1      29.080 -24.805 -15.051  0.00  0.00    +0.100 C 
ATOM     17  C   UNL     1      28.521 -23.922 -15.961  0.00  0.00    +0.021 C 
ENDBRANCH   9  10
ENDBRANCH   8   9
ENDBRANCH   7   8
ENDBRANCH   4   7
BRANCH   1  18
ATOM     18  C   UNL     1      35.837 -19.269 -21.143  0.00  0.00    +0.047 C 
BRANCH  18  23
ATOM     19  S   UNL     1      34.728 -16.759 -21.360  0.00  0.00    -0.048 S 
ATOM     20  O   UNL     1      35.089 -19.512 -24.040  0.00  0.00    -0.274 OA
ATOM     21  O   UNL     1      34.986 -14.961 -23.261  0.00  0.00    -0.263 OA
ATOM     22  N   UNL     1      35.050 -17.207 -23.854  0.00  0.00    -0.246 N 
ATOM     23  C   UNL     1      34.746 -18.505 -21.871  0.00  0.00    +0.137 C 
ATOM     24  C   UNL     1      34.980 -18.496 -23.364  0.00  0.00    +0.239 C 
ATOM     25  C   UNL     1      34.942 -16.151 -22.988  0.00  0.00    +0.279 C 
ATOM     26  H   UNL     1      35.176 -17.049 -24.818  0.00  0.00    +0.158 HD
ENDBRANCH  18  23
ENDBRANCH   1  18
TORSDOF 6
ENDMDL
MODEL 7
REMARK VINA RESULT:     -10.4      3.233     10.362
REMARK  Name = 77999
REMARK  6 active torsions:
REMARK  status: ('A' for Active; 'I' for Inactive)
REMARK    1  A    between atoms: C_1  and  C_18
REMARK    2  A    between atoms: C_4  and  O_7
REMARK    3  A    between atoms: O_7  and  C_8
REMARK    4  A    between atoms: C_8  and  C_9
REMARK    5  A    between atoms: C_9  and  N_10
REMARK    6  A    between atoms: C_18  and  C_23
REMARK                            x       y       z     vdW  Elec       q    Type
REMARK                         _______ _______ _______ _____ _____    ______ ____
ROOT
ATOM      1  C   UNL     1      34.017 -22.428 -18.514  0.00  0.00    -0.021 C 
ATOM      2  C   UNL     1      33.114 -21.662 -19.237  0.00  0.00    -0.001 C 
ATOM      3  C   UNL     1      35.384 -22.216 -18.622  0.00  0.00    -0.001 C 
ATOM      4  C   UNL     1      34.960 -20.438 -20.201  0.00  0.00    +0.139 C 
ATOM      5  C   UNL     1      33.588 -20.661 -20.085  0.00  0.00    +0.037 C 
ATOM      6  C   UNL     1      35.858 -21.215 -19.470  0.00  0.00    +0.037 C 
ENDROOT
BRANCH   4   7
ATOM      7  O   UNL     1      35.422 -19.462 -21.030  0.00  0.00    -0.474 OA
BRANCH   7   8
ATOM      8  C   UNL     1      34.452 -18.596 -21.619  0.00  0.00    +0.227 C 
BRANCH   8   9
ATOM      9  C   UNL     1      34.855 -17.151 -21.381  0.00  0.00    +0.140 C 
BRANCH   9  10
ATOM     10  N   UNL     1      34.416 -16.328 -22.483  0.00  0.00    -0.288 N 
ATOM     11  C   UNL     1      34.818 -16.704 -23.840  0.00  0.00    +0.114 C 
ATOM     12  N   UNL     1      33.255 -14.434 -23.343  0.00  0.00    -0.229 NA
ATOM     13  C   UNL     1      33.634 -15.184 -22.276  0.00  0.00    +0.132 C 
ATOM     14  C   UNL     1      33.278 -14.870 -20.966  0.00  0.00    +0.034 C 
ATOM     15  C   UNL     1      32.501 -13.738 -20.743  0.00  0.00    +0.004 C 
ATOM     16  C   UNL     1      32.501 -13.341 -23.088  0.00  0.00    +0.100 C 
ATOM     17  C   UNL     1      32.101 -12.953 -21.819  0.00  0.00    +0.021 C 
ENDBRANCH   9  10
ENDBRANCH   8   9
ENDBRANCH   7   8
ENDBRANCH   4   7
BRANCH   1  18
ATOM     18  C   UNL     1      33.506 -23.510 -17.598  0.00  0.00    +0.047 C 
BRANCH  18  23
ATOM     19  S   UNL     1      32.149 -23.304 -15.211  0.00  0.00    -0.048 S 
ATOM     20  O   UNL     1      35.822 -24.296 -15.858  0.00  0.00    -0.274 OA
ATOM     21  O   UNL     1      32.147 -24.912 -13.130  0.00  0.00    -0.263 OA
ATOM     22  N   UNL     1      34.101 -24.724 -14.374  0.00  0.00    -0.246 N 
ATOM     23  C   UNL     1      33.709 -23.158 -16.135  0.00  0.00    +0.137 C 
ATOM     24  C   UNL     1      34.676 -24.108 -15.467  0.00  0.00    +0.239 C 
ATOM     25  C   UNL     1      32.797 -24.451 -14.057  0.00  0.00    +0.279 C 
ATOM     26  H   UNL     1      34.624 -25.354 -13.827  0.00  0.00    +0.158 HD
ENDBRANCH  18  23
ENDBRANCH   1  18
TORSDOF 6
ENDMDL
MODEL 8
REMARK VINA RESULT:     -10.3      5.001     11.975
REMARK  Name = 77999
REMARK  6 active torsions:
REMARK  status: ('A' for Active; 'I' for Inactive)
REMARK    1  A    between atoms: C_1  and  C_18
REMARK    2  A    between atoms: C_4  and  O_7
REMARK    3  A    between atoms: O_7  and  C_8
REMARK    4  A    between atoms: C_8  and  C_9
REMARK    5  A    between atoms: C_9  and  N_10
REMARK    6  A    between atoms: C_18  and  C_23
REMARK                            x       y       z     vdW  Elec       q    Type
REMARK                         _______ _______ _______ _____ _____    ______ ____
ROOT
ATOM      1  C   UNL     1      34.751 -18.246 -23.126  0.00  0.00    -0.021 C 
ATOM      2  C   UNL     1      34.629 -17.094 -22.364  0.00  0.00    -0.001 C 
ATOM      3  C   UNL     1      34.564 -18.220 -24.501  0.00  0.00    -0.001 C 
ATOM      4  C   UNL     1      34.123 -15.848 -24.370  0.00  0.00    +0.139 C 
ATOM      5  C   UNL     1      34.313 -15.887 -22.989  0.00  0.00    +0.037 C 
ATOM      6  C   UNL     1      34.247 -17.014 -25.126  0.00  0.00    +0.037 C 
ENDROOT
BRANCH   4   7
ATOM      7  O   UNL     1      33.813 -14.671 -24.981  0.00  0.00    -0.474 OA
BRANCH   7   8
ATOM      8  C   UNL     1      33.049 -13.730 -24.228  0.00  0.00    +0.227 C 
BRANCH   8   9
ATOM      9  C   UNL     1      33.760 -12.387 -24.227  0.00  0.00    +0.140 C 
BRANCH   9  10
ATOM     10  N   UNL     1      33.079 -11.468 -23.345  0.00  0.00    -0.288 N 
ATOM     11  C   UNL     1      32.015 -11.985 -22.482  0.00  0.00    +0.114 C 
ATOM     12  N   UNL     1      32.731  -9.278 -22.476  0.00  0.00    -0.229 NA
ATOM     13  C   UNL     1      33.408 -10.107 -23.313  0.00  0.00    +0.132 C 
ATOM     14  C   UNL     1      34.428  -9.666 -24.153  0.00  0.00    +0.034 C 
ATOM     15  C   UNL     1      34.767  -8.317 -24.133  0.00  0.00    +0.004 C 
ATOM     16  C   UNL     1      33.088  -7.974 -22.484  0.00  0.00    +0.100 C 
ATOM     17  C   UNL     1      34.089  -7.448 -23.285  0.00  0.00    +0.021 C 
ENDBRANCH   9  10
ENDBRANCH   8   9
ENDBRANCH   7   8
ENDBRANCH   4   7
BRANCH   1  18
ATOM     18  C   UNL     1      35.092 -19.550 -22.451  0.00  0.00    +0.047 C 
BRANCH  18  23
ATOM     19  S   UNL     1      33.046 -20.098 -20.693  0.00  0.00    -0.048 S 
ATOM     20  O   UNL     1      36.858 -20.406 -20.180  0.00  0.00    -0.274 OA
ATOM     21  O   UNL     1      32.724 -22.137 -19.064  0.00  0.00    -0.263 OA
ATOM     22  N   UNL     1      34.886 -21.400 -19.492  0.00  0.00    -0.246 N 
ATOM     23  C   UNL     1      34.751 -19.529 -20.972  0.00  0.00    +0.137 C 
ATOM     24  C   UNL     1      35.634 -20.472 -20.188  0.00  0.00    +0.239 C 
ATOM     25  C   UNL     1      33.521 -21.387 -19.608  0.00  0.00    +0.279 C 
ATOM     26  H   UNL     1      35.329 -22.065 -18.917  0.00  0.00    +0.158 HD
ENDBRANCH  18  23
ENDBRANCH   1  18
TORSDOF 6
ENDMDL
MODEL 9
REMARK VINA RESULT:     -10.3      1.666      2.060
REMARK  Name = 77999
REMARK  6 active torsions:
REMARK  status: ('A' for Active; 'I' for Inactive)
REMARK    1  A    between atoms: C_1  and  C_18
REMARK    2  A    between atoms: C_4  and  O_7
REMARK    3  A    between atoms: O_7  and  C_8
REMARK    4  A    between atoms: C_8  and  C_9
REMARK    5  A    between atoms: C_9  and  N_10
REMARK    6  A    between atoms: C_18  and  C_23
REMARK                            x       y       z     vdW  Elec       q    Type
REMARK                         _______ _______ _______ _____ _____    ______ ____
ROOT
ATOM      1  C   UNL     1      35.195 -19.983 -20.575  0.00  0.00    -0.021 C 
ATOM      2  C   UNL     1      36.084 -20.915 -20.061  0.00  0.00    -0.001 C 
ATOM      3  C   UNL     1      33.824 -20.161 -20.461  0.00  0.00    -0.001 C 
ATOM      4  C   UNL     1      34.215 -22.242 -19.298  0.00  0.00    +0.139 C 
ATOM      5  C   UNL     1      35.592 -22.052 -19.419  0.00  0.00    +0.037 C 
ATOM      6  C   UNL     1      33.332 -21.298 -19.819  0.00  0.00    +0.037 C 
ENDROOT
BRANCH   4   7
ATOM      7  O   UNL     1      33.735 -23.352 -18.672  0.00  0.00    -0.474 OA
BRANCH   7   8
ATOM      8  C   UNL     1      33.242 -23.185 -17.343  0.00  0.00    +0.227 C 
BRANCH   8   9
ATOM      9  C   UNL     1      34.410 -23.164 -16.371  0.00  0.00    +0.140 C 
BRANCH   9  10
ATOM     10  N   UNL     1      33.957 -23.521 -15.047  0.00  0.00    -0.288 N 
ATOM     11  C   UNL     1      32.516 -23.550 -14.784  0.00  0.00    +0.114 C 
ATOM     12  N   UNL     1      34.389 -24.141 -12.788  0.00  0.00    -0.229 NA
ATOM     13  C   UNL     1      34.862 -23.823 -14.021  0.00  0.00    +0.132 C 
ATOM     14  C   UNL     1      36.221 -23.782 -14.322  0.00  0.00    +0.034 C 
ATOM     15  C   UNL     1      37.133 -24.079 -13.316  0.00  0.00    +0.004 C 
ATOM     16  C   UNL     1      35.305 -24.424 -11.834  0.00  0.00    +0.100 C 
ATOM     17  C   UNL     1      36.675 -24.407 -12.045  0.00  0.00    +0.021 C 
ENDBRANCH   9  10
ENDBRANCH   8   9
ENDBRANCH   7   8
ENDBRANCH   4   7
BRANCH   1  18
ATOM     18  C   UNL     1      35.726 -18.755 -21.269  0.00  0.00    +0.047 C 
BRANCH  18  23
ATOM     19  S   UNL     1      34.492 -16.300 -21.437  0.00  0.00    -0.048 S 
ATOM     20  O   UNL     1      35.163 -18.895 -24.214  0.00  0.00    -0.274 OA
ATOM     21  O   UNL     1      34.759 -14.400 -23.235  0.00  0.00    -0.263 OA
ATOM     22  N   UNL     1      34.983 -16.607 -23.925  0.00  0.00    -0.246 N 
ATOM     23  C   UNL     1      34.638 -18.015 -22.026  0.00  0.00    +0.137 C 
ATOM     24  C   UNL     1      34.958 -17.920 -23.500  0.00  0.00    +0.239 C 
ATOM     25  C   UNL     1      34.766 -15.602 -23.020  0.00  0.00    +0.279 C 
ATOM     26  H   UNL     1      35.156 -16.395 -24.871  0.00  0.00    +0.158 HD
ENDBRANCH  18  23
ENDBRANCH   1  18
TORSDOF 6
ENDMDL
