MODEL 1
REMARK VINA RESULT:      -8.4      0.000      0.000
REMARK  Name = 4134
REMARK  10 active torsions:
REMARK  status: ('A' for Active; 'I' for Inactive)
REMARK    1  A    between atoms: C_1  and  C_2
REMARK    2  A    between atoms: C_1  and  C_8
REMARK    3  A    between atoms: C_1  and  O_14
REMARK    4  A    between atoms: C_1  and  C_17
REMARK    5  A    between atoms: C_17  and  O_18
REMARK    6  A    between atoms: O_18  and  C_19
REMARK    7  A    between atoms: C_19  and  C_20
REMARK    8  A    between atoms: C_20  and  N_21
REMARK    9  A    between atoms: N_21  and  C_23
REMARK   10  A    between atoms: N_21  and  C_25
REMARK                            x       y       z     vdW  Elec       q    Type
REMARK                         _______ _______ _______ _____ _____    ______ ____
ROOT
ATOM      1  C   UNL     1      34.942 -18.180 -21.833  0.00  0.00    +0.216 C 
ENDROOT
BRANCH   1   2
ATOM      2  C   UNL     1      34.190 -16.983 -21.246  0.00  0.00    +0.016 C 
ATOM      3  C   UNL     1      34.916 -15.901 -20.807  0.00  0.00    -0.001 C 
ATOM      4  C   UNL     1      32.817 -17.037 -21.180  0.00  0.00    -0.001 C 
ATOM      5  C   UNL     1      34.231 -14.810 -20.272  0.00  0.00    -0.000 C 
ATOM      6  C   UNL     1      32.132 -15.946 -20.646  0.00  0.00    -0.000 C 
ATOM      7  C   UNL     1      32.839 -14.832 -20.191  0.00  0.00    -0.000 C 
ENDBRANCH   1   2
BRANCH   1   8
ATOM      8  C   UNL     1      34.690 -19.443 -21.004  0.00  0.00    +0.016 C 
ATOM      9  C   UNL     1      35.774 -20.167 -20.563  0.00  0.00    -0.001 C 
ATOM     10  C   UNL     1      33.391 -19.803 -20.732  0.00  0.00    -0.001 C 
ATOM     11  C   UNL     1      35.545 -21.317 -19.807  0.00  0.00    -0.000 C 
ATOM     12  C   UNL     1      33.162 -20.953 -19.976  0.00  0.00    -0.000 C 
ATOM     13  C   UNL     1      34.240 -21.711 -19.514  0.00  0.00    -0.000 C 
ENDBRANCH   1   8
BRANCH   1  14
ATOM     14  O   UNL     1      36.353 -17.889 -21.881  0.00  0.00    -0.370 OA
ATOM     15  H   UNL     1      36.849 -18.713 -22.005  0.00  0.00    +0.212 HD
ENDBRANCH   1  14
BRANCH   1  17
ATOM     16  O   UNL     1      34.115 -19.315 -23.837  0.00  0.00    -0.247 OA
ATOM     17  C   UNL     1      34.690 -18.359 -23.332  0.00  0.00    +0.349 C 
BRANCH  17  18
ATOM     18  O   UNL     1      35.165 -17.280 -24.039  0.00  0.00    -0.449 OA
BRANCH  18  19
ATOM     19  C   UNL     1      34.184 -16.393 -24.560  0.00  0.00    +0.187 C 
BRANCH  19  20
ATOM     20  C   UNL     1      34.521 -14.970 -24.159  0.00  0.00    -0.025 C 
BRANCH  20  21
ATOM     21  N   UNL     1      33.434 -14.034 -24.667  0.00  0.00    +0.391 N 
ATOM     22  C   UNL     1      34.008 -12.635 -24.838  0.00  0.00    -0.096 C 
BRANCH  21  23
ATOM     23  C   UNL     1      32.290 -13.994 -23.663  0.00  0.00    -0.073 C 
ATOM     24  C   UNL     1      32.346 -12.692 -22.896  0.00  0.00    -0.024 C 
ENDBRANCH  21  23
BRANCH  21  25
ATOM     25  C   UNL     1      32.917 -14.538 -26.007  0.00  0.00    -0.073 C 
ATOM     26  C   UNL     1      33.132 -13.471 -27.057  0.00  0.00    -0.024 C 
ENDBRANCH  21  25
ENDBRANCH  20  21
ENDBRANCH  19  20
ENDBRANCH  18  19
ENDBRANCH  17  18
ENDBRANCH   1  17
TORSDOF 10
ENDMDL
MODEL 2
REMARK VINA RESULT:      -8.2      1.515      4.176
REMARK  Name = 4134
REMARK  10 active torsions:
REMARK  status: ('A' for Active; 'I' for Inactive)
REMARK    1  A    between atoms: C_1  and  C_2
REMARK    2  A    between atoms: C_1  and  C_8
REMARK    3  A    between atoms: C_1  and  O_14
REMARK    4  A    between atoms: C_1  and  C_17
REMARK    5  A    between atoms: C_17  and  O_18
REMARK    6  A    between atoms: O_18  and  C_19
REMARK    7  A    between atoms: C_19  and  C_20
REMARK    8  A    between atoms: C_20  and  N_21
REMARK    9  A    between atoms: N_21  and  C_23
REMARK   10  A    between atoms: N_21  and  C_25
REMARK                            x       y       z     vdW  Elec       q    Type
REMARK                         _______ _______ _______ _____ _____    ______ ____
ROOT
ATOM      1  C   UNL     1      35.187 -18.101 -21.575  0.00  0.00    +0.216 C 
ENDROOT
BRANCH   1   2
ATOM      2  C   UNL     1      34.606 -19.324 -20.861  0.00  0.00    +0.016 C 
ATOM      3  C   UNL     1      35.474 -20.272 -20.369  0.00  0.00    -0.001 C 
ATOM      4  C   UNL     1      33.240 -19.429 -20.741  0.00  0.00    -0.001 C 
ATOM      5  C   UNL     1      34.945 -21.387 -19.718  0.00  0.00    -0.000 C 
ATOM      6  C   UNL     1      32.712 -20.544 -20.090  0.00  0.00    -0.000 C 
ATOM      7  C   UNL     1      33.564 -21.524 -19.579  0.00  0.00    -0.000 C 
ENDBRANCH   1   2
BRANCH   1   8
ATOM      8  C   UNL     1      34.918 -18.169 -23.081  0.00  0.00    +0.016 C 
ATOM      9  C   UNL     1      35.010 -17.010 -23.818  0.00  0.00    -0.001 C 
ATOM     10  C   UNL     1      34.597 -19.384 -23.638  0.00  0.00    -0.001 C 
ATOM     11  C   UNL     1      34.766 -17.072 -25.190  0.00  0.00    -0.000 C 
ATOM     12  C   UNL     1      34.354 -19.446 -25.011  0.00  0.00    -0.000 C 
ATOM     13  C   UNL     1      34.438 -18.289 -25.787  0.00  0.00    -0.000 C 
ENDBRANCH   1   8
BRANCH   1  14
ATOM     14  O   UNL     1      36.604 -18.021 -21.325  0.00  0.00    -0.370 OA
ATOM     15  H   UNL     1      37.052 -17.671 -22.110  0.00  0.00    +0.212 HD
ENDBRANCH   1  14
BRANCH   1  17
ATOM     16  O   UNL     1      35.288 -16.285 -19.937  0.00  0.00    -0.247 OA
ATOM     17  C   UNL     1      34.761 -16.782 -20.925  0.00  0.00    +0.349 C 
BRANCH  17  18
ATOM     18  O   UNL     1      33.726 -16.206 -21.623  0.00  0.00    -0.449 OA
BRANCH  18  19
ATOM     19  C   UNL     1      33.508 -14.821 -21.389  0.00  0.00    +0.187 C 
BRANCH  19  20
ATOM     20  C   UNL     1      34.213 -14.009 -22.457  0.00  0.00    -0.025 C 
BRANCH  20  21
ATOM     21  N   UNL     1      33.181 -13.225 -23.255  0.00  0.00    +0.391 N 
ATOM     22  C   UNL     1      32.788 -14.019 -24.492  0.00  0.00    -0.096 C 
BRANCH  21  23
ATOM     23  C   UNL     1      33.773 -11.888 -23.676  0.00  0.00    -0.073 C 
ATOM     24  C   UNL     1      33.903 -11.853 -25.182  0.00  0.00    -0.024 C 
ENDBRANCH  21  23
BRANCH  21  25
ATOM     25  C   UNL     1      31.949 -12.987 -22.393  0.00  0.00    -0.073 C 
ATOM     26  C   UNL     1      31.795 -11.503 -22.143  0.00  0.00    -0.024 C 
ENDBRANCH  21  25
ENDBRANCH  20  21
ENDBRANCH  19  20
ENDBRANCH  18  19
ENDBRANCH  17  18
ENDBRANCH   1  17
TORSDOF 10
ENDMDL
MODEL 3
REMARK VINA RESULT:      -8.0      1.520      4.049
REMARK  Name = 4134
REMARK  10 active torsions:
REMARK  status: ('A' for Active; 'I' for Inactive)
REMARK    1  A    between atoms: C_1  and  C_2
REMARK    2  A    between atoms: C_1  and  C_8
REMARK    3  A    between atoms: C_1  and  O_14
REMARK    4  A    between atoms: C_1  and  C_17
REMARK    5  A    between atoms: C_17  and  O_18
REMARK    6  A    between atoms: O_18  and  C_19
REMARK    7  A    between atoms: C_19  and  C_20
REMARK    8  A    between atoms: C_20  and  N_21
REMARK    9  A    between atoms: N_21  and  C_23
REMARK   10  A    between atoms: N_21  and  C_25
REMARK                            x       y       z     vdW  Elec       q    Type
REMARK                         _______ _______ _______ _____ _____    ______ ____
ROOT
ATOM      1  C   UNL     1      34.786 -18.122 -21.415  0.00  0.00    +0.216 C 
ENDROOT
BRANCH   1   2
ATOM      2  C   UNL     1      34.419 -19.433 -20.716  0.00  0.00    +0.016 C 
ATOM      3  C   UNL     1      33.088 -19.743 -20.556  0.00  0.00    -0.001 C 
ATOM      4  C   UNL     1      35.433 -20.249 -20.274  0.00  0.00    -0.001 C 
ATOM      5  C   UNL     1      32.753 -20.938 -19.919  0.00  0.00    -0.000 C 
ATOM      6  C   UNL     1      35.098 -21.444 -19.636  0.00  0.00    -0.000 C 
ATOM      7  C   UNL     1      33.758 -21.788 -19.458  0.00  0.00    -0.000 C 
ENDBRANCH   1   2
BRANCH   1   8
ATOM      8  C   UNL     1      34.743 -18.285 -22.938  0.00  0.00    +0.016 C 
ATOM      9  C   UNL     1      34.748 -19.557 -23.463  0.00  0.00    -0.001 C 
ATOM     10  C   UNL     1      34.697 -17.155 -23.720  0.00  0.00    -0.001 C 
ATOM     11  C   UNL     1      34.708 -19.705 -24.850  0.00  0.00    -0.000 C 
ATOM     12  C   UNL     1      34.657 -17.304 -25.106  0.00  0.00    -0.000 C 
ATOM     13  C   UNL     1      34.662 -18.580 -25.671  0.00  0.00    -0.000 C 
ENDBRANCH   1   8
BRANCH   1  14
ATOM     14  O   UNL     1      36.100 -17.701 -20.997  0.00  0.00    -0.370 OA
ATOM     15  H   UNL     1      36.653 -18.480 -20.835  0.00  0.00    +0.212 HD
ENDBRANCH   1  14
BRANCH   1  17
ATOM     16  O   UNL     1      32.761 -16.898 -20.791  0.00  0.00    -0.247 OA
ATOM     17  C   UNL     1      33.982 -16.929 -20.894  0.00  0.00    +0.349 C 
BRANCH  17  18
ATOM     18  O   UNL     1      34.817 -15.903 -20.521  0.00  0.00    -0.449 OA
BRANCH  18  19
ATOM     19  C   UNL     1      34.334 -14.587 -20.755  0.00  0.00    +0.187 C 
BRANCH  19  20
ATOM     20  C   UNL     1      34.490 -14.243 -22.223  0.00  0.00    -0.025 C 
BRANCH  20  21
ATOM     21  N   UNL     1      33.241 -13.519 -22.705  0.00  0.00    +0.391 N 
ATOM     22  C   UNL     1      33.634 -12.187 -23.325  0.00  0.00    -0.096 C 
BRANCH  21  23
ATOM     23  C   UNL     1      32.310 -13.275 -21.526  0.00  0.00    -0.073 C 
ATOM     24  C   UNL     1      31.605 -11.950 -21.714  0.00  0.00    -0.024 C 
ENDBRANCH  21  23
BRANCH  21  25
ATOM     25  C   UNL     1      32.530 -14.373 -23.745  0.00  0.00    -0.073 C 
ATOM     26  C   UNL     1      33.051 -14.019 -25.121  0.00  0.00    -0.024 C 
ENDBRANCH  21  25
ENDBRANCH  20  21
ENDBRANCH  19  20
ENDBRANCH  18  19
ENDBRANCH  17  18
ENDBRANCH   1  17
TORSDOF 10
ENDMDL
MODEL 4
REMARK VINA RESULT:      -8.0      2.244      6.938
REMARK  Name = 4134
REMARK  10 active torsions:
REMARK  status: ('A' for Active; 'I' for Inactive)
REMARK    1  A    between atoms: C_1  and  C_2
REMARK    2  A    between atoms: C_1  and  C_8
REMARK    3  A    between atoms: C_1  and  O_14
REMARK    4  A    between atoms: C_1  and  C_17
REMARK    5  A    between atoms: C_17  and  O_18
REMARK    6  A    between atoms: O_18  and  C_19
REMARK    7  A    between atoms: C_19  and  C_20
REMARK    8  A    between atoms: C_20  and  N_21
REMARK    9  A    between atoms: N_21  and  C_23
REMARK   10  A    between atoms: N_21  and  C_25
REMARK                            x       y       z     vdW  Elec       q    Type
REMARK                         _______ _______ _______ _____ _____    ______ ____
ROOT
ATOM      1  C   UNL     1      33.486 -13.733 -22.602  0.00  0.00    +0.216 C 
ENDROOT
BRANCH   1   2
ATOM      2  C   UNL     1      33.397 -13.589 -24.123  0.00  0.00    +0.016 C 
ATOM      3  C   UNL     1      32.911 -14.648 -24.856  0.00  0.00    -0.001 C 
ATOM      4  C   UNL     1      33.805 -12.409 -24.698  0.00  0.00    -0.001 C 
ATOM      5  C   UNL     1      32.829 -14.517 -26.242  0.00  0.00    -0.000 C 
ATOM      6  C   UNL     1      33.723 -12.278 -26.084  0.00  0.00    -0.000 C 
ATOM      7  C   UNL     1      33.235 -13.333 -26.857  0.00  0.00    -0.000 C 
ENDBRANCH   1   2
BRANCH   1   8
ATOM      8  C   UNL     1      32.547 -12.745 -21.904  0.00  0.00    +0.016 C 
ATOM      9  C   UNL     1      31.828 -11.863 -22.678  0.00  0.00    -0.001 C 
ATOM     10  C   UNL     1      32.457 -12.779 -20.533  0.00  0.00    -0.001 C 
ATOM     11  C   UNL     1      30.972 -10.963 -22.042  0.00  0.00    -0.000 C 
ATOM     12  C   UNL     1      31.600 -11.879 -19.897  0.00  0.00    -0.000 C 
ATOM     13  C   UNL     1      30.858 -10.971 -20.653  0.00  0.00    -0.000 C 
ENDBRANCH   1   8
BRANCH   1  14
ATOM     14  O   UNL     1      34.846 -13.515 -22.174  0.00  0.00    -0.370 OA
ATOM     15  H   UNL     1      34.997 -12.565 -22.050  0.00  0.00    +0.212 HD
ENDBRANCH   1  14
BRANCH   1  17
ATOM     16  O   UNL     1      32.255 -15.719 -21.877  0.00  0.00    -0.247 OA
ATOM     17  C   UNL     1      33.325 -15.181 -22.135  0.00  0.00    +0.349 C 
BRANCH  17  18
ATOM     18  O   UNL     1      34.543 -15.814 -22.077  0.00  0.00    -0.449 OA
BRANCH  18  19
ATOM     19  C   UNL     1      34.732 -16.709 -20.989  0.00  0.00    +0.187 C 
BRANCH  19  20
ATOM     20  C   UNL     1      35.645 -17.841 -21.415  0.00  0.00    -0.025 C 
BRANCH  20  21
ATOM     21  N   UNL     1      34.820 -19.104 -21.616  0.00  0.00    +0.391 N 
ATOM     22  C   UNL     1      34.647 -19.366 -23.105  0.00  0.00    -0.096 C 
BRANCH  21  23
ATOM     23  C   UNL     1      33.454 -18.926 -20.970  0.00  0.00    -0.073 C 
ATOM     24  C   UNL     1      33.003 -20.246 -20.385  0.00  0.00    -0.024 C 
ENDBRANCH  21  23
BRANCH  21  25
ATOM     25  C   UNL     1      35.536 -20.285 -20.974  0.00  0.00    -0.073 C 
ATOM     26  C   UNL     1      36.828 -19.805 -20.351  0.00  0.00    -0.024 C 
ENDBRANCH  21  25
ENDBRANCH  20  21
ENDBRANCH  19  20
ENDBRANCH  18  19
ENDBRANCH  17  18
ENDBRANCH   1  17
TORSDOF 10
ENDMDL
MODEL 5
REMARK VINA RESULT:      -7.9      2.269      6.815
REMARK  Name = 4134
REMARK  10 active torsions:
REMARK  status: ('A' for Active; 'I' for Inactive)
REMARK    1  A    between atoms: C_1  and  C_2
REMARK    2  A    between atoms: C_1  and  C_8
REMARK    3  A    between atoms: C_1  and  O_14
REMARK    4  A    between atoms: C_1  and  C_17
REMARK    5  A    between atoms: C_17  and  O_18
REMARK    6  A    between atoms: O_18  and  C_19
REMARK    7  A    between atoms: C_19  and  C_20
REMARK    8  A    between atoms: C_20  and  N_21
REMARK    9  A    between atoms: N_21  and  C_23
REMARK   10  A    between atoms: N_21  and  C_25
REMARK                            x       y       z     vdW  Elec       q    Type
REMARK                         _______ _______ _______ _____ _____    ______ ____
ROOT
ATOM      1  C   UNL     1      33.474 -13.689 -22.566  0.00  0.00    +0.216 C 
ENDROOT
BRANCH   1   2
ATOM      2  C   UNL     1      33.395 -13.528 -24.086  0.00  0.00    +0.016 C 
ATOM      3  C   UNL     1      33.812 -12.341 -24.643  0.00  0.00    -0.001 C 
ATOM      4  C   UNL     1      32.911 -14.574 -24.835  0.00  0.00    -0.001 C 
ATOM      5  C   UNL     1      33.741 -12.193 -26.029  0.00  0.00    -0.000 C 
ATOM      6  C   UNL     1      32.841 -14.427 -26.220  0.00  0.00    -0.000 C 
ATOM      7  C   UNL     1      33.255 -13.236 -26.817  0.00  0.00    -0.000 C 
ENDBRANCH   1   2
BRANCH   1   8
ATOM      8  C   UNL     1      32.523 -12.715 -21.864  0.00  0.00    +0.016 C 
ATOM      9  C   UNL     1      32.460 -12.733 -20.489  0.00  0.00    -0.001 C 
ATOM     10  C   UNL     1      31.772 -11.858 -22.634  0.00  0.00    -0.001 C 
ATOM     11  C   UNL     1      31.595 -11.845 -19.850  0.00  0.00    -0.000 C 
ATOM     12  C   UNL     1      30.906 -10.970 -21.994  0.00  0.00    -0.000 C 
ATOM     13  C   UNL     1      30.818 -10.964 -20.601  0.00  0.00    -0.000 C 
ENDBRANCH   1   8
BRANCH   1  14
ATOM     14  O   UNL     1      34.828 -13.469 -22.124  0.00  0.00    -0.370 OA
ATOM     15  H   UNL     1      35.179 -14.286 -21.738  0.00  0.00    +0.212 HD
ENDBRANCH   1  14
BRANCH   1  17
ATOM     16  O   UNL     1      32.254 -15.670 -21.805  0.00  0.00    -0.247 OA
ATOM     17  C   UNL     1      33.316 -15.144 -22.118  0.00  0.00    +0.349 C 
BRANCH  17  18
ATOM     18  O   UNL     1      34.525 -15.797 -22.147  0.00  0.00    -0.449 OA
BRANCH  18  19
ATOM     19  C   UNL     1      34.754 -16.736 -21.104  0.00  0.00    +0.187 C 
BRANCH  19  20
ATOM     20  C   UNL     1      35.686 -17.825 -21.597  0.00  0.00    -0.025 C 
BRANCH  20  21
ATOM     21  N   UNL     1      34.947 -19.155 -21.601  0.00  0.00    +0.391 N 
ATOM     22  C   UNL     1      35.658 -20.134 -20.679  0.00  0.00    -0.096 C 
BRANCH  21  23
ATOM     23  C   UNL     1      34.921 -19.717 -23.015  0.00  0.00    -0.073 C 
ATOM     24  C   UNL     1      34.727 -18.583 -23.998  0.00  0.00    -0.024 C 
ENDBRANCH  21  23
BRANCH  21  25
ATOM     25  C   UNL     1      33.521 -18.943 -21.112  0.00  0.00    -0.073 C 
ATOM     26  C   UNL     1      33.031 -20.207 -20.441  0.00  0.00    -0.024 C 
ENDBRANCH  21  25
ENDBRANCH  20  21
ENDBRANCH  19  20
ENDBRANCH  18  19
ENDBRANCH  17  18
ENDBRANCH   1  17
TORSDOF 10
ENDMDL
MODEL 6
REMARK VINA RESULT:      -7.8      2.386      6.664
REMARK  Name = 4134
REMARK  10 active torsions:
REMARK  status: ('A' for Active; 'I' for Inactive)
REMARK    1  A    between atoms: C_1  and  C_2
REMARK    2  A    between atoms: C_1  and  C_8
REMARK    3  A    between atoms: C_1  and  O_14
REMARK    4  A    between atoms: C_1  and  C_17
REMARK    5  A    between atoms: C_17  and  O_18
REMARK    6  A    between atoms: O_18  and  C_19
REMARK    7  A    between atoms: C_19  and  C_20
REMARK    8  A    between atoms: C_20  and  N_21
REMARK    9  A    between atoms: N_21  and  C_23
REMARK   10  A    between atoms: N_21  and  C_25
REMARK                            x       y       z     vdW  Elec       q    Type
REMARK                         _______ _______ _______ _____ _____    ______ ____
ROOT
ATOM      1  C   UNL     1      32.844 -13.826 -22.255  0.00  0.00    +0.216 C 
ENDROOT
BRANCH   1   2
ATOM      2  C   UNL     1      32.152 -12.695 -21.490  0.00  0.00    +0.016 C 
ATOM      3  C   UNL     1      31.432 -11.763 -22.203  0.00  0.00    -0.001 C 
ATOM      4  C   UNL     1      32.278 -12.653 -20.121  0.00  0.00    -0.001 C 
ATOM      5  C   UNL     1      30.801 -10.733 -21.506  0.00  0.00    -0.000 C 
ATOM      6  C   UNL     1      31.646 -11.622 -19.425  0.00  0.00    -0.000 C 
ATOM      7  C   UNL     1      30.908 -10.661 -20.117  0.00  0.00    -0.000 C 
ENDBRANCH   1   2
BRANCH   1   8
ATOM      8  C   UNL     1      33.119 -13.416 -23.705  0.00  0.00    +0.016 C 
ATOM      9  C   UNL     1      32.789 -14.296 -24.710  0.00  0.00    -0.001 C 
ATOM     10  C   UNL     1      33.682 -12.185 -23.946  0.00  0.00    -0.001 C 
ATOM     11  C   UNL     1      33.038 -13.923 -26.031  0.00  0.00    -0.000 C 
ATOM     12  C   UNL     1      33.932 -11.812 -25.267  0.00  0.00    -0.000 C 
ATOM     13  C   UNL     1      33.610 -12.682 -26.310  0.00  0.00    -0.000 C 
ENDBRANCH   1   8
BRANCH   1  14
ATOM     14  O   UNL     1      32.022 -15.009 -22.219  0.00  0.00    -0.370 OA
ATOM     15  H   UNL     1      32.432 -15.671 -21.641  0.00  0.00    +0.212 HD
ENDBRANCH   1  14
BRANCH   1  17
ATOM     16  O   UNL     1      35.175 -13.842 -21.510  0.00  0.00    -0.247 OA
ATOM     17  C   UNL     1      34.071 -14.372 -21.519  0.00  0.00    +0.349 C 
BRANCH  17  18
ATOM     18  O   UNL     1      33.758 -15.523 -20.837  0.00  0.00    -0.449 OA
BRANCH  18  19
ATOM     19  C   UNL     1      34.739 -16.551 -20.862  0.00  0.00    +0.187 C 
BRANCH  19  20
ATOM     20  C   UNL     1      34.749 -17.211 -22.227  0.00  0.00    -0.025 C 
BRANCH  20  21
ATOM     21  N   UNL     1      34.941 -18.711 -22.057  0.00  0.00    +0.391 N 
ATOM     22  C   UNL     1      36.228 -18.975 -21.290  0.00  0.00    -0.096 C 
BRANCH  21  23
ATOM     23  C   UNL     1      35.022 -19.370 -23.427  0.00  0.00    -0.073 C 
ATOM     24  C   UNL     1      34.664 -18.355 -24.490  0.00  0.00    -0.024 C 
ENDBRANCH  21  23
BRANCH  21  25
ATOM     25  C   UNL     1      33.763 -19.289 -21.284  0.00  0.00    -0.073 C 
ATOM     26  C   UNL     1      34.262 -20.366 -20.347  0.00  0.00    -0.024 C 
ENDBRANCH  21  25
ENDBRANCH  20  21
ENDBRANCH  19  20
ENDBRANCH  18  19
ENDBRANCH  17  18
ENDBRANCH   1  17
TORSDOF 10
ENDMDL
MODEL 7
REMARK VINA RESULT:      -7.7      6.642     11.026
REMARK  Name = 4134
REMARK  10 active torsions:
REMARK  status: ('A' for Active; 'I' for Inactive)
REMARK    1  A    between atoms: C_1  and  C_2
REMARK    2  A    between atoms: C_1  and  C_8
REMARK    3  A    between atoms: C_1  and  O_14
REMARK    4  A    between atoms: C_1  and  C_17
REMARK    5  A    between atoms: C_17  and  O_18
REMARK    6  A    between atoms: O_18  and  C_19
REMARK    7  A    between atoms: C_19  and  C_20
REMARK    8  A    between atoms: C_20  and  N_21
REMARK    9  A    between atoms: N_21  and  C_23
REMARK   10  A    between atoms: N_21  and  C_25
REMARK                            x       y       z     vdW  Elec       q    Type
REMARK                         _______ _______ _______ _____ _____    ______ ____
ROOT
ATOM      1  C   UNL     1      33.755 -23.309 -17.176  0.00  0.00    +0.216 C 
ENDROOT
BRANCH   1   2
ATOM      2  C   UNL     1      32.456 -23.087 -16.397  0.00  0.00    +0.016 C 
ATOM      3  C   UNL     1      32.526 -22.925 -15.033  0.00  0.00    -0.001 C 
ATOM      4  C   UNL     1      31.270 -23.058 -17.092  0.00  0.00    -0.001 C 
ATOM      5  C   UNL     1      31.343 -22.722 -14.323  0.00  0.00    -0.000 C 
ATOM      6  C   UNL     1      30.086 -22.855 -16.382  0.00  0.00    -0.000 C 
ATOM      7  C   UNL     1      30.122 -22.688 -14.997  0.00  0.00    -0.000 C 
ENDBRANCH   1   2
BRANCH   1   8
ATOM      8  C   UNL     1      33.900 -22.280 -18.300  0.00  0.00    +0.016 C 
ATOM      9  C   UNL     1      35.160 -22.002 -18.779  0.00  0.00    -0.001 C 
ATOM     10  C   UNL     1      32.766 -21.675 -18.790  0.00  0.00    -0.001 C 
ATOM     11  C   UNL     1      35.292 -21.065 -19.804  0.00  0.00    -0.000 C 
ATOM     12  C   UNL     1      32.898 -20.738 -19.815  0.00  0.00    -0.000 C 
ATOM     13  C   UNL     1      34.162 -20.433 -20.322  0.00  0.00    -0.000 C 
ENDBRANCH   1   8
BRANCH   1  14
ATOM     14  O   UNL     1      33.773 -24.645 -17.718  0.00  0.00    -0.370 OA
ATOM     15  H   UNL     1      33.094 -24.724 -18.405  0.00  0.00    +0.212 HD
ENDBRANCH   1  14
BRANCH   1  17
ATOM     16  O   UNL     1      35.569 -22.456 -15.772  0.00  0.00    -0.247 OA
ATOM     17  C   UNL     1      34.980 -23.411 -16.264  0.00  0.00    +0.349 C 
BRANCH  17  18
ATOM     18  O   UNL     1      35.313 -24.726 -16.039  0.00  0.00    -0.449 OA
BRANCH  18  19
ATOM     19  C   UNL     1      35.737 -25.046 -14.721  0.00  0.00    +0.187 C 
BRANCH  19  20
ATOM     20  C   UNL     1      37.194 -25.466 -14.744  0.00  0.00    -0.025 C 
BRANCH  20  21
ATOM     21  N   UNL     1      37.845 -25.093 -13.420  0.00  0.00    +0.391 N 
ATOM     22  C   UNL     1      37.291 -25.980 -12.315  0.00  0.00    -0.096 C 
BRANCH  21  23
ATOM     23  C   UNL     1      37.546 -23.636 -13.100  0.00  0.00    -0.073 C 
ATOM     24  C   UNL     1      37.184 -23.512 -11.636  0.00  0.00    -0.024 C 
ENDBRANCH  21  23
BRANCH  21  25
ATOM     25  C   UNL     1      39.351 -25.292 -13.523  0.00  0.00    -0.073 C 
ATOM     26  C   UNL     1      39.759 -25.267 -14.979  0.00  0.00    -0.024 C 
ENDBRANCH  21  25
ENDBRANCH  20  21
ENDBRANCH  19  20
ENDBRANCH  18  19
ENDBRANCH  17  18
ENDBRANCH   1  17
TORSDOF 10
ENDMDL
MODEL 8
REMARK VINA RESULT:      -7.7      6.556     11.007
REMARK  Name = 4134
REMARK  10 active torsions:
REMARK  status: ('A' for Active; 'I' for Inactive)
REMARK    1  A    between atoms: C_1  and  C_2
REMARK    2  A    between atoms: C_1  and  C_8
REMARK    3  A    between atoms: C_1  and  O_14
REMARK    4  A    between atoms: C_1  and  C_17
REMARK    5  A    between atoms: C_17  and  O_18
REMARK    6  A    between atoms: O_18  and  C_19
REMARK    7  A    between atoms: C_19  and  C_20
REMARK    8  A    between atoms: C_20  and  N_21
REMARK    9  A    between atoms: N_21  and  C_23
REMARK   10  A    between atoms: N_21  and  C_25
REMARK                            x       y       z     vdW  Elec       q    Type
REMARK                         _______ _______ _______ _____ _____    ______ ____
ROOT
ATOM      1  C   UNL     1      33.725 -23.298 -17.202  0.00  0.00    +0.216 C 
ENDROOT
BRANCH   1   2
ATOM      2  C   UNL     1      32.431 -23.078 -16.415  0.00  0.00    +0.016 C 
ATOM      3  C   UNL     1      32.512 -22.887 -15.055  0.00  0.00    -0.001 C 
ATOM      4  C   UNL     1      31.237 -23.080 -17.097  0.00  0.00    -0.001 C 
ATOM      5  C   UNL     1      31.333 -22.686 -14.337  0.00  0.00    -0.000 C 
ATOM      6  C   UNL     1      30.058 -22.879 -16.380  0.00  0.00    -0.000 C 
ATOM      7  C   UNL     1      30.105 -22.683 -14.999  0.00  0.00    -0.000 C 
ENDBRANCH   1   2
BRANCH   1   8
ATOM      8  C   UNL     1      33.860 -22.269 -18.328  0.00  0.00    +0.016 C 
ATOM      9  C   UNL     1      32.724 -21.641 -18.785  0.00  0.00    -0.001 C 
ATOM     10  C   UNL     1      35.111 -22.012 -18.838  0.00  0.00    -0.001 C 
ATOM     11  C   UNL     1      32.847 -20.704 -19.811  0.00  0.00    -0.000 C 
ATOM     12  C   UNL     1      35.234 -21.074 -19.864  0.00  0.00    -0.000 C 
ATOM     13  C   UNL     1      34.101 -20.420 -20.350  0.00  0.00    -0.000 C 
ENDBRANCH   1   8
BRANCH   1  14
ATOM     14  O   UNL     1      33.742 -24.634 -17.742  0.00  0.00    -0.370 OA
ATOM     15  H   UNL     1      34.389 -25.170 -17.259  0.00  0.00    +0.212 HD
ENDBRANCH   1  14
BRANCH   1  17
ATOM     16  O   UNL     1      35.563 -22.439 -15.833  0.00  0.00    -0.247 OA
ATOM     17  C   UNL     1      34.956 -23.396 -16.298  0.00  0.00    +0.349 C 
BRANCH  17  18
ATOM     18  O   UNL     1      35.272 -24.710 -16.045  0.00  0.00    -0.449 OA
BRANCH  18  19
ATOM     19  C   UNL     1      35.604 -25.025 -14.699  0.00  0.00    +0.187 C 
BRANCH  19  20
ATOM     20  C   UNL     1      36.929 -25.761 -14.663  0.00  0.00    -0.025 C 
BRANCH  20  21
ATOM     21  N   UNL     1      38.015 -24.816 -14.168  0.00  0.00    +0.391 N 
ATOM     22  C   UNL     1      38.635 -24.091 -15.353  0.00  0.00    -0.096 C 
BRANCH  21  23
ATOM     23  C   UNL     1      39.089 -25.613 -13.441  0.00  0.00    -0.073 C 
ATOM     24  C   UNL     1      40.335 -25.665 -14.297  0.00  0.00    -0.024 C 
ENDBRANCH  21  23
BRANCH  21  25
ATOM     25  C   UNL     1      37.405 -23.799 -13.214  0.00  0.00    -0.073 C 
ATOM     26  C   UNL     1      37.934 -24.044 -11.818  0.00  0.00    -0.024 C 
ENDBRANCH  21  25
ENDBRANCH  20  21
ENDBRANCH  19  20
ENDBRANCH  18  19
ENDBRANCH  17  18
ENDBRANCH   1  17
TORSDOF 10
ENDMDL
MODEL 9
REMARK VINA RESULT:      -7.7      4.862      8.769
REMARK  Name = 4134
REMARK  10 active torsions:
REMARK  status: ('A' for Active; 'I' for Inactive)
REMARK    1  A    between atoms: C_1  and  C_2
REMARK    2  A    between atoms: C_1  and  C_8
REMARK    3  A    between atoms: C_1  and  O_14
REMARK    4  A    between atoms: C_1  and  C_17
REMARK    5  A    between atoms: C_17  and  O_18
REMARK    6  A    between atoms: O_18  and  C_19
REMARK    7  A    between atoms: C_19  and  C_20
REMARK    8  A    between atoms: C_20  and  N_21
REMARK    9  A    between atoms: N_21  and  C_23
REMARK   10  A    between atoms: N_21  and  C_25
REMARK                            x       y       z     vdW  Elec       q    Type
REMARK                         _______ _______ _______ _____ _____    ______ ____
ROOT
ATOM      1  C   UNL     1      33.414  -8.449 -22.818  0.00  0.00    +0.216 C 
ENDROOT
BRANCH   1   2
ATOM      2  C   UNL     1      32.615  -7.338 -23.504  0.00  0.00    +0.016 C 
ATOM      3  C   UNL     1      33.249  -6.555 -24.441  0.00  0.00    -0.001 C 
ATOM      4  C   UNL     1      31.296  -7.166 -23.156  0.00  0.00    -0.001 C 
ATOM      5  C   UNL     1      32.521  -5.543 -25.067  0.00  0.00    -0.000 C 
ATOM      6  C   UNL     1      30.568  -6.154 -23.782  0.00  0.00    -0.000 C 
ATOM      7  C   UNL     1      31.181  -5.342 -24.737  0.00  0.00    -0.000 C 
ENDBRANCH   1   2
BRANCH   1   8
ATOM      8  C   UNL     1      32.556  -9.177 -21.779  0.00  0.00    +0.016 C 
ATOM      9  C   UNL     1      32.600  -8.748 -20.473  0.00  0.00    -0.001 C 
ATOM     10  C   UNL     1      31.774 -10.230 -22.193  0.00  0.00    -0.001 C 
ATOM     11  C   UNL     1      31.817  -9.411 -19.527  0.00  0.00    -0.000 C 
ATOM     12  C   UNL     1      30.992 -10.893 -21.247  0.00  0.00    -0.000 C 
ATOM     13  C   UNL     1      31.014 -10.483 -19.913  0.00  0.00    -0.000 C 
ENDBRANCH   1   8
BRANCH   1  14
ATOM     14  O   UNL     1      34.585  -7.888 -22.191  0.00  0.00    -0.370 OA
ATOM     15  H   UNL     1      34.338  -7.488 -21.344  0.00  0.00    +0.212 HD
ENDBRANCH   1  14
BRANCH   1  17
ATOM     16  O   UNL     1      35.304  -9.361 -24.077  0.00  0.00    -0.247 OA
ATOM     17  C   UNL     1      34.108  -9.380 -23.816  0.00  0.00    +0.349 C 
BRANCH  17  18
ATOM     18  O   UNL     1      33.211 -10.271 -24.356  0.00  0.00    -0.449 OA
BRANCH  18  19
ATOM     19  C   UNL     1      33.763 -11.464 -24.895  0.00  0.00    +0.187 C 
BRANCH  19  20
ATOM     20  C   UNL     1      34.158 -12.396 -23.766  0.00  0.00    -0.025 C 
BRANCH  20  21
ATOM     21  N   UNL     1      33.454 -13.733 -23.948  0.00  0.00    +0.391 N 
ATOM     22  C   UNL     1      34.404 -14.861 -23.578  0.00  0.00    -0.096 C 
BRANCH  21  23
ATOM     23  C   UNL     1      33.024 -13.886 -25.400  0.00  0.00    -0.073 C 
ATOM     24  C   UNL     1      33.346 -15.287 -25.869  0.00  0.00    -0.024 C 
ENDBRANCH  21  23
BRANCH  21  25
ATOM     25  C   UNL     1      32.228 -13.786 -23.047  0.00  0.00    -0.073 C 
ATOM     26  C   UNL     1      32.600 -14.446 -21.738  0.00  0.00    -0.024 C 
ENDBRANCH  21  25
ENDBRANCH  20  21
ENDBRANCH  19  20
ENDBRANCH  18  19
ENDBRANCH  17  18
ENDBRANCH   1  17
TORSDOF 10
ENDMDL
