MODEL 1
REMARK VINA RESULT:      -7.6      0.000      0.000
REMARK  Name = 42890
REMARK  8 active torsions:
REMARK  status: ('A' for Active; 'I' for Inactive)
REMARK    1  A    between atoms: C_3  and  O_30
REMARK    2  A    between atoms: C_4  and  C_22
REMARK    3  A    between atoms: C_4  and  O_24
REMARK    4  A    between atoms: C_9  and  O_26
REMARK    5  A    between atoms: C_10  and  O_28
REMARK    6  A    between atoms: O_30  and  C_32
REMARK    7  A    between atoms: C_33  and  N_38
REMARK    8  A    between atoms: C_35  and  O_42
REMARK                            x       y       z     vdW  Elec       q    Type
REMARK                         _______ _______ _______ _____ _____    ______ ____
ROOT
ATOM      1  O   UNL     1      32.360 -20.675 -19.924  0.00  0.00    -0.286 OA
ATOM      2  O   UNL     1      36.933 -22.298 -17.688  0.00  0.00    -0.286 OA
ATOM      3  C   UNL     1      30.784 -23.688 -16.061  0.00  0.00    +0.145 C 
ATOM      4  C   UNL     1      32.014 -24.719 -14.098  0.00  0.00    +0.146 C 
ATOM      5  C   UNL     1      30.876 -24.876 -15.099  0.00  0.00    +0.069 C 
ATOM      6  C   UNL     1      33.358 -24.583 -14.819  0.00  0.00    +0.063 C 
ATOM      7  C   UNL     1      32.123 -23.261 -16.618  0.00  0.00    +0.038 A 
ATOM      8  C   UNL     1      33.328 -23.658 -16.012  0.00  0.00    +0.016 A 
ATOM      9  C   UNL     1      32.169 -22.391 -17.722  0.00  0.00    +0.135 A 
ATOM     10  C   UNL     1      34.552 -23.223 -16.549  0.00  0.00    +0.133 A 
ATOM     11  C   UNL     1      33.392 -21.954 -18.244  0.00  0.00    +0.078 A 
ATOM     12  C   UNL     1      34.584 -22.374 -17.660  0.00  0.00    +0.078 A 
ATOM     13  C   UNL     1      33.409 -21.048 -19.411  0.00  0.00    +0.199 C 
ATOM     14  C   UNL     1      35.885 -21.925 -18.201  0.00  0.00    +0.199 C 
ATOM     15  C   UNL     1      34.707 -20.598 -19.953  0.00  0.00    +0.042 C 
ATOM     16  C   UNL     1      35.902 -21.022 -19.369  0.00  0.00    +0.042 C 
ATOM     17  C   UNL     1      34.736 -19.740 -21.059  0.00  0.00    +0.003 C 
ATOM     18  C   UNL     1      37.126 -20.589 -19.890  0.00  0.00    +0.003 C 
ATOM     19  C   UNL     1      35.959 -19.311 -21.576  0.00  0.00    +0.000 C 
ATOM     20  C   UNL     1      37.152 -19.735 -20.993  0.00  0.00    +0.000 C 
ENDROOT
BRANCH   4  22
ATOM     21  O   UNL     1      32.580 -22.683 -12.981  0.00  0.00    -0.294 OA
ATOM     22  C   UNL     1      31.758 -23.584 -13.146  0.00  0.00    +0.175 C 
ATOM     23  C   UNL     1      30.448 -23.602 -12.408  0.00  0.00    +0.075 C 
ENDBRANCH   4  22
BRANCH   4  24
ATOM     24  O   UNL     1      32.037 -25.871 -13.260  0.00  0.00    -0.379 OA
ATOM     25  H   UNL     1      31.670 -26.628 -13.742  0.00  0.00    +0.211 HD
ENDBRANCH   4  24
BRANCH   9  26
ATOM     26  O   UNL     1      30.990 -21.946 -18.255  0.00  0.00    -0.506 OA
ATOM     27  H   UNL     1      30.633 -21.125 -17.979  0.00  0.00    +0.292 HD
ENDBRANCH   9  26
BRANCH  10  28
ATOM     28  O   UNL     1      35.707 -23.658 -15.959  0.00  0.00    -0.506 OA
ATOM     29  H   UNL     1      35.874 -24.577 -15.877  0.00  0.00    +0.292 HD
ENDBRANCH  10  28
BRANCH   3  30
ATOM     30  O   UNL     1      29.902 -24.049 -17.123  0.00  0.00    -0.328 OA
BRANCH  30  32
ATOM     31  O   UNL     1      27.571 -23.914 -17.536  0.00  0.00    -0.331 OA
ATOM     32  C   UNL     1      28.595 -24.337 -16.635  0.00  0.00    +0.233 C 
ATOM     33  C   UNL     1      28.315 -22.179 -15.363  0.00  0.00    -0.031 C 
ATOM     34  C   UNL     1      28.410 -23.705 -15.254  0.00  0.00    +0.042 C 
ATOM     35  C   UNL     1      27.237 -21.786 -16.383  0.00  0.00    +0.118 C 
ATOM     36  C   UNL     1      27.505 -22.494 -17.719  0.00  0.00    +0.142 C 
ATOM     37  C   UNL     1      26.413 -22.221 -18.749  0.00  0.00    +0.035 C 
BRANCH  33  38
ATOM     38  N   UNL     1      28.039 -21.595 -14.052  0.00  0.00    +0.384 N 
ATOM     39  H   UNL     1      27.584 -22.289 -13.460  0.00  0.00    -0.089 HD
ATOM     40  H   UNL     1      27.427 -20.787 -14.162  0.00  0.00    -0.089 HD
ATOM     41  H   UNL     1      28.916 -21.303 -13.620  0.00  0.00    -0.089 HD
ENDBRANCH  33  38
BRANCH  35  42
ATOM     42  O   UNL     1      25.946 -22.172 -15.910  0.00  0.00    -0.384 OA
ATOM     43  H   UNL     1      25.933 -22.136 -14.940  0.00  0.00    +0.210 HD
ENDBRANCH  35  42
ENDBRANCH  30  32
ENDBRANCH   3  30
TORSDOF 8
ENDMDL
MODEL 2
REMARK VINA RESULT:      -7.4      2.444      3.801
REMARK  Name = 42890
REMARK  8 active torsions:
REMARK  status: ('A' for Active; 'I' for Inactive)
REMARK    1  A    between atoms: C_3  and  O_30
REMARK    2  A    between atoms: C_4  and  C_22
REMARK    3  A    between atoms: C_4  and  O_24
REMARK    4  A    between atoms: C_9  and  O_26
REMARK    5  A    between atoms: C_10  and  O_28
REMARK    6  A    between atoms: O_30  and  C_32
REMARK    7  A    between atoms: C_33  and  N_38
REMARK    8  A    between atoms: C_35  and  O_42
REMARK                            x       y       z     vdW  Elec       q    Type
REMARK                         _______ _______ _______ _____ _____    ______ ____
ROOT
ATOM      1  O   UNL     1      32.251 -21.816 -18.530  0.00  0.00    -0.286 OA
ATOM      2  O   UNL     1      37.438 -20.971 -19.492  0.00  0.00    -0.286 OA
ATOM      3  C   UNL     1      34.588 -24.312 -14.685  0.00  0.00    +0.145 C 
ATOM      4  C   UNL     1      36.993 -24.326 -13.881  0.00  0.00    +0.146 C 
ATOM      5  C   UNL     1      35.709 -25.131 -14.039  0.00  0.00    +0.069 C 
ATOM      6  C   UNL     1      37.491 -23.823 -15.238  0.00  0.00    +0.063 C 
ATOM      7  C   UNL     1      35.043 -23.516 -15.888  0.00  0.00    +0.038 A 
ATOM      8  C   UNL     1      36.405 -23.263 -16.125  0.00  0.00    +0.016 A 
ATOM      9  C   UNL     1      34.084 -22.956 -16.751  0.00  0.00    +0.135 A 
ATOM     10  C   UNL     1      36.785 -22.502 -17.244  0.00  0.00    +0.133 A 
ATOM     11  C   UNL     1      34.471 -22.190 -17.857  0.00  0.00    +0.078 A 
ATOM     12  C   UNL     1      35.822 -21.967 -18.106  0.00  0.00    +0.078 A 
ATOM     13  C   UNL     1      33.440 -21.623 -18.751  0.00  0.00    +0.199 C 
ATOM     14  C   UNL     1      36.248 -21.164 -19.272  0.00  0.00    +0.199 C 
ATOM     15  C   UNL     1      33.864 -20.820 -19.916  0.00  0.00    +0.042 C 
ATOM     16  C   UNL     1      35.219 -20.599 -20.167  0.00  0.00    +0.042 C 
ATOM     17  C   UNL     1      32.898 -20.277 -20.772  0.00  0.00    +0.003 C 
ATOM     18  C   UNL     1      35.609 -19.836 -21.274  0.00  0.00    +0.003 C 
ATOM     19  C   UNL     1      33.291 -19.518 -21.874  0.00  0.00    +0.000 C 
ATOM     20  C   UNL     1      34.644 -19.298 -22.125  0.00  0.00    +0.000 C 
ENDROOT
BRANCH   4  22
ATOM     21  O   UNL     1      37.363 -22.117 -13.045  0.00  0.00    -0.294 OA
ATOM     22  C   UNL     1      36.826 -23.212 -12.885  0.00  0.00    +0.175 C 
ATOM     23  C   UNL     1      35.967 -23.502 -11.683  0.00  0.00    +0.075 C 
ENDBRANCH   4  22
BRANCH   4  24
ATOM     24  O   UNL     1      37.981 -25.168 -13.292  0.00  0.00    -0.379 OA
ATOM     25  H   UNL     1      37.937 -26.048 -13.696  0.00  0.00    +0.211 HD
ENDBRANCH   4  24
BRANCH   9  26
ATOM     26  O   UNL     1      32.759 -23.141 -16.465  0.00  0.00    -0.506 OA
ATOM     27  H   UNL     1      32.324 -23.924 -16.742  0.00  0.00    +0.292 HD
ENDBRANCH   9  26
BRANCH  10  28
ATOM     28  O   UNL     1      38.120 -22.305 -17.468  0.00  0.00    -0.506 OA
ATOM     29  H   UNL     1      38.695 -23.042 -17.550  0.00  0.00    +0.292 HD
ENDBRANCH  10  28
BRANCH   3  30
ATOM     30  O   UNL     1      33.544 -25.210 -15.055  0.00  0.00    -0.328 OA
BRANCH  30  32
ATOM     31  O   UNL     1      31.414 -25.951 -14.320  0.00  0.00    -0.331 OA
ATOM     32  C   UNL     1      32.729 -25.546 -13.936  0.00  0.00    +0.233 C 
ATOM     33  C   UNL     1      31.857 -23.214 -13.544  0.00  0.00    -0.031 C 
ATOM     34  C   UNL     1      32.681 -24.368 -12.961  0.00  0.00    +0.042 C 
ATOM     35  C   UNL     1      30.477 -23.719 -13.987  0.00  0.00    +0.118 C 
ATOM     36  C   UNL     1      30.642 -24.913 -14.939  0.00  0.00    +0.142 C 
ATOM     37  C   UNL     1      29.303 -25.524 -15.341  0.00  0.00    +0.035 C 
BRANCH  33  38
ATOM     38  N   UNL     1      31.736 -22.136 -12.565  0.00  0.00    +0.384 N 
ATOM     39  H   UNL     1      32.631 -21.658 -12.473  0.00  0.00    -0.089 HD
ATOM     40  H   UNL     1      31.463 -22.525 -11.663  0.00  0.00    -0.089 HD
ATOM     41  H   UNL     1      31.027 -21.472 -12.878  0.00  0.00    -0.089 HD
ENDBRANCH  33  38
BRANCH  35  42
ATOM     42  O   UNL     1      29.717 -24.138 -12.853  0.00  0.00    -0.384 OA
ATOM     43  H   UNL     1      29.455 -25.066 -12.964  0.00  0.00    +0.210 HD
ENDBRANCH  35  42
ENDBRANCH  30  32
ENDBRANCH   3  30
TORSDOF 8
ENDMDL
MODEL 3
REMARK VINA RESULT:      -6.7      1.644      2.473
REMARK  Name = 42890
REMARK  8 active torsions:
REMARK  status: ('A' for Active; 'I' for Inactive)
REMARK    1  A    between atoms: C_3  and  O_30
REMARK    2  A    between atoms: C_4  and  C_22
REMARK    3  A    between atoms: C_4  and  O_24
REMARK    4  A    between atoms: C_9  and  O_26
REMARK    5  A    between atoms: C_10  and  O_28
REMARK    6  A    between atoms: O_30  and  C_32
REMARK    7  A    between atoms: C_33  and  N_38
REMARK    8  A    between atoms: C_35  and  O_42
REMARK                            x       y       z     vdW  Elec       q    Type
REMARK                         _______ _______ _______ _____ _____    ______ ____
ROOT
ATOM      1  O   UNL     1      32.284 -20.925 -19.570  0.00  0.00    -0.286 OA
ATOM      2  O   UNL     1      37.615 -21.093 -19.273  0.00  0.00    -0.286 OA
ATOM      3  C   UNL     1      33.149 -24.174 -15.674  0.00  0.00    +0.145 C 
ATOM      4  C   UNL     1      35.250 -24.756 -14.380  0.00  0.00    +0.146 C 
ATOM      5  C   UNL     1      33.916 -25.260 -14.916  0.00  0.00    +0.069 C 
ATOM      6  C   UNL     1      36.138 -24.251 -15.520  0.00  0.00    +0.063 C 
ATOM      7  C   UNL     1      34.012 -23.388 -16.636  0.00  0.00    +0.038 A 
ATOM      8  C   UNL     1      35.415 -23.403 -16.539  0.00  0.00    +0.016 A 
ATOM      9  C   UNL     1      33.404 -22.570 -17.604  0.00  0.00    +0.135 A 
ATOM     10  C   UNL     1      36.181 -22.644 -17.439  0.00  0.00    +0.133 A 
ATOM     11  C   UNL     1      34.174 -21.808 -18.490  0.00  0.00    +0.078 A 
ATOM     12  C   UNL     1      35.563 -21.848 -18.410  0.00  0.00    +0.078 A 
ATOM     13  C   UNL     1      33.506 -20.964 -19.502  0.00  0.00    +0.199 C 
ATOM     14  C   UNL     1      36.393 -21.054 -19.341  0.00  0.00    +0.199 C 
ATOM     15  C   UNL     1      34.332 -20.168 -20.432  0.00  0.00    +0.042 C 
ATOM     16  C   UNL     1      35.726 -20.212 -20.354  0.00  0.00    +0.042 C 
ATOM     17  C   UNL     1      33.712 -19.365 -21.397  0.00  0.00    +0.003 C 
ATOM     18  C   UNL     1      36.499 -19.454 -21.241  0.00  0.00    +0.003 C 
ATOM     19  C   UNL     1      34.486 -18.611 -22.279  0.00  0.00    +0.000 C 
ATOM     20  C   UNL     1      35.877 -18.656 -22.202  0.00  0.00    +0.000 C 
ENDROOT
BRANCH   4  22
ATOM     21  O   UNL     1      33.942 -23.454 -12.860  0.00  0.00    -0.294 OA
ATOM     22  C   UNL     1      35.057 -23.721 -13.306  0.00  0.00    +0.175 C 
ATOM     23  C   UNL     1      36.295 -23.031 -12.802  0.00  0.00    +0.075 C 
ENDBRANCH   4  22
BRANCH   4  24
ATOM     24  O   UNL     1      35.900 -25.831 -13.708  0.00  0.00    -0.379 OA
ATOM     25  H   UNL     1      36.262 -25.513 -12.866  0.00  0.00    +0.211 HD
ENDBRANCH   4  24
BRANCH   9  26
ATOM     26  O   UNL     1      32.038 -22.500 -17.637  0.00  0.00    -0.506 OA
ATOM     27  H   UNL     1      31.528 -22.993 -17.024  0.00  0.00    +0.292 HD
ENDBRANCH   9  26
BRANCH  10  28
ATOM     28  O   UNL     1      37.544 -22.709 -17.342  0.00  0.00    -0.506 OA
ATOM     29  H   UNL     1      38.071 -22.666 -18.117  0.00  0.00    +0.292 HD
ENDBRANCH  10  28
BRANCH   3  30
ATOM     30  O   UNL     1      32.077 -24.800 -16.376  0.00  0.00    -0.328 OA
BRANCH  30  32
ATOM     31  O   UNL     1      29.717 -24.762 -16.137  0.00  0.00    -0.331 OA
ATOM     32  C   UNL     1      30.969 -25.049 -15.514  0.00  0.00    +0.233 C 
ATOM     33  C   UNL     1      30.935 -22.756 -14.471  0.00  0.00    -0.031 C 
ATOM     34  C   UNL     1      31.136 -24.255 -14.218  0.00  0.00    +0.042 C 
ATOM     35  C   UNL     1      29.601 -22.513 -15.188  0.00  0.00    +0.118 C 
ATOM     36  C   UNL     1      29.529 -23.377 -16.457  0.00  0.00    +0.142 C 
ATOM     37  C   UNL     1      28.185 -23.254 -17.167  0.00  0.00    +0.035 C 
BRANCH  33  38
ATOM     38  N   UNL     1      30.999 -22.019 -13.210  0.00  0.00    +0.384 N 
ATOM     39  H   UNL     1      31.138 -21.027 -13.403  0.00  0.00    -0.089 HD
ATOM     40  H   UNL     1      31.776 -22.369 -12.651  0.00  0.00    -0.089 HD
ATOM     41  H   UNL     1      30.126 -22.147 -12.698  0.00  0.00    -0.089 HD
ENDBRANCH  33  38
BRANCH  35  42
ATOM     42  O   UNL     1      28.510 -22.861 -14.334  0.00  0.00    -0.384 OA
ATOM     43  H   UNL     1      28.855 -23.184 -13.486  0.00  0.00    +0.210 HD
ENDBRANCH  35  42
ENDBRANCH  30  32
ENDBRANCH   3  30
TORSDOF 8
ENDMDL
MODEL 4
REMARK VINA RESULT:      -5.7      2.415      7.189
REMARK  Name = 42890
REMARK  8 active torsions:
REMARK  status: ('A' for Active; 'I' for Inactive)
REMARK    1  A    between atoms: C_3  and  O_30
REMARK    2  A    between atoms: C_4  and  C_22
REMARK    3  A    between atoms: C_4  and  O_24
REMARK    4  A    between atoms: C_9  and  O_26
REMARK    5  A    between atoms: C_10  and  O_28
REMARK    6  A    between atoms: O_30  and  C_32
REMARK    7  A    between atoms: C_33  and  N_38
REMARK    8  A    between atoms: C_35  and  O_42
REMARK                            x       y       z     vdW  Elec       q    Type
REMARK                         _______ _______ _______ _____ _____    ______ ____
ROOT
ATOM      1  O   UNL     1      31.099 -22.338 -18.100  0.00  0.00    -0.286 OA
ATOM      2  O   UNL     1      30.853 -23.468 -12.884  0.00  0.00    -0.286 OA
ATOM      3  C   UNL     1      36.039 -22.931 -16.783  0.00  0.00    +0.145 C 
ATOM      4  C   UNL     1      37.143 -23.829 -14.685  0.00  0.00    +0.146 C 
ATOM      5  C   UNL     1      37.246 -22.847 -15.846  0.00  0.00    +0.069 C 
ATOM      6  C   UNL     1      35.880 -23.568 -13.862  0.00  0.00    +0.063 C 
ATOM      7  C   UNL     1      34.715 -22.984 -16.055  0.00  0.00    +0.038 A 
ATOM      8  C   UNL     1      34.643 -23.314 -14.690  0.00  0.00    +0.016 A 
ATOM      9  C   UNL     1      33.522 -22.767 -16.768  0.00  0.00    +0.135 A 
ATOM     10  C   UNL     1      33.391 -23.372 -14.054  0.00  0.00    +0.133 A 
ATOM     11  C   UNL     1      32.278 -22.837 -16.130  0.00  0.00    +0.078 A 
ATOM     12  C   UNL     1      32.213 -23.136 -14.771  0.00  0.00    +0.078 A 
ATOM     13  C   UNL     1      31.043 -22.597 -16.904  0.00  0.00    +0.199 C 
ATOM     14  C   UNL     1      30.909 -23.209 -14.080  0.00  0.00    +0.199 C 
ATOM     15  C   UNL     1      29.739 -22.670 -16.215  0.00  0.00    +0.042 C 
ATOM     16  C   UNL     1      29.674 -22.966 -14.852  0.00  0.00    +0.042 C 
ATOM     17  C   UNL     1      28.561 -22.443 -16.937  0.00  0.00    +0.003 C 
ATOM     18  C   UNL     1      28.432 -23.034 -14.210  0.00  0.00    +0.003 C 
ATOM     19  C   UNL     1      27.325 -22.511 -16.293  0.00  0.00    +0.000 C 
ATOM     20  C   UNL     1      27.260 -22.805 -14.932  0.00  0.00    +0.000 C 
ENDROOT
BRANCH   4  22
ATOM     21  O   UNL     1      36.270 -25.824 -15.672  0.00  0.00    -0.294 OA
ATOM     22  C   UNL     1      37.232 -25.253 -15.159  0.00  0.00    +0.175 C 
ATOM     23  C   UNL     1      38.555 -25.946 -14.977  0.00  0.00    +0.075 C 
ENDBRANCH   4  22
BRANCH   4  24
ATOM     24  O   UNL     1      38.293 -23.670 -13.859  0.00  0.00    -0.379 OA
ATOM     25  H   UNL     1      38.071 -23.105 -13.103  0.00  0.00    +0.211 HD
ENDBRANCH   4  24
BRANCH   9  26
ATOM     26  O   UNL     1      33.598 -22.526 -18.113  0.00  0.00    -0.506 OA
ATOM     27  H   UNL     1      34.252 -22.955 -18.629  0.00  0.00    +0.292 HD
ENDBRANCH   9  26
BRANCH  10  28
ATOM     28  O   UNL     1      33.359 -23.659 -12.717  0.00  0.00    -0.506 OA
ATOM     29  H   UNL     1      33.193 -24.536 -12.431  0.00  0.00    +0.292 HD
ENDBRANCH  10  28
BRANCH   3  30
ATOM     30  O   UNL     1      36.077 -21.801 -17.653  0.00  0.00    -0.328 OA
BRANCH  30  32
ATOM     31  O   UNL     1      36.998 -21.338 -19.789  0.00  0.00    -0.331 OA
ATOM     32  C   UNL     1      36.160 -22.200 -19.018  0.00  0.00    +0.233 C 
ATOM     33  C   UNL     1      34.156 -20.884 -19.793  0.00  0.00    -0.031 C 
ATOM     34  C   UNL     1      34.755 -22.283 -19.617  0.00  0.00    +0.042 C 
ATOM     35  C   UNL     1      35.121 -19.988 -20.581  0.00  0.00    +0.118 C 
ATOM     36  C   UNL     1      36.503 -19.998 -19.909  0.00  0.00    +0.142 C 
ATOM     37  C   UNL     1      37.537 -19.202 -20.698  0.00  0.00    +0.035 C 
BRANCH  33  38
ATOM     38  N   UNL     1      32.856 -20.971 -20.455  0.00  0.00    +0.384 N 
ATOM     39  H   UNL     1      32.784 -21.861 -20.948  0.00  0.00    -0.089 HD
ATOM     40  H   UNL     1      32.763 -20.204 -21.122  0.00  0.00    -0.089 HD
ATOM     41  H   UNL     1      32.115 -20.908 -19.758  0.00  0.00    -0.089 HD
ENDBRANCH  33  38
BRANCH  35  42
ATOM     42  O   UNL     1      35.259 -20.468 -21.919  0.00  0.00    -0.384 OA
ATOM     43  H   UNL     1      34.628 -21.190 -22.070  0.00  0.00    +0.210 HD
ENDBRANCH  35  42
ENDBRANCH  30  32
ENDBRANCH   3  30
TORSDOF 8
ENDMDL
MODEL 5
REMARK VINA RESULT:      -5.6      7.804     12.323
REMARK  Name = 42890
REMARK  8 active torsions:
REMARK  status: ('A' for Active; 'I' for Inactive)
REMARK    1  A    between atoms: C_3  and  O_30
REMARK    2  A    between atoms: C_4  and  C_22
REMARK    3  A    between atoms: C_4  and  O_24
REMARK    4  A    between atoms: C_9  and  O_26
REMARK    5  A    between atoms: C_10  and  O_28
REMARK    6  A    between atoms: O_30  and  C_32
REMARK    7  A    between atoms: C_33  and  N_38
REMARK    8  A    between atoms: C_35  and  O_42
REMARK                            x       y       z     vdW  Elec       q    Type
REMARK                         _______ _______ _______ _____ _____    ______ ____
ROOT
ATOM      1  O   UNL     1      31.924 -16.609 -20.405  0.00  0.00    -0.286 OA
ATOM      2  O   UNL     1      35.651 -18.477 -23.746  0.00  0.00    -0.286 OA
ATOM      3  C   UNL     1      32.676 -12.686 -23.650  0.00  0.00    +0.145 C 
ATOM      4  C   UNL     1      33.925 -12.515 -25.849  0.00  0.00    +0.146 C 
ATOM      5  C   UNL     1      33.500 -11.790 -24.578  0.00  0.00    +0.069 C 
ATOM      6  C   UNL     1      34.761 -13.753 -25.515  0.00  0.00    +0.063 C 
ATOM      7  C   UNL     1      33.259 -14.071 -23.478  0.00  0.00    +0.038 A 
ATOM      8  C   UNL     1      34.215 -14.579 -24.375  0.00  0.00    +0.016 A 
ATOM      9  C   UNL     1      32.788 -14.898 -22.442  0.00  0.00    +0.135 A 
ATOM     10  C   UNL     1      34.718 -15.878 -24.192  0.00  0.00    +0.133 A 
ATOM     11  C   UNL     1      33.287 -16.195 -22.274  0.00  0.00    +0.078 A 
ATOM     12  C   UNL     1      34.255 -16.684 -23.146  0.00  0.00    +0.078 A 
ATOM     13  C   UNL     1      32.779 -17.037 -21.171  0.00  0.00    +0.199 C 
ATOM     14  C   UNL     1      34.796 -18.049 -22.980  0.00  0.00    +0.199 C 
ATOM     15  C   UNL     1      33.317 -18.402 -21.004  0.00  0.00    +0.042 C 
ATOM     16  C   UNL     1      34.291 -18.890 -21.877  0.00  0.00    +0.042 C 
ATOM     17  C   UNL     1      32.845 -19.210 -19.962  0.00  0.00    +0.003 C 
ATOM     18  C   UNL     1      34.793 -20.186 -21.709  0.00  0.00    +0.003 C 
ATOM     19  C   UNL     1      33.349 -20.501 -19.798  0.00  0.00    +0.000 C 
ATOM     20  C   UNL     1      34.322 -20.988 -20.669  0.00  0.00    +0.000 C 
ENDROOT
BRANCH   4  22
ATOM     21  O   UNL     1      32.065 -11.958 -27.243  0.00  0.00    -0.294 OA
ATOM     22  C   UNL     1      32.744 -12.841 -26.720  0.00  0.00    +0.175 C 
ATOM     23  C   UNL     1      32.434 -14.299 -26.920  0.00  0.00    +0.075 C 
ENDBRANCH   4  22
BRANCH   4  24
ATOM     24  O   UNL     1      34.698 -11.617 -26.641  0.00  0.00    -0.379 OA
ATOM     25  H   UNL     1      35.165 -12.114 -27.330  0.00  0.00    +0.211 HD
ENDBRANCH   4  24
BRANCH   9  26
ATOM     26  O   UNL     1      31.800 -14.424 -21.624  0.00  0.00    -0.506 OA
ATOM     27  H   UNL     1      30.943 -14.802 -21.656  0.00  0.00    +0.292 HD
ENDBRANCH   9  26
BRANCH  10  28
ATOM     28  O   UNL     1      35.674 -16.328 -25.060  0.00  0.00    -0.506 OA
ATOM     29  H   UNL     1      35.499 -17.071 -25.605  0.00  0.00    +0.292 HD
ENDBRANCH  10  28
BRANCH   3  30
ATOM     30  O   UNL     1      32.575 -12.035 -22.384  0.00  0.00    -0.328 OA
BRANCH  30  32
ATOM     31  O   UNL     1      31.873  -9.876 -23.072  0.00  0.00    -0.331 OA
ATOM     32  C   UNL     1      31.522 -11.075 -22.379  0.00  0.00    +0.233 C 
ATOM     33  C   UNL     1      32.190  -9.974 -20.213  0.00  0.00    -0.031 C 
ATOM     34  C   UNL     1      31.104 -10.777 -20.938  0.00  0.00    +0.042 C 
ATOM     35  C   UNL     1      32.564  -8.729 -21.028  0.00  0.00    +0.118 C 
ATOM     36  C   UNL     1      32.940  -9.140 -22.459  0.00  0.00    +0.142 C 
ATOM     37  C   UNL     1      33.230  -7.937 -23.351  0.00  0.00    +0.035 C 
BRANCH  33  38
ATOM     38  N   UNL     1      31.738  -9.611 -18.871  0.00  0.00    +0.384 N 
ATOM     39  H   UNL     1      31.747 -10.438 -18.274  0.00  0.00    -0.089 HD
ATOM     40  H   UNL     1      30.790  -9.238 -18.922  0.00  0.00    -0.089 HD
ATOM     41  H   UNL     1      32.362  -8.904 -18.482  0.00  0.00    -0.089 HD
ENDBRANCH  33  38
BRANCH  35  42
ATOM     42  O   UNL     1      31.458  -7.827 -21.085  0.00  0.00    -0.384 OA
ATOM     43  H   UNL     1      31.553  -7.154 -20.392  0.00  0.00    +0.210 HD
ENDBRANCH  35  42
ENDBRANCH  30  32
ENDBRANCH   3  30
TORSDOF 8
ENDMDL
MODEL 6
REMARK VINA RESULT:      -5.4      2.891      6.186
REMARK  Name = 42890
REMARK  8 active torsions:
REMARK  status: ('A' for Active; 'I' for Inactive)
REMARK    1  A    between atoms: C_3  and  O_30
REMARK    2  A    between atoms: C_4  and  C_22
REMARK    3  A    between atoms: C_4  and  O_24
REMARK    4  A    between atoms: C_9  and  O_26
REMARK    5  A    between atoms: C_10  and  O_28
REMARK    6  A    between atoms: O_30  and  C_32
REMARK    7  A    between atoms: C_33  and  N_38
REMARK    8  A    between atoms: C_35  and  O_42
REMARK                            x       y       z     vdW  Elec       q    Type
REMARK                         _______ _______ _______ _____ _____    ______ ____
ROOT
ATOM      1  O   UNL     1      36.767 -22.369 -18.203  0.00  0.00    -0.286 OA
ATOM      2  O   UNL     1      31.944 -20.595 -19.664  0.00  0.00    -0.286 OA
ATOM      3  C   UNL     1      33.705 -24.005 -14.404  0.00  0.00    +0.145 C 
ATOM      4  C   UNL     1      31.182 -24.083 -14.169  0.00  0.00    +0.146 C 
ATOM      5  C   UNL     1      32.513 -23.920 -13.447  0.00  0.00    +0.069 C 
ATOM      6  C   UNL     1      31.009 -23.006 -15.242  0.00  0.00    +0.063 C 
ATOM      7  C   UNL     1      33.517 -23.199 -15.670  0.00  0.00    +0.038 A 
ATOM      8  C   UNL     1      32.244 -22.760 -16.076  0.00  0.00    +0.016 A 
ATOM      9  C   UNL     1      34.623 -22.942 -16.499  0.00  0.00    +0.135 A 
ATOM     10  C   UNL     1      32.108 -22.031 -17.269  0.00  0.00    +0.133 A 
ATOM     11  C   UNL     1      34.478 -22.224 -17.692  0.00  0.00    +0.078 A 
ATOM     12  C   UNL     1      33.221 -21.765 -18.075  0.00  0.00    +0.078 A 
ATOM     13  C   UNL     1      35.661 -21.962 -18.537  0.00  0.00    +0.199 C 
ATOM     14  C   UNL     1      33.050 -21.002 -19.329  0.00  0.00    +0.199 C 
ATOM     15  C   UNL     1      35.492 -21.201 -19.791  0.00  0.00    +0.042 C 
ATOM     16  C   UNL     1      34.232 -20.737 -20.174  0.00  0.00    +0.042 C 
ATOM     17  C   UNL     1      36.606 -20.944 -20.601  0.00  0.00    +0.003 C 
ATOM     18  C   UNL     1      34.084 -20.017 -21.364  0.00  0.00    +0.003 C 
ATOM     19  C   UNL     1      36.454 -20.225 -21.787  0.00  0.00    +0.000 C 
ATOM     20  C   UNL     1      35.195 -19.762 -22.168  0.00  0.00    +0.000 C 
ENDROOT
BRANCH   4  22
ATOM     21  O   UNL     1      31.912 -26.315 -14.618  0.00  0.00    -0.294 OA
ATOM     22  C   UNL     1      31.022 -25.472 -14.722  0.00  0.00    +0.175 C 
ATOM     23  C   UNL     1      29.718 -25.781 -15.408  0.00  0.00    +0.075 C 
ENDBRANCH   4  22
BRANCH   4  24
ATOM     24  O   UNL     1      30.134 -23.974 -13.210  0.00  0.00    -0.379 OA
ATOM     25  H   UNL     1      29.484 -23.321 -13.514  0.00  0.00    +0.211 HD
ENDBRANCH   4  24
BRANCH   9  26
ATOM     26  O   UNL     1      35.843 -23.443 -16.136  0.00  0.00    -0.506 OA
ATOM     27  H   UNL     1      36.000 -23.696 -15.248  0.00  0.00    +0.292 HD
ENDBRANCH   9  26
BRANCH  10  28
ATOM     28  O   UNL     1      30.862 -21.586 -17.616  0.00  0.00    -0.506 OA
ATOM     29  H   UNL     1      30.515 -20.811 -17.219  0.00  0.00    +0.292 HD
ENDBRANCH  10  28
BRANCH   3  30
ATOM     30  O   UNL     1      34.864 -23.556 -13.704  0.00  0.00    -0.328 OA
BRANCH  30  32
ATOM     31  O   UNL     1      36.511 -24.141 -12.100  0.00  0.00    -0.331 OA
ATOM     32  C   UNL     1      35.410 -24.591 -12.890  0.00  0.00    +0.233 C 
ATOM     33  C   UNL     1      37.040 -25.440 -14.613  0.00  0.00    -0.031 C 
ATOM     34  C   UNL     1      35.809 -25.779 -13.767  0.00  0.00    +0.042 C 
ATOM     35  C   UNL     1      38.170 -24.912 -13.719  0.00  0.00    +0.118 C 
ATOM     36  C   UNL     1      37.654 -23.743 -12.868  0.00  0.00    +0.142 C 
ATOM     37  C   UNL     1      38.704 -23.234 -11.885  0.00  0.00    +0.035 C 
BRANCH  33  38
ATOM     38  N   UNL     1      37.471 -26.614 -15.371  0.00  0.00    +0.384 N 
ATOM     39  H   UNL     1      36.679 -27.242 -15.503  0.00  0.00    -0.089 HD
ATOM     40  H   UNL     1      38.208 -27.097 -14.858  0.00  0.00    -0.089 HD
ATOM     41  H   UNL     1      37.826 -26.318 -16.281  0.00  0.00    -0.089 HD
ENDBRANCH  33  38
BRANCH  35  42
ATOM     42  O   UNL     1      38.633 -25.945 -12.848  0.00  0.00    -0.384 OA
ATOM     43  H   UNL     1      38.128 -26.757 -13.012  0.00  0.00    +0.210 HD
ENDBRANCH  35  42
ENDBRANCH  30  32
ENDBRANCH   3  30
TORSDOF 8
ENDMDL
MODEL 7
REMARK VINA RESULT:      -5.1     14.600     19.117
REMARK  Name = 42890
REMARK  8 active torsions:
REMARK  status: ('A' for Active; 'I' for Inactive)
REMARK    1  A    between atoms: C_3  and  O_30
REMARK    2  A    between atoms: C_4  and  C_22
REMARK    3  A    between atoms: C_4  and  O_24
REMARK    4  A    between atoms: C_9  and  O_26
REMARK    5  A    between atoms: C_10  and  O_28
REMARK    6  A    between atoms: O_30  and  C_32
REMARK    7  A    between atoms: C_33  and  N_38
REMARK    8  A    between atoms: C_35  and  O_42
REMARK                            x       y       z     vdW  Elec       q    Type
REMARK                         _______ _______ _______ _____ _____    ______ ____
ROOT
ATOM      1  O   UNL     1      35.278  -9.775 -24.524  0.00  0.00    -0.286 OA
ATOM      2  O   UNL     1      30.319 -10.258 -22.599  0.00  0.00    -0.286 OA
ATOM      3  C   UNL     1      33.247  -5.112 -25.306  0.00  0.00    +0.145 C 
ATOM      4  C   UNL     1      31.102  -4.033 -24.490  0.00  0.00    +0.146 C 
ATOM      5  C   UNL     1      32.122  -4.121 -25.618  0.00  0.00    +0.069 C 
ATOM      6  C   UNL     1      30.472  -5.401 -24.217  0.00  0.00    +0.063 C 
ATOM      7  C   UNL     1      32.753  -6.422 -24.734  0.00  0.00    +0.038 A 
ATOM      8  C   UNL     1      31.460  -6.544 -24.195  0.00  0.00    +0.016 A 
ATOM      9  C   UNL     1      33.623  -7.524 -24.674  0.00  0.00    +0.135 A 
ATOM     10  C   UNL     1      31.045  -7.773 -23.656  0.00  0.00    +0.133 A 
ATOM     11  C   UNL     1      33.206  -8.742 -24.125  0.00  0.00    +0.078 A 
ATOM     12  C   UNL     1      31.915  -8.868 -23.619  0.00  0.00    +0.078 A 
ATOM     13  C   UNL     1      34.141  -9.886 -24.083  0.00  0.00    +0.199 C 
ATOM     14  C   UNL     1      31.456 -10.148 -23.040  0.00  0.00    +0.199 C 
ATOM     15  C   UNL     1      33.685 -11.165 -23.504  0.00  0.00    +0.042 C 
ATOM     16  C   UNL     1      32.389 -11.292 -23.000  0.00  0.00    +0.042 C 
ATOM     17  C   UNL     1      34.561 -12.257 -23.460  0.00  0.00    +0.003 C 
ATOM     18  C   UNL     1      31.968 -12.509 -22.453  0.00  0.00    +0.003 C 
ATOM     19  C   UNL     1      34.137 -13.469 -22.914  0.00  0.00    +0.000 C 
ATOM     20  C   UNL     1      32.843 -13.595 -22.412  0.00  0.00    +0.000 C 
ENDROOT
BRANCH   4  22
ATOM     21  O   UNL     1      31.958  -4.101 -22.258  0.00  0.00    -0.294 OA
ATOM     22  C   UNL     1      31.701  -3.423 -23.253  0.00  0.00    +0.175 C 
ATOM     23  C   UNL     1      31.973  -1.944 -23.291  0.00  0.00    +0.075 C 
ENDBRANCH   4  22
BRANCH   4  24
ATOM     24  O   UNL     1      30.088  -3.108 -24.872  0.00  0.00    -0.379 OA
ATOM     25  H   UNL     1      30.500  -2.273 -25.146  0.00  0.00    +0.211 HD
ENDBRANCH   4  24
BRANCH   9  26
ATOM     26  O   UNL     1      34.905  -7.372 -25.127  0.00  0.00    -0.506 OA
ATOM     27  H   UNL     1      35.198  -7.853 -25.876  0.00  0.00    +0.292 HD
ENDBRANCH   9  26
BRANCH  10  28
ATOM     28  O   UNL     1      29.768  -7.869 -23.174  0.00  0.00    -0.506 OA
ATOM     29  H   UNL     1      29.094  -8.245 -23.706  0.00  0.00    +0.292 HD
ENDBRANCH  10  28
BRANCH   3  30
ATOM     30  O   UNL     1      33.975  -5.345 -26.510  0.00  0.00    -0.328 OA
BRANCH  30  32
ATOM     31  O   UNL     1      34.088  -3.387 -27.845  0.00  0.00    -0.331 OA
ATOM     32  C   UNL     1      34.747  -4.205 -26.877  0.00  0.00    +0.233 C 
ATOM     33  C   UNL     1      36.006  -5.336 -28.743  0.00  0.00    -0.031 C 
ATOM     34  C   UNL     1      36.122  -4.652 -27.376  0.00  0.00    +0.042 C 
ATOM     35  C   UNL     1      35.244  -4.436 -29.725  0.00  0.00    +0.118 C 
ATOM     36  C   UNL     1      33.896  -4.027 -29.113  0.00  0.00    +0.142 C 
ATOM     37  C   UNL     1      33.129  -3.052 -30.000  0.00  0.00    +0.035 C 
BRANCH  33  38
ATOM     38  N   UNL     1      37.334  -5.670 -29.254  0.00  0.00    +0.384 N 
ATOM     39  H   UNL     1      38.020  -5.020 -28.871  0.00  0.00    -0.089 HD
ATOM     40  H   UNL     1      37.333  -5.603 -30.272  0.00  0.00    -0.089 HD
ATOM     41  H   UNL     1      37.576  -6.621 -28.976  0.00  0.00    -0.089 HD
ENDBRANCH  33  38
BRANCH  35  42
ATOM     42  O   UNL     1      36.000  -3.256 -30.000  0.00  0.00    -0.384 OA
ATOM     43  H   UNL     1      35.881  -3.006 -30.931  0.00  0.00    +0.210 HD
ENDBRANCH  35  42
ENDBRANCH  30  32
ENDBRANCH   3  30
TORSDOF 8
ENDMDL
