MODEL 1
REMARK VINA RESULT:      -7.5      0.000      0.000
REMARK  Name = 126569
REMARK  5 active torsions:
REMARK  status: ('A' for Active; 'I' for Inactive)
REMARK    1  A    between atoms: N_4  and  C_11
REMARK    2  A    between atoms: C_11  and  CA_12
REMARK    3  A    between atoms: CA_12  and  N_13
REMARK    4  A    between atoms: CA_12  and  C_18
REMARK    5  A    between atoms: C_18  and  O_19
REMARK                            x       y       z     vdW  Elec       q    Type
REMARK                         _______ _______ _______ _____ _____    ______ ____
ROOT
ATOM      1  F   UNL     1      35.053 -23.606 -11.249  0.00  0.00    -0.198 F 
ATOM      2  O   UNL     1      35.969 -26.298 -15.849  0.00  0.00    -0.252 OA
ATOM      3  O   UNL     1      33.183 -23.724 -13.219  0.00  0.00    -0.267 OA
ATOM      4  N   UNL     1      36.730 -25.610 -13.750  0.00  0.00    -0.241 N 
ATOM      5  N   UNL     1      34.583 -25.018 -14.539  0.00  0.00    -0.234 N 
ATOM      6  C   UNL     1      35.787 -25.693 -14.790  0.00  0.00    +0.314 C 
ATOM      7  C   UNL     1      36.467 -24.916 -12.586  0.00  0.00    +0.103 C 
ATOM      8  C   UNL     1      35.312 -24.285 -12.381  0.00  0.00    +0.208 C 
ATOM      9  C   UNL     1      34.250 -24.301 -13.397  0.00  0.00    +0.282 C 
ATOM     10  H   UNL     1      33.900 -25.056 -15.249  0.00  0.00    +0.159 HD
ENDROOT
BRANCH   4  11
ATOM     11  C   UNL     1      38.027 -26.265 -13.872  0.00  0.00    +0.089 C 
BRANCH  11  12
ATOM     12  CA  UNL     1      39.121 -25.286 -14.296  0.00  0.00    +0.056 C 
BRANCH  12  13
ATOM     13  N   UNL     1      38.652 -24.464 -15.411  0.00  0.00    +0.390 N 
ATOM     14  H1  UNL     1      38.881 -23.487 -15.232  0.00  0.00    -0.088 HD
ATOM     15  H2  UNL     1      37.642 -24.565 -15.506  0.00  0.00    -0.088 HD
ATOM     16  H3  UNL     1      39.107 -24.767 -16.272  0.00  0.00    -0.088 HD
ENDBRANCH  12  13
BRANCH  12  18
ATOM     17  OXT UNL     1      41.208 -26.524 -14.046  0.00  0.00    -0.253 OA
ATOM     18  C   UNL     1      40.382 -25.986 -14.772  0.00  0.00    +0.295 C 
BRANCH  18  19
ATOM     19  O   UNL     1      40.500 -25.963 -16.127  0.00  0.00    -0.482 OA
ATOM     20  H   UNL     1      41.336 -25.818 -16.522  0.00  0.00    +0.295 HD
ENDBRANCH  18  19
ENDBRANCH  12  18
ENDBRANCH  11  12
ENDBRANCH   4  11
TORSDOF 5
ENDMDL
MODEL 2
REMARK VINA RESULT:      -7.4      2.087      2.308
REMARK  Name = 126569
REMARK  5 active torsions:
REMARK  status: ('A' for Active; 'I' for Inactive)
REMARK    1  A    between atoms: N_4  and  C_11
REMARK    2  A    between atoms: C_11  and  CA_12
REMARK    3  A    between atoms: CA_12  and  N_13
REMARK    4  A    between atoms: CA_12  and  C_18
REMARK    5  A    between atoms: C_18  and  O_19
REMARK                            x       y       z     vdW  Elec       q    Type
REMARK                         _______ _______ _______ _____ _____    ______ ____
ROOT
ATOM      1  F   UNL     1      34.212 -22.951 -15.810  0.00  0.00    -0.198 F 
ATOM      2  O   UNL     1      36.342 -25.465 -11.522  0.00  0.00    -0.252 OA
ATOM      3  O   UNL     1      32.648 -23.879 -13.790  0.00  0.00    -0.267 OA
ATOM      4  N   UNL     1      36.661 -24.394 -13.573  0.00  0.00    -0.241 N 
ATOM      5  N   UNL     1      34.504 -24.675 -12.651  0.00  0.00    -0.234 N 
ATOM      6  C   UNL     1      35.884 -24.888 -12.510  0.00  0.00    +0.314 C 
ATOM      7  C   UNL     1      36.089 -23.756 -14.655  0.00  0.00    +0.103 C 
ATOM      8  C   UNL     1      34.774 -23.571 -14.757  0.00  0.00    +0.208 C 
ATOM      9  C   UNL     1      33.860 -24.045 -13.707  0.00  0.00    +0.282 C 
ATOM     10  H   UNL     1      33.930 -25.009 -11.922  0.00  0.00    +0.159 HD
ENDROOT
BRANCH   4  11
ATOM     11  C   UNL     1      38.112 -24.544 -13.562  0.00  0.00    +0.089 C 
BRANCH  11  12
ATOM     12  CA  UNL     1      38.599 -25.456 -14.687  0.00  0.00    +0.056 C 
BRANCH  12  13
ATOM     13  N   UNL     1      38.331 -26.853 -14.349  0.00  0.00    +0.390 N 
ATOM     14  H1  UNL     1      38.664 -27.455 -15.102  0.00  0.00    -0.088 HD
ATOM     15  H2  UNL     1      37.327 -26.987 -14.227  0.00  0.00    -0.088 HD
ATOM     16  H3  UNL     1      38.814 -27.093 -13.485  0.00  0.00    -0.088 HD
ENDBRANCH  12  13
BRANCH  12  18
ATOM     17  OXT UNL     1      40.886 -24.769 -14.191  0.00  0.00    -0.253 OA
ATOM     18  C   UNL     1      40.095 -25.345 -14.926  0.00  0.00    +0.295 C 
BRANCH  18  19
ATOM     19  O   UNL     1      40.478 -25.978 -16.067  0.00  0.00    -0.482 OA
ATOM     20  H   UNL     1      39.850 -26.453 -16.574  0.00  0.00    +0.295 HD
ENDBRANCH  18  19
ENDBRANCH  12  18
ENDBRANCH  11  12
ENDBRANCH   4  11
TORSDOF 5
ENDMDL
MODEL 3
REMARK VINA RESULT:      -7.2      2.249      2.901
REMARK  Name = 126569
REMARK  5 active torsions:
REMARK  status: ('A' for Active; 'I' for Inactive)
REMARK    1  A    between atoms: N_4  and  C_11
REMARK    2  A    between atoms: C_11  and  CA_12
REMARK    3  A    between atoms: CA_12  and  N_13
REMARK    4  A    between atoms: CA_12  and  C_18
REMARK    5  A    between atoms: C_18  and  O_19
REMARK                            x       y       z     vdW  Elec       q    Type
REMARK                         _______ _______ _______ _____ _____    ______ ____
ROOT
ATOM      1  F   UNL     1      33.964 -24.945 -12.178  0.00  0.00    -0.198 F 
ATOM      2  O   UNL     1      39.155 -23.453 -11.904  0.00  0.00    -0.252 OA
ATOM      3  O   UNL     1      35.138 -24.328  -9.805  0.00  0.00    -0.267 OA
ATOM      4  N   UNL     1      37.333 -24.120 -13.205  0.00  0.00    -0.241 N 
ATOM      5  N   UNL     1      37.155 -23.888 -10.861  0.00  0.00    -0.234 N 
ATOM      6  C   UNL     1      37.973 -23.795 -11.996  0.00  0.00    +0.314 C 
ATOM      7  C   UNL     1      36.006 -24.497 -13.244  0.00  0.00    +0.103 C 
ATOM      8  C   UNL     1      35.257 -24.576 -12.145  0.00  0.00    +0.208 C 
ATOM      9  C   UNL     1      35.818 -24.260 -10.824  0.00  0.00    +0.282 C 
ATOM     10  H   UNL     1      37.573 -23.666  -9.996  0.00  0.00    +0.159 HD
ENDROOT
BRANCH   4  11
ATOM     11  C   UNL     1      38.061 -24.067 -14.467  0.00  0.00    +0.089 C 
BRANCH  11  12
ATOM     12  CA  UNL     1      38.582 -25.442 -14.882  0.00  0.00    +0.056 C 
BRANCH  12  13
ATOM     13  N   UNL     1      38.266 -26.429 -13.851  0.00  0.00    +0.390 N 
ATOM     14  H1  UNL     1      37.262 -26.420 -13.669  0.00  0.00    -0.088 HD
ATOM     15  H2  UNL     1      38.769 -26.199 -12.994  0.00  0.00    -0.088 HD
ATOM     16  H3  UNL     1      38.544 -27.356 -14.170  0.00  0.00    -0.088 HD
ENDBRANCH  12  13
BRANCH  12  18
ATOM     17  OXT UNL     1      40.690 -26.116 -15.910  0.00  0.00    -0.253 OA
ATOM     18  C   UNL     1      40.091 -25.468 -15.061  0.00  0.00    +0.295 C 
BRANCH  18  19
ATOM     19  O   UNL     1      40.726 -24.668 -14.163  0.00  0.00    -0.482 OA
ATOM     20  H   UNL     1      40.562 -24.770 -13.247  0.00  0.00    +0.295 HD
ENDBRANCH  18  19
ENDBRANCH  12  18
ENDBRANCH  11  12
ENDBRANCH   4  11
TORSDOF 5
ENDMDL
MODEL 4
REMARK VINA RESULT:      -7.1      2.741      5.265
REMARK  Name = 126569
REMARK  5 active torsions:
REMARK  status: ('A' for Active; 'I' for Inactive)
REMARK    1  A    between atoms: N_4  and  C_11
REMARK    2  A    between atoms: C_11  and  CA_12
REMARK    3  A    between atoms: CA_12  and  N_13
REMARK    4  A    between atoms: CA_12  and  C_18
REMARK    5  A    between atoms: C_18  and  O_19
REMARK                            x       y       z     vdW  Elec       q    Type
REMARK                         _______ _______ _______ _____ _____    ______ ____
ROOT
ATOM      1  F   UNL     1      40.396 -26.466 -13.185  0.00  0.00    -0.198 F 
ATOM      2  O   UNL     1      37.284 -22.817 -15.683  0.00  0.00    -0.252 OA
ATOM      3  O   UNL     1      40.697 -25.921 -15.831  0.00  0.00    -0.267 OA
ATOM      4  N   UNL     1      37.853 -23.951 -13.722  0.00  0.00    -0.241 N 
ATOM      5  N   UNL     1      38.983 -24.361 -15.756  0.00  0.00    -0.234 N 
ATOM      6  C   UNL     1      37.980 -23.643 -15.088  0.00  0.00    +0.314 C 
ATOM      7  C   UNL     1      38.663 -24.887 -13.111  0.00  0.00    +0.103 C 
ATOM      8  C   UNL     1      39.606 -25.552 -13.776  0.00  0.00    +0.208 C 
ATOM      9  C   UNL     1      39.831 -25.315 -15.209  0.00  0.00    +0.282 C 
ATOM     10  H   UNL     1      39.099 -24.169 -16.716  0.00  0.00    +0.159 HD
ENDROOT
BRANCH   4  11
ATOM     11  C   UNL     1      36.852 -23.280 -12.901  0.00  0.00    +0.089 C 
BRANCH  11  12
ATOM     12  CA  UNL     1      35.768 -24.247 -12.423  0.00  0.00    +0.056 C 
BRANCH  12  13
ATOM     13  N   UNL     1      34.445 -23.704 -12.726  0.00  0.00    +0.390 N 
ATOM     14  H1  UNL     1      33.798 -24.470 -12.911  0.00  0.00    -0.088 HD
ATOM     15  H2  UNL     1      34.504 -23.102 -13.547  0.00  0.00    -0.088 HD
ATOM     16  H3  UNL     1      34.110 -23.162 -11.930  0.00  0.00    -0.088 HD
ENDBRANCH  12  13
BRANCH  12  18
ATOM     17  OXT UNL     1      35.111 -25.278 -10.312  0.00  0.00    -0.253 OA
ATOM     18  C   UNL     1      35.811 -24.480 -10.923  0.00  0.00    +0.295 C 
BRANCH  18  19
ATOM     19  O   UNL     1      36.739 -23.697 -10.310  0.00  0.00    -0.482 OA
ATOM     20  H   UNL     1      37.406 -23.278 -10.816  0.00  0.00    +0.295 HD
ENDBRANCH  18  19
ENDBRANCH  12  18
ENDBRANCH  11  12
ENDBRANCH   4  11
TORSDOF 5
ENDMDL
MODEL 5
REMARK VINA RESULT:      -7.0      3.400      4.598
REMARK  Name = 126569
REMARK  5 active torsions:
REMARK  status: ('A' for Active; 'I' for Inactive)
REMARK    1  A    between atoms: N_4  and  C_11
REMARK    2  A    between atoms: C_11  and  CA_12
REMARK    3  A    between atoms: CA_12  and  N_13
REMARK    4  A    between atoms: CA_12  and  C_18
REMARK    5  A    between atoms: C_18  and  O_19
REMARK                            x       y       z     vdW  Elec       q    Type
REMARK                         _______ _______ _______ _____ _____    ______ ____
ROOT
ATOM      1  F   UNL     1      30.197 -22.788 -14.330  0.00  0.00    -0.198 F 
ATOM      2  O   UNL     1      34.263 -23.276 -17.862  0.00  0.00    -0.252 OA
ATOM      3  O   UNL     1      29.777 -22.599 -17.009  0.00  0.00    -0.267 OA
ATOM      4  N   UNL     1      33.534 -23.262 -15.642  0.00  0.00    -0.241 N 
ATOM      5  N   UNL     1      32.031 -22.940 -17.437  0.00  0.00    -0.234 N 
ATOM      6  C   UNL     1      33.355 -23.170 -17.034  0.00  0.00    +0.314 C 
ATOM      7  C   UNL     1      32.477 -23.134 -14.765  0.00  0.00    +0.103 C 
ATOM      8  C   UNL     1      31.230 -22.915 -15.182  0.00  0.00    +0.208 C 
ATOM      9  C   UNL     1      30.921 -22.800 -16.614  0.00  0.00    +0.282 C 
ATOM     10  H   UNL     1      31.870 -22.871 -18.407  0.00  0.00    +0.159 HD
ENDROOT
BRANCH   4  11
ATOM     11  C   UNL     1      34.858 -23.500 -15.080  0.00  0.00    +0.089 C 
BRANCH  11  12
ATOM     12  CA  UNL     1      35.039 -24.955 -14.647  0.00  0.00    +0.056 C 
BRANCH  12  13
ATOM     13  N   UNL     1      35.322 -25.019 -13.214  0.00  0.00    +0.390 N 
ATOM     14  H1  UNL     1      34.757 -25.754 -12.789  0.00  0.00    -0.088 HD
ATOM     15  H2  UNL     1      35.095 -24.123 -12.783  0.00  0.00    -0.088 HD
ATOM     16  H3  UNL     1      36.310 -25.225 -13.071  0.00  0.00    -0.088 HD
ENDBRANCH  12  13
BRANCH  12  18
ATOM     17  OXT UNL     1      36.211 -26.799 -15.731  0.00  0.00    -0.253 OA
ATOM     18  C   UNL     1      36.201 -25.636 -15.351  0.00  0.00    +0.295 C 
BRANCH  18  19
ATOM     19  O   UNL     1      37.254 -24.794 -15.530  0.00  0.00    -0.482 OA
ATOM     20  H   UNL     1      38.090 -25.005 -15.164  0.00  0.00    +0.295 HD
ENDBRANCH  18  19
ENDBRANCH  12  18
ENDBRANCH  11  12
ENDBRANCH   4  11
TORSDOF 5
ENDMDL
MODEL 6
REMARK VINA RESULT:      -7.0     12.204     13.529
REMARK  Name = 126569
REMARK  5 active torsions:
REMARK  status: ('A' for Active; 'I' for Inactive)
REMARK    1  A    between atoms: N_4  and  C_11
REMARK    2  A    between atoms: C_11  and  CA_12
REMARK    3  A    between atoms: CA_12  and  N_13
REMARK    4  A    between atoms: CA_12  and  C_18
REMARK    5  A    between atoms: C_18  and  O_19
REMARK                            x       y       z     vdW  Elec       q    Type
REMARK                         _______ _______ _______ _____ _____    ______ ____
ROOT
ATOM      1  F   UNL     1      34.978 -19.531 -24.011  0.00  0.00    -0.198 F 
ATOM      2  O   UNL     1      34.941 -15.645 -20.250  0.00  0.00    -0.252 OA
ATOM      3  O   UNL     1      35.318 -20.106 -21.376  0.00  0.00    -0.267 OA
ATOM      4  N   UNL     1      34.771 -16.251 -22.500  0.00  0.00    -0.241 N 
ATOM      5  N   UNL     1      35.128 -17.865 -20.811  0.00  0.00    -0.234 N 
ATOM      6  C   UNL     1      34.944 -16.511 -21.129  0.00  0.00    +0.314 C 
ATOM      7  C   UNL     1      34.785 -17.265 -23.437  0.00  0.00    +0.103 C 
ATOM      8  C   UNL     1      34.963 -18.541 -23.101  0.00  0.00    +0.208 C 
ATOM      9  C   UNL     1      35.154 -18.934 -21.697  0.00  0.00    +0.282 C 
ATOM     10  H   UNL     1      35.252 -18.081 -19.858  0.00  0.00    +0.159 HD
ENDROOT
BRANCH   4  11
ATOM     11  C   UNL     1      34.569 -14.888 -22.976  0.00  0.00    +0.089 C 
BRANCH  11  12
ATOM     12  CA  UNL     1      33.091 -14.587 -23.228  0.00  0.00    +0.056 C 
BRANCH  12  13
ATOM     13  N   UNL     1      32.910 -14.067 -24.582  0.00  0.00    +0.390 N 
ATOM     14  H1  UNL     1      32.726 -13.065 -24.539  0.00  0.00    -0.088 HD
ATOM     15  H2  UNL     1      32.122 -14.540 -25.025  0.00  0.00    -0.088 HD
ATOM     16  H3  UNL     1      33.756 -14.233 -25.126  0.00  0.00    -0.088 HD
ENDBRANCH  12  13
BRANCH  12  18
ATOM     17  OXT UNL     1      32.002 -12.490 -22.622  0.00  0.00    -0.253 OA
ATOM     18  C   UNL     1      32.538 -13.537 -22.280  0.00  0.00    +0.295 C 
BRANCH  18  19
ATOM     19  O   UNL     1      32.694 -13.891 -20.977  0.00  0.00    -0.482 OA
ATOM     20  H   UNL     1      32.111 -14.513 -20.587  0.00  0.00    +0.295 HD
ENDBRANCH  18  19
ENDBRANCH  12  18
ENDBRANCH  11  12
ENDBRANCH   4  11
TORSDOF 5
ENDMDL
MODEL 7
REMARK VINA RESULT:      -6.9     13.858     14.837
REMARK  Name = 126569
REMARK  5 active torsions:
REMARK  status: ('A' for Active; 'I' for Inactive)
REMARK    1  A    between atoms: N_4  and  C_11
REMARK    2  A    between atoms: C_11  and  CA_12
REMARK    3  A    between atoms: CA_12  and  N_13
REMARK    4  A    between atoms: CA_12  and  C_18
REMARK    5  A    between atoms: C_18  and  O_19
REMARK                            x       y       z     vdW  Elec       q    Type
REMARK                         _______ _______ _______ _____ _____    ______ ____
ROOT
ATOM      1  F   UNL     1      35.107 -16.531 -20.487  0.00  0.00    -0.198 F 
ATOM      2  O   UNL     1      34.550 -16.515 -25.865  0.00  0.00    -0.252 OA
ATOM      3  O   UNL     1      36.233 -18.462 -22.033  0.00  0.00    -0.267 OA
ATOM      4  N   UNL     1      34.095 -15.511 -23.806  0.00  0.00    -0.241 N 
ATOM      5  N   UNL     1      35.388 -17.483 -23.958  0.00  0.00    -0.234 N 
ATOM      6  C   UNL     1      34.662 -16.493 -24.637  0.00  0.00    +0.314 C 
ATOM      7  C   UNL     1      34.255 -15.541 -22.435  0.00  0.00    +0.103 C 
ATOM      8  C   UNL     1      34.951 -16.497 -21.822  0.00  0.00    +0.208 C 
ATOM      9  C   UNL     1      35.589 -17.577 -22.587  0.00  0.00    +0.282 C 
ATOM     10  H   UNL     1      35.799 -18.186 -24.512  0.00  0.00    +0.159 HD
ENDROOT
BRANCH   4  11
ATOM     11  C   UNL     1      33.313 -14.419 -24.375  0.00  0.00    +0.089 C 
BRANCH  11  12
ATOM     12  CA  UNL     1      33.638 -13.081 -23.711  0.00  0.00    +0.056 C 
BRANCH  12  13
ATOM     13  N   UNL     1      32.484 -12.609 -22.947  0.00  0.00    +0.390 N 
ATOM     14  H1  UNL     1      32.556 -11.601 -22.812  0.00  0.00    -0.088 HD
ATOM     15  H2  UNL     1      32.464 -13.073 -22.039  0.00  0.00    -0.088 HD
ATOM     16  H3  UNL     1      31.628 -12.822 -23.458  0.00  0.00    -0.088 HD
ENDBRANCH  12  13
BRANCH  12  18
ATOM     17  OXT UNL     1      33.706 -12.032 -25.912  0.00  0.00    -0.253 OA
ATOM     18  C   UNL     1      33.969 -11.992 -24.717  0.00  0.00    +0.295 C 
BRANCH  18  19
ATOM     19  O   UNL     1      34.597 -10.934 -24.138  0.00  0.00    -0.482 OA
ATOM     20  H   UNL     1      35.479 -11.020 -23.837  0.00  0.00    +0.295 HD
ENDBRANCH  18  19
ENDBRANCH  12  18
ENDBRANCH  11  12
ENDBRANCH   4  11
TORSDOF 5
ENDMDL
MODEL 8
REMARK VINA RESULT:      -6.8      3.176      4.082
REMARK  Name = 126569
REMARK  5 active torsions:
REMARK  status: ('A' for Active; 'I' for Inactive)
REMARK    1  A    between atoms: N_4  and  C_11
REMARK    2  A    between atoms: C_11  and  CA_12
REMARK    3  A    between atoms: CA_12  and  N_13
REMARK    4  A    between atoms: CA_12  and  C_18
REMARK    5  A    between atoms: C_18  and  O_19
REMARK                            x       y       z     vdW  Elec       q    Type
REMARK                         _______ _______ _______ _____ _____    ______ ____
ROOT
ATOM      1  F   UNL     1      33.196 -22.613 -18.080  0.00  0.00    -0.198 F 
ATOM      2  O   UNL     1      32.596 -24.702 -13.129  0.00  0.00    -0.252 OA
ATOM      3  O   UNL     1      30.748 -22.819 -16.917  0.00  0.00    -0.267 OA
ATOM      4  N   UNL     1      34.012 -24.106 -14.889  0.00  0.00    -0.241 N 
ATOM      5  N   UNL     1      31.677 -23.764 -15.014  0.00  0.00    -0.234 N 
ATOM      6  C   UNL     1      32.762 -24.229 -14.256  0.00  0.00    +0.314 C 
ATOM      7  C   UNL     1      34.134 -23.568 -16.154  0.00  0.00    +0.103 C 
ATOM      8  C   UNL     1      33.082 -23.136 -16.847  0.00  0.00    +0.208 C 
ATOM      9  C   UNL     1      31.724 -23.214 -16.288  0.00  0.00    +0.282 C 
ATOM     10  H   UNL     1      30.786 -23.836 -14.599  0.00  0.00    +0.159 HD
ENDROOT
BRANCH   4  11
ATOM     11  C   UNL     1      35.229 -24.548 -14.218  0.00  0.00    +0.089 C 
BRANCH  11  12
ATOM     12  CA  UNL     1      36.182 -25.259 -15.179  0.00  0.00    +0.056 C 
BRANCH  12  13
ATOM     13  N   UNL     1      35.997 -26.706 -15.088  0.00  0.00    +0.390 N 
ATOM     14  H1  UNL     1      36.719 -27.176 -15.633  0.00  0.00    -0.088 HD
ATOM     15  H2  UNL     1      35.078 -26.955 -15.454  0.00  0.00    -0.088 HD
ATOM     16  H3  UNL     1      36.065 -26.997 -14.113  0.00  0.00    -0.088 HD
ENDBRANCH  12  13
BRANCH  12  18
ATOM     17  OXT UNL     1      38.066 -23.997 -14.280  0.00  0.00    -0.253 OA
ATOM     18  C   UNL     1      37.643 -24.986 -14.864  0.00  0.00    +0.295 C 
BRANCH  18  19
ATOM     19  O   UNL     1      38.455 -25.986 -15.301  0.00  0.00    -0.482 OA
ATOM     20  H   UNL     1      38.157 -26.873 -15.281  0.00  0.00    +0.295 HD
ENDBRANCH  18  19
ENDBRANCH  12  18
ENDBRANCH  11  12
ENDBRANCH   4  11
TORSDOF 5
ENDMDL
MODEL 9
REMARK VINA RESULT:      -6.8      9.007      9.863
REMARK  Name = 126569
REMARK  5 active torsions:
REMARK  status: ('A' for Active; 'I' for Inactive)
REMARK    1  A    between atoms: N_4  and  C_11
REMARK    2  A    between atoms: C_11  and  CA_12
REMARK    3  A    between atoms: CA_12  and  N_13
REMARK    4  A    between atoms: CA_12  and  C_18
REMARK    5  A    between atoms: C_18  and  O_19
REMARK                            x       y       z     vdW  Elec       q    Type
REMARK                         _______ _______ _______ _____ _____    ______ ____
ROOT
ATOM      1  F   UNL     1      37.151 -21.759 -19.158  0.00  0.00    -0.198 F 
ATOM      2  O   UNL     1      32.219 -20.184 -20.718  0.00  0.00    -0.252 OA
ATOM      3  O   UNL     1      34.911 -22.708 -17.945  0.00  0.00    -0.267 OA
ATOM      4  N   UNL     1      34.536 -20.058 -20.987  0.00  0.00    -0.241 N 
ATOM      5  N   UNL     1      33.559 -21.440 -19.339  0.00  0.00    -0.234 N 
ATOM      6  C   UNL     1      33.355 -20.527 -20.384  0.00  0.00    +0.314 C 
ATOM      7  C   UNL     1      35.782 -20.478 -20.568  0.00  0.00    +0.103 C 
ATOM      8  C   UNL     1      35.939 -21.348 -19.571  0.00  0.00    +0.208 C 
ATOM      9  C   UNL     1      34.778 -21.907 -18.864  0.00  0.00    +0.282 C 
ATOM     10  H   UNL     1      32.752 -21.789 -18.894  0.00  0.00    +0.159 HD
ENDROOT
BRANCH   4  11
ATOM     11  C   UNL     1      34.477 -19.103 -22.088  0.00  0.00    +0.089 C 
BRANCH  11  12
ATOM     12  CA  UNL     1      35.401 -17.908 -21.855  0.00  0.00    +0.056 C 
BRANCH  12  13
ATOM     13  N   UNL     1      34.978 -17.173 -20.665  0.00  0.00    +0.390 N 
ATOM     14  H1  UNL     1      34.087 -16.714 -20.848  0.00  0.00    -0.088 HD
ATOM     15  H2  UNL     1      35.681 -16.472 -20.431  0.00  0.00    -0.088 HD
ATOM     16  H3  UNL     1      34.872 -17.821 -19.885  0.00  0.00    -0.088 HD
ENDBRANCH  12  13
BRANCH  12  18
ATOM     17  OXT UNL     1      35.299 -15.703 -22.893  0.00  0.00    -0.253 OA
ATOM     18  C   UNL     1      35.382 -16.919 -23.008  0.00  0.00    +0.295 C 
BRANCH  18  19
ATOM     19  O   UNL     1      35.478 -17.538 -24.215  0.00  0.00    -0.482 OA
ATOM     20  H   UNL     1      34.759 -17.511 -24.814  0.00  0.00    +0.295 HD
ENDBRANCH  18  19
ENDBRANCH  12  18
ENDBRANCH  11  12
ENDBRANCH   4  11
TORSDOF 5
ENDMDL
