MODEL 1
REMARK VINA RESULT:      -6.2      0.000      0.000
REMARK  Name = 445420
REMARK  2 active torsions:
REMARK  status: ('A' for Active; 'I' for Inactive)
REMARK    1  A    between atoms: C_4  and  C_26
REMARK    2  A    between atoms: C_4  and  O_30
REMARK                            x       y       z     vdW  Elec       q    Type
REMARK                         _______ _______ _______ _____ _____    ______ ____
ROOT
ATOM      1  O   UNL     1      37.059 -23.354 -16.026  0.00  0.00    -0.335 OA
ATOM      2  O   UNL     1      33.980 -23.795 -14.139  0.00  0.00    -0.449 OA
ATOM      3  O   UNL     1      33.706 -24.605 -11.998  0.00  0.00    -0.245 OA
ATOM      4  C   UNL     1      36.744 -24.566 -15.332  0.00  0.00    +0.205 C 
ATOM      5  C   UNL     1      35.976 -22.423 -16.082  0.00  0.00    +0.121 C 
ATOM      6  C   UNL     1      36.374 -24.250 -13.875  0.00  0.00    +0.101 C 
ATOM      7  C   UNL     1      35.252 -23.211 -13.768  0.00  0.00    +0.177 C 
ATOM      8  C   UNL     1      35.545 -22.010 -14.670  0.00  0.00    +0.073 C 
ATOM      9  C   UNL     1      36.434 -21.189 -16.877  0.00  0.00    +0.030 C 
ATOM     10  C   UNL     1      36.939 -21.481 -18.302  0.00  0.00    +0.007 C 
ATOM     11  C   UNL     1      35.898 -22.084 -19.266  0.00  0.00    +0.022 C 
ATOM     12  C   UNL     1      36.544 -22.364 -20.627  0.00  0.00    +0.005 C 
ATOM     13  C   UNL     1      33.313 -24.443 -13.148  0.00  0.00    +0.341 C 
ATOM     14  C   UNL     1      34.715 -21.159 -19.458  0.00  0.00    -0.026 C 
ATOM     15  C   UNL     1      32.035 -25.040 -13.594  0.00  0.00    +0.073 C 
ATOM     16  C   UNL     1      33.452 -21.338 -19.036  0.00  0.00    -0.005 C 
ATOM     17  C   UNL     1      31.151 -24.620 -14.518  0.00  0.00    -0.037 C 
ATOM     18  C   UNL     1      31.256 -23.373 -15.368  0.00  0.00    +0.027 C 
ATOM     19  C   UNL     1      32.959 -22.487 -18.316  0.00  0.00    -0.005 C 
ATOM     20  C   UNL     1      31.353 -23.708 -16.862  0.00  0.00    +0.030 C 
ATOM     21  C   UNL     1      31.788 -22.515 -17.663  0.00  0.00    -0.026 C 
ATOM     22  C   UNL     1      29.879 -25.411 -14.719  0.00  0.00    +0.027 C 
ENDROOT
BRANCH   4  26
ATOM     23  S   UNL     1      39.939 -26.600 -14.044  0.00  0.00    -0.055 S 
ATOM     24  O   UNL     1      41.474 -24.679 -14.998  0.00  0.00    -0.263 OA
ATOM     25  N   UNL     1      39.195 -24.619 -15.489  0.00  0.00    -0.292 N 
ATOM     26  C   UNL     1      37.998 -25.426 -15.375  0.00  0.00    +0.135 C 
ATOM     27  C   UNL     1      38.152 -26.282 -14.125  0.00  0.00    +0.091 C 
ATOM     28  C   UNL     1      40.343 -25.132 -14.925  0.00  0.00    +0.273 C 
ATOM     29  H   UNL     1      39.189 -23.748 -15.947  0.00  0.00    +0.150 HD
ENDBRANCH   4  26
BRANCH   4  30
ATOM     30  O   UNL     1      35.723 -25.320 -15.985  0.00  0.00    -0.362 OA
ATOM     31  H   UNL     1      34.984 -24.734 -16.213  0.00  0.00    +0.213 HD
ENDBRANCH   4  30
TORSDOF 2
ENDMDL
MODEL 2
REMARK VINA RESULT:      -5.8      3.682      6.467
REMARK  Name = 445420
REMARK  2 active torsions:
REMARK  status: ('A' for Active; 'I' for Inactive)
REMARK    1  A    between atoms: C_4  and  C_26
REMARK    2  A    between atoms: C_4  and  O_30
REMARK                            x       y       z     vdW  Elec       q    Type
REMARK                         _______ _______ _______ _____ _____    ______ ____
ROOT
ATOM      1  O   UNL     1      32.165 -23.108 -17.049  0.00  0.00    -0.335 OA
ATOM      2  O   UNL     1      34.314 -24.158 -14.308  0.00  0.00    -0.449 OA
ATOM      3  O   UNL     1      33.748 -25.316 -12.396  0.00  0.00    -0.245 OA
ATOM      4  C   UNL     1      31.832 -22.882 -15.675  0.00  0.00    +0.205 C 
ATOM      5  C   UNL     1      33.496 -23.589 -17.249  0.00  0.00    +0.121 C 
ATOM      6  C   UNL     1      31.934 -24.200 -14.892  0.00  0.00    +0.101 C 
ATOM      7  C   UNL     1      33.301 -24.874 -15.056  0.00  0.00    +0.177 C 
ATOM      8  C   UNL     1      33.699 -24.929 -16.532  0.00  0.00    +0.073 C 
ATOM      9  C   UNL     1      33.733 -23.756 -18.759  0.00  0.00    +0.030 C 
ATOM     10  C   UNL     1      33.511 -22.485 -19.599  0.00  0.00    +0.007 C 
ATOM     11  C   UNL     1      34.451 -21.306 -19.281  0.00  0.00    +0.022 C 
ATOM     12  C   UNL     1      34.092 -20.099 -20.155  0.00  0.00    +0.005 C 
ATOM     13  C   UNL     1      34.436 -24.498 -12.997  0.00  0.00    +0.341 C 
ATOM     14  C   UNL     1      35.902 -21.672 -19.511  0.00  0.00    -0.026 C 
ATOM     15  C   UNL     1      35.466 -23.715 -12.281  0.00  0.00    +0.073 C 
ATOM     16  C   UNL     1      36.868 -21.828 -18.590  0.00  0.00    -0.005 C 
ATOM     17  C   UNL     1      36.636 -23.210 -12.716  0.00  0.00    -0.037 C 
ATOM     18  C   UNL     1      37.208 -23.325 -14.111  0.00  0.00    +0.027 C 
ATOM     19  C   UNL     1      36.712 -21.654 -17.167  0.00  0.00    -0.005 C 
ATOM     20  C   UNL     1      37.353 -21.953 -14.783  0.00  0.00    +0.030 C 
ATOM     21  C   UNL     1      37.596 -22.089 -16.258  0.00  0.00    -0.026 C 
ATOM     22  C   UNL     1      37.532 -22.499 -11.727  0.00  0.00    +0.027 C 
ENDROOT
BRANCH   4  26
ATOM     23  S   UNL     1      27.850 -22.919 -15.293  0.00  0.00    -0.055 S 
ATOM     24  O   UNL     1      27.655 -22.756 -17.919  0.00  0.00    -0.263 OA
ATOM     25  N   UNL     1      29.763 -22.521 -16.950  0.00  0.00    -0.292 N 
ATOM     26  C   UNL     1      30.398 -22.376 -15.656  0.00  0.00    +0.135 C 
ATOM     27  C   UNL     1      29.536 -23.125 -14.648  0.00  0.00    +0.091 C 
ATOM     28  C   UNL     1      28.400 -22.719 -16.952  0.00  0.00    +0.273 C 
ATOM     29  H   UNL     1      30.281 -22.481 -17.787  0.00  0.00    +0.150 HD
ENDBRANCH   4  26
BRANCH   4  30
ATOM     30  O   UNL     1      32.624 -21.853 -15.082  0.00  0.00    -0.362 OA
ATOM     31  H   UNL     1      32.097 -21.042 -15.007  0.00  0.00    +0.213 HD
ENDBRANCH   4  30
TORSDOF 2
ENDMDL
MODEL 3
REMARK VINA RESULT:      -3.5     11.253     14.566
REMARK  Name = 445420
REMARK  2 active torsions:
REMARK  status: ('A' for Active; 'I' for Inactive)
REMARK    1  A    between atoms: C_4  and  C_26
REMARK    2  A    between atoms: C_4  and  O_30
REMARK                            x       y       z     vdW  Elec       q    Type
REMARK                         _______ _______ _______ _____ _____    ______ ____
ROOT
ATOM      1  O   UNL     1      32.325 -13.344 -21.236  0.00  0.00    -0.335 OA
ATOM      2  O   UNL     1      33.301 -12.348 -24.597  0.00  0.00    -0.449 OA
ATOM      3  O   UNL     1      33.659 -13.678 -26.446  0.00  0.00    -0.245 OA
ATOM      4  C   UNL     1      33.388 -13.981 -21.954  0.00  0.00    +0.205 C 
ATOM      5  C   UNL     1      31.829 -12.162 -21.869  0.00  0.00    +0.121 C 
ATOM      6  C   UNL     1      32.892 -14.414 -23.342  0.00  0.00    +0.101 C 
ATOM      7  C   UNL     1      32.272 -13.253 -24.130  0.00  0.00    +0.177 C 
ATOM      8  C   UNL     1      31.273 -12.487 -23.261  0.00  0.00    +0.073 C 
ATOM      9  C   UNL     1      30.722 -11.563 -20.985  0.00  0.00    +0.030 C 
ATOM     10  C   UNL     1      31.146 -11.237 -19.541  0.00  0.00    +0.007 C 
ATOM     11  C   UNL     1      32.249 -10.171 -19.397  0.00  0.00    +0.022 C 
ATOM     12  C   UNL     1      32.602  -9.979 -17.918  0.00  0.00    +0.005 C 
ATOM     13  C   UNL     1      33.893 -12.678 -25.776  0.00  0.00    +0.341 C 
ATOM     14  C   UNL     1      31.822  -8.842 -19.982  0.00  0.00    -0.026 C 
ATOM     15  C   UNL     1      34.952 -11.731 -26.186  0.00  0.00    +0.073 C 
ATOM     16  C   UNL     1      32.299  -8.234 -21.081  0.00  0.00    -0.005 C 
ATOM     17  C   UNL     1      35.055 -10.402 -25.999  0.00  0.00    -0.037 C 
ATOM     18  C   UNL     1      34.063  -9.510 -25.285  0.00  0.00    +0.027 C 
ATOM     19  C   UNL     1      33.354  -8.732 -21.929  0.00  0.00    -0.005 C 
ATOM     20  C   UNL     1      34.672  -8.865 -24.034  0.00  0.00    +0.030 C 
ATOM     21  C   UNL     1      33.611  -8.263 -23.158  0.00  0.00    -0.026 C 
ATOM     22  C   UNL     1      36.236  -9.673 -26.596  0.00  0.00    +0.027 C 
ENDROOT
BRANCH   4  26
ATOM     23  S   UNL     1      34.770 -17.641 -21.122  0.00  0.00    -0.055 S 
ATOM     24  O   UNL     1      32.286 -18.417 -20.686  0.00  0.00    -0.263 OA
ATOM     25  N   UNL     1      32.692 -16.145 -21.022  0.00  0.00    -0.292 N 
ATOM     26  C   UNL     1      33.786 -15.202 -21.140  0.00  0.00    +0.135 C 
ATOM     27  C   UNL     1      34.957 -15.951 -21.761  0.00  0.00    +0.091 C 
ATOM     28  C   UNL     1      33.032 -17.475 -20.905  0.00  0.00    +0.273 C 
ATOM     29  H   UNL     1      31.753 -15.849 -21.026  0.00  0.00    +0.150 HD
ENDBRANCH   4  26
BRANCH   4  30
ATOM     30  O   UNL     1      34.555 -13.164 -22.041  0.00  0.00    -0.362 OA
ATOM     31  H   UNL     1      34.295 -12.245 -22.205  0.00  0.00    +0.213 HD
ENDBRANCH   4  30
TORSDOF 2
ENDMDL
