MODEL 1
REMARK VINA RESULT:      -8.8      0.000      0.000
REMARK  Name = 9547943
REMARK  11 active torsions:
REMARK  status: ('A' for Active; 'I' for Inactive)
REMARK    1  A    between atoms: C_1  and  C_4
REMARK    2  A    between atoms: C_1  and  O_9
REMARK    3  A    between atoms: C_1  and  C_18
REMARK    4  A    between atoms: N_3  and  C_6
REMARK    5  A    between atoms: C_6  and  C_8
REMARK    6  A    between atoms: O_9  and  C_17
REMARK    7  A    between atoms: C_18  and  S_19
REMARK    8  A    between atoms: S_19  and  C_22
REMARK    9  A    between atoms: C_22  and  C_23
REMARK   10  A    between atoms: C_24  and  O_29
REMARK   11  A    between atoms: O_29  and  C_32
REMARK                            x       y       z     vdW  Elec       q    Type
REMARK                         _______ _______ _______ _____ _____    ______ ____
ROOT
ATOM      1  C   UNL     1      32.958 -13.269 -22.519  0.00  0.00    +0.269 C 
ENDROOT
BRANCH   1   4
ATOM      2  O   UNL     1      33.276 -13.398 -24.910  0.00  0.00    -0.271 OA
ATOM      3  N   UNL     1      34.102 -11.546 -23.779  0.00  0.00    -0.289 N 
ATOM      4  C   UNL     1      33.458 -12.769 -23.870  0.00  0.00    +0.265 C 
ATOM      5  H   UNL     1      34.192 -11.129 -22.891  0.00  0.00    +0.151 HD
BRANCH   3   6
ATOM      6  C   UNL     1      34.647 -10.853 -24.923  0.00  0.00    +0.197 C 
BRANCH   6   8
ATOM      7  N   UNL     1      34.992  -8.307 -24.398  0.00  0.00    -0.194 NA
ATOM      8  C   UNL     1      34.837  -9.434 -24.631  0.00  0.00    +0.095 C 
ENDBRANCH   6   8
ENDBRANCH   3   6
ENDBRANCH   1   4
BRANCH   1   9
ATOM      9  O   UNL     1      31.765 -12.565 -22.150  0.00  0.00    -0.427 OA
BRANCH   9  17
ATOM     10  O   UNL     1      31.872  -7.750 -21.284  0.00  0.00    -0.350 OA
ATOM     11  O   UNL     1      32.001 -12.481 -19.878  0.00  0.00    -0.226 OA
ATOM     12  N   UNL     1      31.576 -10.539 -21.078  0.00  0.00    -0.241 N 
ATOM     13  C   UNL     1      31.335  -9.860 -22.354  0.00  0.00    +0.129 C 
ATOM     14  C   UNL     1      31.441  -9.688 -19.897  0.00  0.00    +0.129 C 
ATOM     15  C   UNL     1      32.144  -8.570 -22.424  0.00  0.00    +0.164 C 
ATOM     16  C   UNL     1      32.248  -8.410 -20.073  0.00  0.00    +0.164 C 
ATOM     17  C   UNL     1      31.799 -11.911 -20.948  0.00  0.00    +0.405 C 
ENDBRANCH   9  17
ENDBRANCH   1   9
BRANCH   1  18
ATOM     18  C   UNL     1      32.678 -14.767 -22.499  0.00  0.00    +0.204 C 
BRANCH  18  19
ATOM     19  S   UNL     1      33.692 -15.652 -21.352  0.00  0.00    -0.002 S 
ATOM     20  O   UNL     1      34.005 -14.764 -20.246  0.00  0.00    -0.173 OA
ATOM     21  O   UNL     1      33.080 -16.947 -21.114  0.00  0.00    -0.173 OA
BRANCH  19  22
ATOM     22  C   UNL     1      35.193 -15.925 -22.264  0.00  0.00    +0.180 C 
BRANCH  22  23
ATOM     23  C   UNL     1      34.962 -17.082 -23.187  0.00  0.00    +0.035 C 
ATOM     24  C   UNL     1      35.247 -18.386 -22.781  0.00  0.00    +0.142 C 
ATOM     25  C   UNL     1      34.455 -16.844 -24.465  0.00  0.00    +0.000 C 
ATOM     26  C   UNL     1      35.025 -19.452 -23.652  0.00  0.00    +0.037 C 
ATOM     27  C   UNL     1      34.234 -17.911 -25.337  0.00  0.00    -0.000 C 
ATOM     28  C   UNL     1      34.519 -19.215 -24.931  0.00  0.00    +0.003 C 
BRANCH  24  29
ATOM     29  O   UNL     1      35.742 -18.636 -21.536  0.00  0.00    -0.424 OA
BRANCH  29  32
ATOM     30  F   UNL     1      36.404 -20.160 -20.032  0.00  0.00    -0.155 F 
ATOM     31  F   UNL     1      34.272 -19.815 -20.282  0.00  0.00    -0.155 F 
ATOM     32  C   UNL     1      35.445 -19.900 -20.957  0.00  0.00    +0.509 C 
ENDBRANCH  29  32
ENDBRANCH  24  29
ENDBRANCH  22  23
ENDBRANCH  19  22
ENDBRANCH  18  19
ENDBRANCH   1  18
TORSDOF 11
ENDMDL
MODEL 2
REMARK VINA RESULT:      -8.7      1.634      2.006
REMARK  Name = 9547943
REMARK  11 active torsions:
REMARK  status: ('A' for Active; 'I' for Inactive)
REMARK    1  A    between atoms: C_1  and  C_4
REMARK    2  A    between atoms: C_1  and  O_9
REMARK    3  A    between atoms: C_1  and  C_18
REMARK    4  A    between atoms: N_3  and  C_6
REMARK    5  A    between atoms: C_6  and  C_8
REMARK    6  A    between atoms: O_9  and  C_17
REMARK    7  A    between atoms: C_18  and  S_19
REMARK    8  A    between atoms: S_19  and  C_22
REMARK    9  A    between atoms: C_22  and  C_23
REMARK   10  A    between atoms: C_24  and  O_29
REMARK   11  A    between atoms: O_29  and  C_32
REMARK                            x       y       z     vdW  Elec       q    Type
REMARK                         _______ _______ _______ _____ _____    ______ ____
ROOT
ATOM      1  C   UNL     1      32.755 -12.055 -22.495  0.00  0.00    +0.269 C 
ENDROOT
BRANCH   1   4
ATOM      2  O   UNL     1      34.122 -10.442 -23.664  0.00  0.00    -0.271 OA
ATOM      3  N   UNL     1      33.306 -12.268 -24.844  0.00  0.00    -0.289 N 
ATOM      4  C   UNL     1      33.468 -11.481 -23.715  0.00  0.00    +0.265 C 
ATOM      5  H   UNL     1      32.759 -13.084 -24.772  0.00  0.00    +0.151 HD
BRANCH   3   6
ATOM      6  C   UNL     1      33.902 -11.950 -26.121  0.00  0.00    +0.197 C 
BRANCH   6   8
ATOM      7  N   UNL     1      33.620 -13.937 -27.808  0.00  0.00    -0.194 NA
ATOM      8  C   UNL     1      33.743 -13.057 -27.061  0.00  0.00    +0.095 C 
ENDBRANCH   6   8
ENDBRANCH   3   6
ENDBRANCH   1   4
BRANCH   1   9
ATOM      9  O   UNL     1      31.633 -11.231 -22.155  0.00  0.00    -0.427 OA
BRANCH   9  17
ATOM     10  O   UNL     1      32.508  -6.468 -21.441  0.00  0.00    -0.350 OA
ATOM     11  O   UNL     1      31.785 -11.096 -19.878  0.00  0.00    -0.226 OA
ATOM     12  N   UNL     1      31.741  -9.160 -21.159  0.00  0.00    -0.241 N 
ATOM     13  C   UNL     1      31.670  -8.502 -22.467  0.00  0.00    +0.129 C 
ATOM     14  C   UNL     1      31.701  -8.252 -20.014  0.00  0.00    +0.129 C 
ATOM     15  C   UNL     1      32.685  -7.368 -22.540  0.00  0.00    +0.164 C 
ATOM     16  C   UNL     1      32.717  -7.133 -20.192  0.00  0.00    +0.164 C 
ATOM     17  C   UNL     1      31.726 -10.544 -20.975  0.00  0.00    +0.405 C 
ENDBRANCH   9  17
ENDBRANCH   1   9
BRANCH   1  18
ATOM     18  C   UNL     1      32.277 -13.488 -22.696  0.00  0.00    +0.204 C 
BRANCH  18  19
ATOM     19  S   UNL     1      32.907 -14.611 -21.485  0.00  0.00    -0.002 S 
ATOM     20  O   UNL     1      32.959 -13.918 -20.210  0.00  0.00    -0.173 OA
ATOM     21  O   UNL     1      32.191 -15.867 -21.618  0.00  0.00    -0.173 OA
BRANCH  19  22
ATOM     22  C   UNL     1      34.581 -14.886 -22.016  0.00  0.00    +0.180 C 
BRANCH  22  23
ATOM     23  C   UNL     1      34.557 -15.959 -23.061  0.00  0.00    +0.035 C 
ATOM     24  C   UNL     1      34.936 -17.266 -22.750  0.00  0.00    +0.142 C 
ATOM     25  C   UNL     1      34.148 -15.641 -24.356  0.00  0.00    +0.000 C 
ATOM     26  C   UNL     1      34.907 -18.253 -23.735  0.00  0.00    +0.037 C 
ATOM     27  C   UNL     1      34.120 -16.629 -25.341  0.00  0.00    -0.000 C 
ATOM     28  C   UNL     1      34.499 -17.935 -25.030  0.00  0.00    +0.003 C 
BRANCH  24  29
ATOM     29  O   UNL     1      35.338 -17.594 -21.490  0.00  0.00    -0.424 OA
BRANCH  29  32
ATOM     30  F   UNL     1      36.724 -19.050 -20.498  0.00  0.00    -0.155 F 
ATOM     31  F   UNL     1      34.586 -19.442 -20.420  0.00  0.00    -0.155 F 
ATOM     32  C   UNL     1      35.575 -18.969 -21.218  0.00  0.00    +0.509 C 
ENDBRANCH  29  32
ENDBRANCH  24  29
ENDBRANCH  22  23
ENDBRANCH  19  22
ENDBRANCH  18  19
ENDBRANCH   1  18
TORSDOF 11
ENDMDL
MODEL 3
REMARK VINA RESULT:      -8.4      8.528     12.432
REMARK  Name = 9547943
REMARK  11 active torsions:
REMARK  status: ('A' for Active; 'I' for Inactive)
REMARK    1  A    between atoms: C_1  and  C_4
REMARK    2  A    between atoms: C_1  and  O_9
REMARK    3  A    between atoms: C_1  and  C_18
REMARK    4  A    between atoms: N_3  and  C_6
REMARK    5  A    between atoms: C_6  and  C_8
REMARK    6  A    between atoms: O_9  and  C_17
REMARK    7  A    between atoms: C_18  and  S_19
REMARK    8  A    between atoms: S_19  and  C_22
REMARK    9  A    between atoms: C_22  and  C_23
REMARK   10  A    between atoms: C_24  and  O_29
REMARK   11  A    between atoms: O_29  and  C_32
REMARK                            x       y       z     vdW  Elec       q    Type
REMARK                         _______ _______ _______ _____ _____    ______ ____
ROOT
ATOM      1  C   UNL     1      32.768 -23.390 -17.331  0.00  0.00    +0.269 C 
ENDROOT
BRANCH   1   4
ATOM      2  O   UNL     1      30.711 -22.141 -17.126  0.00  0.00    -0.271 OA
ATOM      3  N   UNL     1      30.898 -24.165 -16.002  0.00  0.00    -0.289 N 
ATOM      4  C   UNL     1      31.355 -23.142 -16.817  0.00  0.00    +0.265 C 
ATOM      5  H   UNL     1      31.500 -24.923 -15.820  0.00  0.00    +0.151 HD
BRANCH   3   6
ATOM      6  C   UNL     1      29.581 -24.174 -15.408  0.00  0.00    +0.197 C 
BRANCH   6   8
ATOM      7  N   UNL     1      27.720 -24.285 -17.252  0.00  0.00    -0.194 NA
ATOM      8  C   UNL     1      28.545 -24.238 -16.437  0.00  0.00    +0.095 C 
ENDBRANCH   6   8
ENDBRANCH   3   6
ENDBRANCH   1   4
BRANCH   1   9
ATOM      9  O   UNL     1      32.927 -22.796 -18.625  0.00  0.00    -0.427 OA
BRANCH   9  17
ATOM     10  O   UNL     1      34.253 -19.064 -21.500  0.00  0.00    -0.350 OA
ATOM     11  O   UNL     1      35.204 -22.996 -18.670  0.00  0.00    -0.226 OA
ATOM     12  N   UNL     1      34.181 -21.125 -19.588  0.00  0.00    -0.241 N 
ATOM     13  C   UNL     1      32.968 -20.367 -19.907  0.00  0.00    +0.129 C 
ATOM     14  C   UNL     1      35.432 -20.430 -19.885  0.00  0.00    +0.129 C 
ATOM     15  C   UNL     1      33.050 -19.818 -21.327  0.00  0.00    +0.164 C 
ATOM     16  C   UNL     1      35.408 -19.884 -21.305  0.00  0.00    +0.164 C 
ATOM     17  C   UNL     1      34.187 -22.361 -18.939  0.00  0.00    +0.405 C 
ENDBRANCH   9  17
ENDBRANCH   1   9
BRANCH   1  18
ATOM     18  C   UNL     1      33.850 -22.853 -16.401  0.00  0.00    +0.204 C 
BRANCH  18  19
ATOM     19  S   UNL     1      34.452 -24.061 -15.260  0.00  0.00    -0.002 S 
ATOM     20  O   UNL     1      33.370 -24.409 -14.356  0.00  0.00    -0.173 OA
ATOM     21  O   UNL     1      35.148 -25.088 -16.014  0.00  0.00    -0.173 OA
BRANCH  19  22
ATOM     22  C   UNL     1      35.668 -23.164 -14.323  0.00  0.00    +0.180 C 
BRANCH  22  23
ATOM     23  C   UNL     1      36.810 -24.094 -14.049  0.00  0.00    +0.035 C 
ATOM     24  C   UNL     1      36.772 -24.971 -12.964  0.00  0.00    +0.142 C 
ATOM     25  C   UNL     1      37.919 -24.080 -14.895  0.00  0.00    +0.000 C 
ATOM     26  C   UNL     1      37.843 -25.831 -12.724  0.00  0.00    +0.037 C 
ATOM     27  C   UNL     1      38.991 -24.939 -14.654  0.00  0.00    -0.000 C 
ATOM     28  C   UNL     1      38.953 -25.815 -13.569  0.00  0.00    +0.003 C 
BRANCH  24  29
ATOM     29  O   UNL     1      35.696 -24.998 -12.128  0.00  0.00    -0.424 OA
BRANCH  29  32
ATOM     30  F   UNL     1      35.421 -24.757  -9.916  0.00  0.00    -0.155 F 
ATOM     31  F   UNL     1      36.916 -23.530 -10.911  0.00  0.00    -0.155 F 
ATOM     32  C   UNL     1      35.678 -24.065 -11.055  0.00  0.00    +0.509 C 
ENDBRANCH  29  32
ENDBRANCH  24  29
ENDBRANCH  22  23
ENDBRANCH  19  22
ENDBRANCH  18  19
ENDBRANCH   1  18
TORSDOF 11
ENDMDL
MODEL 4
REMARK VINA RESULT:      -8.4      8.840     12.143
REMARK  Name = 9547943
REMARK  11 active torsions:
REMARK  status: ('A' for Active; 'I' for Inactive)
REMARK    1  A    between atoms: C_1  and  C_4
REMARK    2  A    between atoms: C_1  and  O_9
REMARK    3  A    between atoms: C_1  and  C_18
REMARK    4  A    between atoms: N_3  and  C_6
REMARK    5  A    between atoms: C_6  and  C_8
REMARK    6  A    between atoms: O_9  and  C_17
REMARK    7  A    between atoms: C_18  and  S_19
REMARK    8  A    between atoms: S_19  and  C_22
REMARK    9  A    between atoms: C_22  and  C_23
REMARK   10  A    between atoms: C_24  and  O_29
REMARK   11  A    between atoms: O_29  and  C_32
REMARK                            x       y       z     vdW  Elec       q    Type
REMARK                         _______ _______ _______ _____ _____    ______ ____
ROOT
ATOM      1  C   UNL     1      32.920 -22.766 -17.316  0.00  0.00    +0.269 C 
ENDROOT
BRANCH   1   4
ATOM      2  O   UNL     1      33.938 -23.228 -19.457  0.00  0.00    -0.271 OA
ATOM      3  N   UNL     1      32.844 -21.201 -19.163  0.00  0.00    -0.289 N 
ATOM      4  C   UNL     1      33.304 -22.442 -18.755  0.00  0.00    +0.265 C 
ATOM      5  H   UNL     1      32.345 -20.651 -18.515  0.00  0.00    +0.151 HD
BRANCH   3   6
ATOM      6  C   UNL     1      33.061 -20.674 -20.490  0.00  0.00    +0.197 C 
BRANCH   6   8
ATOM      7  N   UNL     1      35.365 -19.433 -20.640  0.00  0.00    -0.194 NA
ATOM      8  C   UNL     1      34.344 -19.981 -20.572  0.00  0.00    +0.095 C 
ENDBRANCH   6   8
ENDBRANCH   3   6
ENDBRANCH   1   4
BRANCH   1   9
ATOM      9  O   UNL     1      31.525 -23.086 -17.245  0.00  0.00    -0.427 OA
BRANCH   9  17
ATOM     10  O   UNL     1      26.747 -22.694 -16.260  0.00  0.00    -0.350 OA
ATOM     11  O   UNL     1      31.526 -22.516 -15.031  0.00  0.00    -0.226 OA
ATOM     12  N   UNL     1      29.532 -23.048 -16.096  0.00  0.00    -0.241 N 
ATOM     13  C   UNL     1      28.803 -23.452 -17.301  0.00  0.00    +0.129 C 
ATOM     14  C   UNL     1      28.719 -22.980 -14.883  0.00  0.00    +0.129 C 
ATOM     15  C   UNL     1      27.535 -22.620 -17.452  0.00  0.00    +0.164 C 
ATOM     16  C   UNL     1      27.459 -22.166 -15.138  0.00  0.00    +0.164 C 
ATOM     17  C   UNL     1      30.914 -22.855 -16.042  0.00  0.00    +0.405 C 
ENDBRANCH   9  17
ENDBRANCH   1   9
BRANCH   1  18
ATOM     18  C   UNL     1      33.725 -23.915 -16.722  0.00  0.00    +0.204 C 
BRANCH  18  19
ATOM     19  S   UNL     1      35.168 -23.380 -15.851  0.00  0.00    -0.002 S 
ATOM     20  O   UNL     1      36.171 -22.998 -16.830  0.00  0.00    -0.173 OA
ATOM     21  O   UNL     1      34.752 -22.453 -14.815  0.00  0.00    -0.173 OA
BRANCH  19  22
ATOM     22  C   UNL     1      35.734 -24.864 -15.052  0.00  0.00    +0.180 C 
BRANCH  22  23
ATOM     23  C   UNL     1      36.196 -24.492 -13.677  0.00  0.00    +0.035 C 
ATOM     24  C   UNL     1      37.526 -24.138 -13.443  0.00  0.00    +0.142 C 
ATOM     25  C   UNL     1      35.282 -24.502 -12.624  0.00  0.00    +0.000 C 
ATOM     26  C   UNL     1      37.940 -23.794 -12.156  0.00  0.00    +0.037 C 
ATOM     27  C   UNL     1      35.697 -24.159 -11.336  0.00  0.00    -0.000 C 
ATOM     28  C   UNL     1      37.025 -23.804 -11.103  0.00  0.00    +0.003 C 
BRANCH  24  29
ATOM     29  O   UNL     1      38.433 -24.123 -14.460  0.00  0.00    -0.424 OA
BRANCH  29  32
ATOM     30  F   UNL     1      40.363 -25.049 -13.797  0.00  0.00    -0.155 F 
ATOM     31  F   UNL     1      38.647 -26.348 -14.105  0.00  0.00    -0.155 F 
ATOM     32  C   UNL     1      39.283 -25.255 -14.593  0.00  0.00    +0.509 C 
ENDBRANCH  29  32
ENDBRANCH  24  29
ENDBRANCH  22  23
ENDBRANCH  19  22
ENDBRANCH  18  19
ENDBRANCH   1  18
TORSDOF 11
ENDMDL
MODEL 5
REMARK VINA RESULT:      -8.4      2.333      3.053
REMARK  Name = 9547943
REMARK  11 active torsions:
REMARK  status: ('A' for Active; 'I' for Inactive)
REMARK    1  A    between atoms: C_1  and  C_4
REMARK    2  A    between atoms: C_1  and  O_9
REMARK    3  A    between atoms: C_1  and  C_18
REMARK    4  A    between atoms: N_3  and  C_6
REMARK    5  A    between atoms: C_6  and  C_8
REMARK    6  A    between atoms: O_9  and  C_17
REMARK    7  A    between atoms: C_18  and  S_19
REMARK    8  A    between atoms: S_19  and  C_22
REMARK    9  A    between atoms: C_22  and  C_23
REMARK   10  A    between atoms: C_24  and  O_29
REMARK   11  A    between atoms: O_29  and  C_32
REMARK                            x       y       z     vdW  Elec       q    Type
REMARK                         _______ _______ _______ _____ _____    ______ ____
ROOT
ATOM      1  C   UNL     1      32.742 -12.004 -22.500  0.00  0.00    +0.269 C 
ENDROOT
BRANCH   1   4
ATOM      2  O   UNL     1      34.014 -10.313 -23.665  0.00  0.00    -0.271 OA
ATOM      3  N   UNL     1      33.411 -12.239 -24.815  0.00  0.00    -0.289 N 
ATOM      4  C   UNL     1      33.455 -11.407 -23.708  0.00  0.00    +0.265 C 
ATOM      5  H   UNL     1      32.934 -13.097 -24.738  0.00  0.00    +0.151 HD
BRANCH   3   6
ATOM      6  C   UNL     1      34.032 -11.909 -26.077  0.00  0.00    +0.197 C 
BRANCH   6   8
ATOM      7  N   UNL     1      33.613 -13.797 -27.846  0.00  0.00    -0.194 NA
ATOM      8  C   UNL     1      33.798 -12.960 -27.064  0.00  0.00    +0.095 C 
ENDBRANCH   6   8
ENDBRANCH   3   6
ENDBRANCH   1   4
BRANCH   1   9
ATOM      9  O   UNL     1      31.626 -11.181 -22.138  0.00  0.00    -0.427 OA
BRANCH   9  17
ATOM     10  O   UNL     1      32.488  -6.434 -21.318  0.00  0.00    -0.350 OA
ATOM     11  O   UNL     1      31.796 -11.100 -19.860  0.00  0.00    -0.226 OA
ATOM     12  N   UNL     1      31.734  -9.134 -21.094  0.00  0.00    -0.241 N 
ATOM     13  C   UNL     1      31.650  -8.446 -22.385  0.00  0.00    +0.129 C 
ATOM     14  C   UNL     1      31.700  -8.254 -19.927  0.00  0.00    +0.129 C 
ATOM     15  C   UNL     1      32.660  -7.306 -22.439  0.00  0.00    +0.164 C 
ATOM     16  C   UNL     1      32.710  -7.127 -20.087  0.00  0.00    +0.164 C 
ATOM     17  C   UNL     1      31.725 -10.522 -20.942  0.00  0.00    +0.405 C 
ENDBRANCH   9  17
ENDBRANCH   1   9
BRANCH   1  18
ATOM     18  C   UNL     1      32.255 -13.429 -22.732  0.00  0.00    +0.204 C 
BRANCH  18  19
ATOM     19  S   UNL     1      32.931 -14.594 -21.586  0.00  0.00    -0.002 S 
ATOM     20  O   UNL     1      33.083 -13.930 -20.304  0.00  0.00    -0.173 OA
ATOM     21  O   UNL     1      32.174 -15.828 -21.698  0.00  0.00    -0.173 OA
BRANCH  19  22
ATOM     22  C   UNL     1      34.559 -14.900 -22.231  0.00  0.00    +0.180 C 
BRANCH  22  23
ATOM     23  C   UNL     1      34.768 -16.383 -22.253  0.00  0.00    +0.035 C 
ATOM     24  C   UNL     1      35.065 -17.043 -23.447  0.00  0.00    +0.142 C 
ATOM     25  C   UNL     1      34.666 -17.105 -21.064  0.00  0.00    +0.000 C 
ATOM     26  C   UNL     1      35.257 -18.425 -23.450  0.00  0.00    +0.037 C 
ATOM     27  C   UNL     1      34.858 -18.487 -21.068  0.00  0.00    -0.000 C 
ATOM     28  C   UNL     1      35.154 -19.147 -22.261  0.00  0.00    +0.003 C 
BRANCH  24  29
ATOM     29  O   UNL     1      35.168 -16.354 -24.618  0.00  0.00    -0.424 OA
BRANCH  29  32
ATOM     30  F   UNL     1      33.559 -17.658 -25.474  0.00  0.00    -0.155 F 
ATOM     31  F   UNL     1      33.076 -15.588 -25.017  0.00  0.00    -0.155 F 
ATOM     32  C   UNL     1      34.054 -16.394 -25.500  0.00  0.00    +0.509 C 
ENDBRANCH  29  32
ENDBRANCH  24  29
ENDBRANCH  22  23
ENDBRANCH  19  22
ENDBRANCH  18  19
ENDBRANCH   1  18
TORSDOF 11
ENDMDL
MODEL 6
REMARK VINA RESULT:      -8.3      8.828     12.613
REMARK  Name = 9547943
REMARK  11 active torsions:
REMARK  status: ('A' for Active; 'I' for Inactive)
REMARK    1  A    between atoms: C_1  and  C_4
REMARK    2  A    between atoms: C_1  and  O_9
REMARK    3  A    between atoms: C_1  and  C_18
REMARK    4  A    between atoms: N_3  and  C_6
REMARK    5  A    between atoms: C_6  and  C_8
REMARK    6  A    between atoms: O_9  and  C_17
REMARK    7  A    between atoms: C_18  and  S_19
REMARK    8  A    between atoms: S_19  and  C_22
REMARK    9  A    between atoms: C_22  and  C_23
REMARK   10  A    between atoms: C_24  and  O_29
REMARK   11  A    between atoms: O_29  and  C_32
REMARK                            x       y       z     vdW  Elec       q    Type
REMARK                         _______ _______ _______ _____ _____    ______ ____
ROOT
ATOM      1  C   UNL     1      33.764 -22.788 -17.319  0.00  0.00    +0.269 C 
ENDROOT
BRANCH   1   4
ATOM      2  O   UNL     1      34.036 -23.518 -19.605  0.00  0.00    -0.271 OA
ATOM      3  N   UNL     1      33.667 -21.262 -19.196  0.00  0.00    -0.289 N 
ATOM      4  C   UNL     1      33.847 -22.585 -18.827  0.00  0.00    +0.265 C 
ATOM      5  H   UNL     1      33.522 -20.593 -18.487  0.00  0.00    +0.151 HD
BRANCH   3   6
ATOM      6  C   UNL     1      33.680 -20.816 -20.570  0.00  0.00    +0.197 C 
BRANCH   6   8
ATOM      7  N   UNL     1      35.244 -18.732 -20.866  0.00  0.00    -0.194 NA
ATOM      8  C   UNL     1      34.551 -19.654 -20.733  0.00  0.00    +0.095 C 
ENDBRANCH   6   8
ENDBRANCH   3   6
ENDBRANCH   1   4
BRANCH   1   9
ATOM      9  O   UNL     1      32.628 -23.600 -16.998  0.00  0.00    -0.427 OA
BRANCH   9  17
ATOM     10  O   UNL     1      28.591 -24.941 -14.578  0.00  0.00    -0.350 OA
ATOM     11  O   UNL     1      31.132 -21.981 -17.604  0.00  0.00    -0.226 OA
ATOM     12  N   UNL     1      30.590 -23.502 -15.936  0.00  0.00    -0.241 N 
ATOM     13  C   UNL     1      30.942 -24.655 -15.103  0.00  0.00    +0.129 C 
ATOM     14  C   UNL     1      29.319 -22.865 -15.594  0.00  0.00    +0.129 C 
ATOM     15  C   UNL     1      29.768 -25.622 -15.021  0.00  0.00    +0.164 C 
ATOM     16  C   UNL     1      28.216 -23.910 -15.495  0.00  0.00    +0.164 C 
ATOM     17  C   UNL     1      31.428 -22.948 -16.906  0.00  0.00    +0.405 C 
ENDBRANCH   9  17
ENDBRANCH   1   9
BRANCH   1  18
ATOM     18  C   UNL     1      35.015 -23.428 -16.728  0.00  0.00    +0.204 C 
BRANCH  18  19
ATOM     19  S   UNL     1      35.057 -23.379 -14.962  0.00  0.00    -0.002 S 
ATOM     20  O   UNL     1      36.265 -22.680 -14.557  0.00  0.00    -0.173 OA
ATOM     21  O   UNL     1      33.755 -22.944 -14.491  0.00  0.00    -0.173 OA
BRANCH  19  22
ATOM     22  C   UNL     1      35.249 -25.088 -14.512  0.00  0.00    +0.180 C 
BRANCH  22  23
ATOM     23  C   UNL     1      36.678 -25.298 -14.116  0.00  0.00    +0.035 C 
ATOM     24  C   UNL     1      37.030 -25.458 -12.774  0.00  0.00    +0.142 C 
ATOM     25  C   UNL     1      37.662 -25.335 -15.104  0.00  0.00    +0.000 C 
ATOM     26  C   UNL     1      38.365 -25.653 -12.423  0.00  0.00    +0.037 C 
ATOM     27  C   UNL     1      38.998 -25.528 -14.751  0.00  0.00    -0.000 C 
ATOM     28  C   UNL     1      39.349 -25.688 -13.411  0.00  0.00    +0.003 C 
BRANCH  24  29
ATOM     29  O   UNL     1      36.082 -25.425 -11.796  0.00  0.00    -0.424 OA
BRANCH  29  32
ATOM     30  F   UNL     1      35.229 -23.356 -11.654  0.00  0.00    -0.155 F 
ATOM     31  F   UNL     1      35.370 -24.542  -9.837  0.00  0.00    -0.155 F 
ATOM     32  C   UNL     1      36.010 -24.252 -10.996  0.00  0.00    +0.509 C 
ENDBRANCH  29  32
ENDBRANCH  24  29
ENDBRANCH  22  23
ENDBRANCH  19  22
ENDBRANCH  18  19
ENDBRANCH   1  18
TORSDOF 11
ENDMDL
MODEL 7
REMARK VINA RESULT:      -8.1      8.292     12.284
REMARK  Name = 9547943
REMARK  11 active torsions:
REMARK  status: ('A' for Active; 'I' for Inactive)
REMARK    1  A    between atoms: C_1  and  C_4
REMARK    2  A    between atoms: C_1  and  O_9
REMARK    3  A    between atoms: C_1  and  C_18
REMARK    4  A    between atoms: N_3  and  C_6
REMARK    5  A    between atoms: C_6  and  C_8
REMARK    6  A    between atoms: O_9  and  C_17
REMARK    7  A    between atoms: C_18  and  S_19
REMARK    8  A    between atoms: S_19  and  C_22
REMARK    9  A    between atoms: C_22  and  C_23
REMARK   10  A    between atoms: C_24  and  O_29
REMARK   11  A    between atoms: O_29  and  C_32
REMARK                            x       y       z     vdW  Elec       q    Type
REMARK                         _______ _______ _______ _____ _____    ______ ____
ROOT
ATOM      1  C   UNL     1      34.108 -22.676 -17.584  0.00  0.00    +0.269 C 
ENDROOT
BRANCH   1   4
ATOM      2  O   UNL     1      34.772 -22.841 -19.900  0.00  0.00    -0.271 OA
ATOM      3  N   UNL     1      33.265 -21.181 -19.293  0.00  0.00    -0.289 N 
ATOM      4  C   UNL     1      34.105 -22.256 -19.049  0.00  0.00    +0.265 C 
ATOM      5  H   UNL     1      32.776 -20.788 -18.534  0.00  0.00    +0.151 HD
BRANCH   3   6
ATOM      6  C   UNL     1      33.073 -20.611 -20.605  0.00  0.00    +0.197 C 
BRANCH   6   8
ATOM      7  N   UNL     1      34.699 -18.591 -20.996  0.00  0.00    -0.194 NA
ATOM      8  C   UNL     1      33.981 -19.487 -20.823  0.00  0.00    +0.095 C 
ENDBRANCH   6   8
ENDBRANCH   3   6
ENDBRANCH   1   4
BRANCH   1   9
ATOM      9  O   UNL     1      33.039 -23.599 -17.340  0.00  0.00    -0.427 OA
BRANCH   9  17
ATOM     10  O   UNL     1      31.215 -24.531 -12.894  0.00  0.00    -0.350 OA
ATOM     11  O   UNL     1      31.081 -22.419 -17.356  0.00  0.00    -0.226 OA
ATOM     12  N   UNL     1      31.841 -23.388 -15.387  0.00  0.00    -0.241 N 
ATOM     13  C   UNL     1      32.840 -24.178 -14.662  0.00  0.00    +0.129 C 
ATOM     14  C   UNL     1      30.789 -22.815 -14.550  0.00  0.00    +0.129 C 
ATOM     15  C   UNL     1      32.151 -25.189 -13.753  0.00  0.00    +0.164 C 
ATOM     16  C   UNL     1      30.188 -23.885 -13.651  0.00  0.00    +0.164 C 
ATOM     17  C   UNL     1      31.919 -23.082 -16.747  0.00  0.00    +0.405 C 
ENDBRANCH   9  17
ENDBRANCH   1   9
BRANCH   1  18
ATOM     18  C   UNL     1      35.422 -23.309 -17.142  0.00  0.00    +0.204 C 
BRANCH  18  19
ATOM     19  S   UNL     1      36.346 -22.295 -16.027  0.00  0.00    -0.002 S 
ATOM     20  O   UNL     1      37.054 -21.295 -16.807  0.00  0.00    -0.173 OA
ATOM     21  O   UNL     1      35.467 -21.902 -14.940  0.00  0.00    -0.173 OA
BRANCH  19  22
ATOM     22  C   UNL     1      37.555 -23.416 -15.363  0.00  0.00    +0.180 C 
BRANCH  22  23
ATOM     23  C   UNL     1      37.160 -23.730 -13.953  0.00  0.00    +0.035 C 
ATOM     24  C   UNL     1      36.446 -24.892 -13.655  0.00  0.00    +0.142 C 
ATOM     25  C   UNL     1      37.515 -22.848 -12.933  0.00  0.00    +0.000 C 
ATOM     26  C   UNL     1      36.086 -25.169 -12.336  0.00  0.00    +0.037 C 
ATOM     27  C   UNL     1      37.154 -23.126 -11.614  0.00  0.00    -0.000 C 
ATOM     28  C   UNL     1      36.441 -24.287 -11.315  0.00  0.00    +0.003 C 
BRANCH  24  29
ATOM     29  O   UNL     1      36.091 -25.764 -14.639  0.00  0.00    -0.424 OA
BRANCH  29  32
ATOM     30  F   UNL     1      36.812 -27.318 -16.086  0.00  0.00    -0.155 F 
ATOM     31  F   UNL     1      38.173 -26.645 -14.529  0.00  0.00    -0.155 F 
ATOM     32  C   UNL     1      36.875 -26.942 -14.782  0.00  0.00    +0.509 C 
ENDBRANCH  29  32
ENDBRANCH  24  29
ENDBRANCH  22  23
ENDBRANCH  19  22
ENDBRANCH  18  19
ENDBRANCH   1  18
TORSDOF 11
ENDMDL
MODEL 8
REMARK VINA RESULT:      -8.0      2.239      3.189
REMARK  Name = 9547943
REMARK  11 active torsions:
REMARK  status: ('A' for Active; 'I' for Inactive)
REMARK    1  A    between atoms: C_1  and  C_4
REMARK    2  A    between atoms: C_1  and  O_9
REMARK    3  A    between atoms: C_1  and  C_18
REMARK    4  A    between atoms: N_3  and  C_6
REMARK    5  A    between atoms: C_6  and  C_8
REMARK    6  A    between atoms: O_9  and  C_17
REMARK    7  A    between atoms: C_18  and  S_19
REMARK    8  A    between atoms: S_19  and  C_22
REMARK    9  A    between atoms: C_22  and  C_23
REMARK   10  A    between atoms: C_24  and  O_29
REMARK   11  A    between atoms: O_29  and  C_32
REMARK                            x       y       z     vdW  Elec       q    Type
REMARK                         _______ _______ _______ _____ _____    ______ ____
ROOT
ATOM      1  C   UNL     1      33.677 -11.411 -24.102  0.00  0.00    +0.269 C 
ENDROOT
BRANCH   1   4
ATOM      2  O   UNL     1      35.562 -10.277 -25.097  0.00  0.00    -0.271 OA
ATOM      3  N   UNL     1      34.191  -9.089 -23.647  0.00  0.00    -0.289 N 
ATOM      4  C   UNL     1      34.592 -10.217 -24.344  0.00  0.00    +0.265 C 
ATOM      5  H   UNL     1      33.395  -9.154 -23.069  0.00  0.00    +0.151 HD
BRANCH   3   6
ATOM      6  C   UNL     1      34.882  -7.824 -23.726  0.00  0.00    +0.197 C 
BRANCH   6   8
ATOM      7  N   UNL     1      33.412  -6.025 -24.943  0.00  0.00    -0.194 NA
ATOM      8  C   UNL     1      34.061  -6.822 -24.403  0.00  0.00    +0.095 C 
ENDBRANCH   6   8
ENDBRANCH   3   6
ENDBRANCH   1   4
BRANCH   1   9
ATOM      9  O   UNL     1      32.417 -10.963 -23.588  0.00  0.00    -0.427 OA
BRANCH   9  17
ATOM     10  O   UNL     1      31.845  -8.649 -19.313  0.00  0.00    -0.350 OA
ATOM     11  O   UNL     1      31.972 -12.686 -22.153  0.00  0.00    -0.226 OA
ATOM     12  N   UNL     1      31.747 -10.488 -21.439  0.00  0.00    -0.241 N 
ATOM     13  C   UNL     1      31.829  -9.050 -21.706  0.00  0.00    +0.129 C 
ATOM     14  C   UNL     1      31.200 -10.837 -20.129  0.00  0.00    +0.129 C 
ATOM     15  C   UNL     1      32.507  -8.337 -20.542  0.00  0.00    +0.164 C 
ATOM     16  C   UNL     1      31.908 -10.050 -19.035  0.00  0.00    +0.164 C 
ATOM     17  C   UNL     1      32.041 -11.480 -22.377  0.00  0.00    +0.405 C 
ENDBRANCH   9  17
ENDBRANCH   1   9
BRANCH   1  18
ATOM     18  C   UNL     1      33.433 -12.247 -25.354  0.00  0.00    +0.204 C 
BRANCH  18  19
ATOM     19  S   UNL     1      33.358 -13.983 -25.031  0.00  0.00    -0.002 S 
ATOM     20  O   UNL     1      32.040 -14.288 -24.501  0.00  0.00    -0.173 OA
ATOM     21  O   UNL     1      33.868 -14.682 -26.197  0.00  0.00    -0.173 OA
BRANCH  19  22
ATOM     22  C   UNL     1      34.532 -14.204 -23.715  0.00  0.00    +0.180 C 
BRANCH  22  23
ATOM     23  C   UNL     1      34.617 -15.670 -23.421  0.00  0.00    +0.035 C 
ATOM     24  C   UNL     1      34.409 -16.151 -22.127  0.00  0.00    +0.142 C 
ATOM     25  C   UNL     1      34.906 -16.558 -24.457  0.00  0.00    +0.000 C 
ATOM     26  C   UNL     1      34.491 -17.520 -21.871  0.00  0.00    +0.037 C 
ATOM     27  C   UNL     1      34.990 -17.927 -24.200  0.00  0.00    -0.000 C 
ATOM     28  C   UNL     1      34.782 -18.408 -22.907  0.00  0.00    +0.003 C 
BRANCH  24  29
ATOM     29  O   UNL     1      34.126 -15.298 -21.103  0.00  0.00    -0.424 OA
BRANCH  29  32
ATOM     30  F   UNL     1      32.614 -14.334 -19.757  0.00  0.00    -0.155 F 
ATOM     31  F   UNL     1      31.902 -15.660 -21.326  0.00  0.00    -0.155 F 
ATOM     32  C   UNL     1      32.894 -15.487 -20.418  0.00  0.00    +0.509 C 
ENDBRANCH  29  32
ENDBRANCH  24  29
ENDBRANCH  22  23
ENDBRANCH  19  22
ENDBRANCH  18  19
ENDBRANCH   1  18
TORSDOF 11
ENDMDL
MODEL 9
REMARK VINA RESULT:      -7.9      4.706      9.078
REMARK  Name = 9547943
REMARK  11 active torsions:
REMARK  status: ('A' for Active; 'I' for Inactive)
REMARK    1  A    between atoms: C_1  and  C_4
REMARK    2  A    between atoms: C_1  and  O_9
REMARK    3  A    between atoms: C_1  and  C_18
REMARK    4  A    between atoms: N_3  and  C_6
REMARK    5  A    between atoms: C_6  and  C_8
REMARK    6  A    between atoms: O_9  and  C_17
REMARK    7  A    between atoms: C_18  and  S_19
REMARK    8  A    between atoms: S_19  and  C_22
REMARK    9  A    between atoms: C_22  and  C_23
REMARK   10  A    between atoms: C_24  and  O_29
REMARK   11  A    between atoms: O_29  and  C_32
REMARK                            x       y       z     vdW  Elec       q    Type
REMARK                         _______ _______ _______ _____ _____    ______ ____
ROOT
ATOM      1  C   UNL     1      33.287 -11.915 -23.897  0.00  0.00    +0.269 C 
ENDROOT
BRANCH   1   4
ATOM      2  O   UNL     1      33.938 -12.080 -26.217  0.00  0.00    -0.271 OA
ATOM      3  N   UNL     1      33.048 -13.956 -25.177  0.00  0.00    -0.289 N 
ATOM      4  C   UNL     1      33.462 -12.635 -25.229  0.00  0.00    +0.265 C 
ATOM      5  H   UNL     1      32.680 -14.299 -24.331  0.00  0.00    +0.151 HD
BRANCH   3   6
ATOM      6  C   UNL     1      33.132 -14.855 -26.305  0.00  0.00    +0.197 C 
BRANCH   6   8
ATOM      7  N   UNL     1      34.244 -17.126 -25.615  0.00  0.00    -0.194 NA
ATOM      8  C   UNL     1      33.750 -16.121 -25.919  0.00  0.00    +0.095 C 
ENDBRANCH   6   8
ENDBRANCH   3   6
ENDBRANCH   1   4
BRANCH   1   9
ATOM      9  O   UNL     1      33.819 -12.718 -22.836  0.00  0.00    -0.427 OA
BRANCH   9  17
ATOM     10  O   UNL     1      33.863 -17.268 -21.034  0.00  0.00    -0.350 OA
ATOM     11  O   UNL     1      31.798 -12.845 -21.773  0.00  0.00    -0.226 OA
ATOM     12  N   UNL     1      33.360 -14.543 -21.512  0.00  0.00    -0.241 N 
ATOM     13  C   UNL     1      34.675 -15.117 -21.808  0.00  0.00    +0.129 C 
ATOM     14  C   UNL     1      32.580 -15.279 -20.518  0.00  0.00    +0.129 C 
ATOM     15  C   UNL     1      34.544 -16.606 -22.104  0.00  0.00    +0.164 C 
ATOM     16  C   UNL     1      32.537 -16.758 -20.873  0.00  0.00    +0.164 C 
ATOM     17  C   UNL     1      32.901 -13.327 -22.022  0.00  0.00    +0.405 C 
ENDBRANCH   9  17
ENDBRANCH   1   9
BRANCH   1  18
ATOM     18  C   UNL     1      33.950 -10.543 -23.863  0.00  0.00    +0.204 C 
BRANCH  18  19
ATOM     19  S   UNL     1      32.888  -9.268 -23.253  0.00  0.00    -0.002 S 
ATOM     20  O   UNL     1      31.926  -8.946 -24.293  0.00  0.00    -0.173 OA
ATOM     21  O   UNL     1      32.444  -9.647 -21.924  0.00  0.00    -0.173 OA
BRANCH  19  22
ATOM     22  C   UNL     1      33.980  -7.876 -23.081  0.00  0.00    +0.180 C 
BRANCH  22  23
ATOM     23  C   UNL     1      33.510  -6.809 -24.021  0.00  0.00    +0.035 C 
ATOM     24  C   UNL     1      32.320  -6.120 -23.780  0.00  0.00    +0.142 C 
ATOM     25  C   UNL     1      34.276  -6.505 -25.146  0.00  0.00    +0.000 C 
ATOM     26  C   UNL     1      31.897  -5.129 -24.665  0.00  0.00    +0.037 C 
ATOM     27  C   UNL     1      33.852  -5.514 -26.031  0.00  0.00    -0.000 C 
ATOM     28  C   UNL     1      32.663  -4.825 -25.791  0.00  0.00    +0.003 C 
BRANCH  24  29
ATOM     29  O   UNL     1      31.559  -6.404 -22.686  0.00  0.00    -0.424 OA
BRANCH  29  32
ATOM     30  F   UNL     1      30.322  -5.113 -21.334  0.00  0.00    -0.155 F 
ATOM     31  F   UNL     1      32.061  -6.116 -20.497  0.00  0.00    -0.155 F 
ATOM     32  C   UNL     1      31.601  -5.482 -21.604  0.00  0.00    +0.509 C 
ENDBRANCH  29  32
ENDBRANCH  24  29
ENDBRANCH  22  23
ENDBRANCH  19  22
ENDBRANCH  18  19
ENDBRANCH   1  18
TORSDOF 11
ENDMDL
