MODEL 1
REMARK VINA RESULT:      -4.7      0.000      0.000
REMARK  Name = 1060
REMARK  2 active torsions:
REMARK  status: ('A' for Active; 'I' for Inactive)
REMARK    1  A    between atoms: C_2  and  C_4
REMARK    2  A    between atoms: C_2  and  O_6
REMARK                            x       y       z     vdW  Elec       q    Type
REMARK                         _______ _______ _______ _____ _____    ______ ____
ROOT
ATOM      1  O   UNL     1      26.310 -20.783 -17.846  0.00  0.00    -0.242 OA
ATOM      2  C   UNL     1      26.432 -21.645 -17.000  0.00  0.00    +0.373 C 
ENDROOT
BRANCH   2   4
ATOM      3  O   UNL     1      27.780 -23.325 -17.908  0.00  0.00    -0.284 OA
ATOM      4  C   UNL     1      27.620 -22.564 -16.964  0.00  0.00    +0.248 C 
ATOM      5  C   UNL     1      28.517 -22.480 -15.767  0.00  0.00    +0.084 C 
ENDBRANCH   2   4
BRANCH   2   6
ATOM      6  O   UNL     1      25.569 -21.972 -16.030  0.00  0.00    -0.475 OA
ATOM      7  H   UNL     1      24.801 -22.469 -16.234  0.00  0.00    +0.295 HD
ENDBRANCH   2   6
TORSDOF 2
ENDMDL
MODEL 2
REMARK VINA RESULT:      -4.6     12.599     13.480
REMARK  Name = 1060
REMARK  2 active torsions:
REMARK  status: ('A' for Active; 'I' for Inactive)
REMARK    1  A    between atoms: C_2  and  C_4
REMARK    2  A    between atoms: C_2  and  O_6
REMARK                            x       y       z     vdW  Elec       q    Type
REMARK                         _______ _______ _______ _____ _____    ______ ____
ROOT
ATOM      1  O   UNL     1      41.009 -24.677 -14.263  0.00  0.00    -0.242 OA
ATOM      2  C   UNL     1      40.262 -25.425 -14.859  0.00  0.00    +0.373 C 
ENDROOT
BRANCH   2   4
ATOM      3  O   UNL     1      38.511 -26.966 -14.712  0.00  0.00    -0.284 OA
ATOM      4  C   UNL     1      38.997 -25.949 -14.240  0.00  0.00    +0.248 C 
ATOM      5  C   UNL     1      38.425 -25.177 -13.091  0.00  0.00    +0.084 C 
ENDBRANCH   2   4
BRANCH   2   6
ATOM      6  O   UNL     1      40.427 -25.949 -16.080  0.00  0.00    -0.475 OA
ATOM      7  H   UNL     1      41.166 -26.496 -16.260  0.00  0.00    +0.295 HD
ENDBRANCH   2   6
TORSDOF 2
ENDMDL
MODEL 3
REMARK VINA RESULT:      -4.3     10.346     11.278
REMARK  Name = 1060
REMARK  2 active torsions:
REMARK  status: ('A' for Active; 'I' for Inactive)
REMARK    1  A    between atoms: C_2  and  C_4
REMARK    2  A    between atoms: C_2  and  O_6
REMARK                            x       y       z     vdW  Elec       q    Type
REMARK                         _______ _______ _______ _____ _____    ______ ____
ROOT
ATOM      1  O   UNL     1      35.398 -24.503  -9.741  0.00  0.00    -0.242 OA
ATOM      2  C   UNL     1      35.671 -24.496 -10.924  0.00  0.00    +0.373 C 
ENDROOT
BRANCH   2   4
ATOM      3  O   UNL     1      37.256 -22.784 -11.055  0.00  0.00    -0.284 OA
ATOM      4  C   UNL     1      36.947 -23.900 -11.445  0.00  0.00    +0.248 C 
ATOM      5  C   UNL     1      37.744 -24.722 -12.412  0.00  0.00    +0.084 C 
ENDBRANCH   2   4
BRANCH   2   6
ATOM      6  O   UNL     1      34.918 -24.932 -11.943  0.00  0.00    -0.475 OA
ATOM      7  H   UNL     1      35.306 -25.440 -12.628  0.00  0.00    +0.295 HD
ENDBRANCH   2   6
TORSDOF 2
ENDMDL
MODEL 4
REMARK VINA RESULT:      -4.3     15.455     16.124
REMARK  Name = 1060
REMARK  2 active torsions:
REMARK  status: ('A' for Active; 'I' for Inactive)
REMARK    1  A    between atoms: C_2  and  C_4
REMARK    2  A    between atoms: C_2  and  O_6
REMARK                            x       y       z     vdW  Elec       q    Type
REMARK                         _______ _______ _______ _____ _____    ______ ____
ROOT
ATOM      1  O   UNL     1      42.285 -16.536 -15.679  0.00  0.00    -0.242 OA
ATOM      2  C   UNL     1      41.314 -15.808 -15.710  0.00  0.00    +0.373 C 
ENDROOT
BRANCH   2   4
ATOM      3  O   UNL     1      41.498 -13.481 -15.590  0.00  0.00    -0.284 OA
ATOM      4  C   UNL     1      41.361 -14.442 -16.333  0.00  0.00    +0.248 C 
ATOM      5  C   UNL     1      41.231 -14.362 -17.824  0.00  0.00    +0.084 C 
ENDBRANCH   2   4
BRANCH   2   6
ATOM      6  O   UNL     1      40.104 -16.030 -15.182  0.00  0.00    -0.475 OA
ATOM      7  H   UNL     1      39.665 -15.348 -14.713  0.00  0.00    +0.295 HD
ENDBRANCH   2   6
TORSDOF 2
ENDMDL
MODEL 5
REMARK VINA RESULT:      -4.2     10.179     11.332
REMARK  Name = 1060
REMARK  2 active torsions:
REMARK  status: ('A' for Active; 'I' for Inactive)
REMARK    1  A    between atoms: C_2  and  C_4
REMARK    2  A    between atoms: C_2  and  O_6
REMARK                            x       y       z     vdW  Elec       q    Type
REMARK                         _______ _______ _______ _____ _____    ______ ____
ROOT
ATOM      1  O   UNL     1      35.799 -25.566 -15.447  0.00  0.00    -0.242 OA
ATOM      2  C   UNL     1      36.626 -26.455 -15.440  0.00  0.00    +0.373 C 
ENDROOT
BRANCH   2   4
ATOM      3  O   UNL     1      38.784 -26.939 -14.685  0.00  0.00    -0.284 OA
ATOM      4  C   UNL     1      37.665 -26.570 -14.362  0.00  0.00    +0.248 C 
ATOM      5  C   UNL     1      37.245 -26.226 -12.965  0.00  0.00    +0.084 C 
ENDBRANCH   2   4
BRANCH   2   6
ATOM      6  O   UNL     1      36.809 -27.414 -16.358  0.00  0.00    -0.475 OA
ATOM      7  H   UNL     1      36.529 -27.276 -17.241  0.00  0.00    +0.295 HD
ENDBRANCH   2   6
TORSDOF 2
ENDMDL
MODEL 6
REMARK VINA RESULT:      -4.1      1.704      2.359
REMARK  Name = 1060
REMARK  2 active torsions:
REMARK  status: ('A' for Active; 'I' for Inactive)
REMARK    1  A    between atoms: C_2  and  C_4
REMARK    2  A    between atoms: C_2  and  O_6
REMARK                            x       y       z     vdW  Elec       q    Type
REMARK                         _______ _______ _______ _____ _____    ______ ____
ROOT
ATOM      1  O   UNL     1      27.600 -21.687 -17.010  0.00  0.00    -0.242 OA
ATOM      2  C   UNL     1      28.101 -22.792 -17.028  0.00  0.00    +0.373 C 
ENDROOT
BRANCH   2   4
ATOM      3  O   UNL     1      30.427 -22.572 -16.972  0.00  0.00    -0.284 OA
ATOM      4  C   UNL     1      29.450 -23.067 -16.429  0.00  0.00    +0.248 C 
ATOM      5  C   UNL     1      29.495 -23.935 -15.209  0.00  0.00    +0.084 C 
ENDBRANCH   2   4
BRANCH   2   6
ATOM      6  O   UNL     1      27.616 -23.903 -17.598  0.00  0.00    -0.475 OA
ATOM      7  H   UNL     1      26.696 -24.078 -17.577  0.00  0.00    +0.295 HD
ENDBRANCH   2   6
TORSDOF 2
ENDMDL
MODEL 7
REMARK VINA RESULT:      -4.1      1.239      2.702
REMARK  Name = 1060
REMARK  2 active torsions:
REMARK  status: ('A' for Active; 'I' for Inactive)
REMARK    1  A    between atoms: C_2  and  C_4
REMARK    2  A    between atoms: C_2  and  O_6
REMARK                            x       y       z     vdW  Elec       q    Type
REMARK                         _______ _______ _______ _____ _____    ______ ____
ROOT
ATOM      1  O   UNL     1      27.689 -24.058 -17.540  0.00  0.00    -0.242 OA
ATOM      2  C   UNL     1      27.952 -22.920 -17.209  0.00  0.00    +0.373 C 
ENDROOT
BRANCH   2   4
ATOM      3  O   UNL     1      26.638 -21.091 -17.834  0.00  0.00    -0.284 OA
ATOM      4  C   UNL     1      26.883 -21.898 -16.949  0.00  0.00    +0.248 C 
ATOM      5  C   UNL     1      26.200 -21.942 -15.616  0.00  0.00    +0.084 C 
ENDBRANCH   2   4
BRANCH   2   6
ATOM      6  O   UNL     1      29.162 -22.363 -17.074  0.00  0.00    -0.475 OA
ATOM      7  H   UNL     1      29.905 -22.749 -17.495  0.00  0.00    +0.295 HD
ENDBRANCH   2   6
TORSDOF 2
ENDMDL
MODEL 8
REMARK VINA RESULT:      -4.0     12.012     12.291
REMARK  Name = 1060
REMARK  2 active torsions:
REMARK  status: ('A' for Active; 'I' for Inactive)
REMARK    1  A    between atoms: C_2  and  C_4
REMARK    2  A    between atoms: C_2  and  O_6
REMARK                            x       y       z     vdW  Elec       q    Type
REMARK                         _______ _______ _______ _____ _____    ______ ____
ROOT
ATOM      1  O   UNL     1      38.664 -23.221 -11.746  0.00  0.00    -0.242 OA
ATOM      2  C   UNL     1      37.843 -24.098 -11.571  0.00  0.00    +0.373 C 
ENDROOT
BRANCH   2   4
ATOM      3  O   UNL     1      37.086 -26.264 -12.017  0.00  0.00    -0.284 OA
ATOM      4  C   UNL     1      37.883 -25.391 -12.333  0.00  0.00    +0.248 C 
ATOM      5  C   UNL     1      38.904 -25.515 -13.422  0.00  0.00    +0.084 C 
ENDBRANCH   2   4
BRANCH   2   6
ATOM      6  O   UNL     1      36.774 -24.072 -10.765  0.00  0.00    -0.475 OA
ATOM      7  H   UNL     1      36.306 -23.271 -10.632  0.00  0.00    +0.295 HD
ENDBRANCH   2   6
TORSDOF 2
ENDMDL
MODEL 9
REMARK VINA RESULT:      -4.0     11.034     11.756
REMARK  Name = 1060
REMARK  2 active torsions:
REMARK  status: ('A' for Active; 'I' for Inactive)
REMARK    1  A    between atoms: C_2  and  C_4
REMARK    2  A    between atoms: C_2  and  O_6
REMARK                            x       y       z     vdW  Elec       q    Type
REMARK                         _______ _______ _______ _____ _____    ______ ____
ROOT
ATOM      1  O   UNL     1      38.385 -27.206 -14.725  0.00  0.00    -0.242 OA
ATOM      2  C   UNL     1      37.344 -26.748 -14.301  0.00  0.00    +0.373 C 
ENDROOT
BRANCH   2   4
ATOM      3  O   UNL     1      36.986 -26.481 -12.006  0.00  0.00    -0.284 OA
ATOM      4  C   UNL     1      37.289 -25.919 -13.049  0.00  0.00    +0.248 C 
ATOM      5  C   UNL     1      37.604 -24.460 -13.178  0.00  0.00    +0.084 C 
ENDBRANCH   2   4
BRANCH   2   6
ATOM      6  O   UNL     1      36.110 -26.923 -14.790  0.00  0.00    -0.475 OA
ATOM      7  H   UNL     1      35.368 -26.599 -14.319  0.00  0.00    +0.295 HD
ENDBRANCH   2   6
TORSDOF 2
ENDMDL
