MODEL 1
REMARK VINA RESULT:      -9.4      0.000      0.000
REMARK  Name = 9881504
REMARK  1 active torsions:
REMARK  status: ('A' for Active; 'I' for Inactive)
REMARK    1  A    between atoms: C_4  and  O_21
REMARK                            x       y       z     vdW  Elec       q    Type
REMARK                         _______ _______ _______ _____ _____    ______ ____
ROOT
ATOM      1  O   UNL     1      32.340  -8.293 -19.677  0.00  0.00    -0.252 OA
ATOM      2  N   UNL     1      32.476  -7.979 -22.007  0.00  0.00    -0.223 N 
ATOM      3  N   UNL     1      32.317  -6.176 -20.474  0.00  0.00    -0.313 N 
ATOM      4  C   UNL     1      34.649  -7.740 -23.933  0.00  0.00    +0.138 C 
ATOM      5  C   UNL     1      34.378  -9.217 -24.188  0.00  0.00    +0.061 C 
ATOM      6  C   UNL     1      33.382  -6.943 -24.053  0.00  0.00    +0.019 C 
ATOM      7  C   UNL     1      33.336  -9.937 -23.353  0.00  0.00    -0.005 C 
ATOM      8  C   UNL     1      32.352  -7.084 -23.114  0.00  0.00    +0.058 C 
ATOM      9  C   UNL     1      32.518  -9.381 -22.343  0.00  0.00    +0.056 C 
ATOM     10  C   UNL     1      33.221  -6.043 -25.119  0.00  0.00    -0.001 C 
ATOM     11  C   UNL     1      33.246 -11.325 -23.615  0.00  0.00    -0.003 C 
ATOM     12  C   UNL     1      31.179  -6.320 -23.251  0.00  0.00    +0.015 C 
ATOM     13  C   UNL     1      31.651 -10.250 -21.641  0.00  0.00    +0.015 C 
ATOM     14  C   UNL     1      32.346  -7.549 -20.662  0.00  0.00    +0.308 C 
ATOM     15  C   UNL     1      32.054  -5.291 -25.247  0.00  0.00    -0.000 C 
ATOM     16  C   UNL     1      32.385 -12.157 -22.906  0.00  0.00    -0.000 C 
ATOM     17  C   UNL     1      31.032  -5.429 -24.313  0.00  0.00    +0.001 C 
ATOM     18  C   UNL     1      31.586 -11.617 -21.914  0.00  0.00    +0.001 C 
ATOM     19  H   UNL     1      32.229  -5.805 -19.566  0.00  0.00    +0.147 HD
ATOM     20  H   UNL     1      32.385  -5.572 -21.247  0.00  0.00    +0.147 HD
ENDROOT
BRANCH   4  21
ATOM     21  O   UNL     1      35.258  -7.536 -22.661  0.00  0.00    -0.380 OA
ATOM     22  H   UNL     1      35.116  -8.319 -22.106  0.00  0.00    +0.211 HD
ENDBRANCH   4  21
TORSDOF 1
ENDMDL
MODEL 2
REMARK VINA RESULT:      -8.4      4.146      7.118
REMARK  Name = 9881504
REMARK  1 active torsions:
REMARK  status: ('A' for Active; 'I' for Inactive)
REMARK    1  A    between atoms: C_4  and  O_21
REMARK                            x       y       z     vdW  Elec       q    Type
REMARK                         _______ _______ _______ _____ _____    ______ ____
ROOT
ATOM      1  O   UNL     1      32.036 -11.400 -22.650  0.00  0.00    -0.252 OA
ATOM      2  N   UNL     1      33.361 -12.920 -23.867  0.00  0.00    -0.223 N 
ATOM      3  N   UNL     1      31.835 -13.605 -22.186  0.00  0.00    -0.313 N 
ATOM      4  C   UNL     1      33.081 -14.331 -26.401  0.00  0.00    +0.138 C 
ATOM      5  C   UNL     1      33.946 -13.202 -26.948  0.00  0.00    +0.061 C 
ATOM      6  C   UNL     1      33.732 -14.961 -25.202  0.00  0.00    +0.019 C 
ATOM      7  C   UNL     1      34.348 -12.064 -26.030  0.00  0.00    -0.005 C 
ATOM      8  C   UNL     1      33.857 -14.254 -23.999  0.00  0.00    +0.058 C 
ATOM      9  C   UNL     1      34.042 -11.923 -24.657  0.00  0.00    +0.056 C 
ATOM     10  C   UNL     1      34.223 -16.274 -25.282  0.00  0.00    -0.001 C 
ATOM     11  C   UNL     1      35.066 -11.028 -26.677  0.00  0.00    -0.003 C 
ATOM     12  C   UNL     1      34.466 -14.872 -22.892  0.00  0.00    +0.015 C 
ATOM     13  C   UNL     1      34.467 -10.745 -24.001  0.00  0.00    +0.015 C 
ATOM     14  C   UNL     1      32.418 -12.553 -22.875  0.00  0.00    +0.308 C 
ATOM     15  C   UNL     1      34.827 -16.877 -24.180  0.00  0.00    -0.000 C 
ATOM     16  C   UNL     1      35.468  -9.878 -26.006  0.00  0.00    -0.000 C 
ATOM     17  C   UNL     1      34.949 -16.177 -22.984  0.00  0.00    +0.001 C 
ATOM     18  C   UNL     1      35.167  -9.736 -24.663  0.00  0.00    +0.001 C 
ATOM     19  H   UNL     1      31.170 -13.425 -21.482  0.00  0.00    +0.147 HD
ATOM     20  H   UNL     1      32.084 -14.532 -22.400  0.00  0.00    +0.147 HD
ENDROOT
BRANCH   4  21
ATOM     21  O   UNL     1      31.769 -13.875 -26.085  0.00  0.00    -0.380 OA
ATOM     22  H   UNL     1      31.566 -13.087 -26.614  0.00  0.00    +0.211 HD
ENDBRANCH   4  21
TORSDOF 1
ENDMDL
MODEL 3
REMARK VINA RESULT:      -8.3      4.690      6.838
REMARK  Name = 9881504
REMARK  1 active torsions:
REMARK  status: ('A' for Active; 'I' for Inactive)
REMARK    1  A    between atoms: C_4  and  O_21
REMARK                            x       y       z     vdW  Elec       q    Type
REMARK                         _______ _______ _______ _____ _____    ______ ____
ROOT
ATOM      1  O   UNL     1      32.419 -15.727 -26.605  0.00  0.00    -0.252 OA
ATOM      2  N   UNL     1      33.419 -14.159 -25.160  0.00  0.00    -0.223 N 
ATOM      3  N   UNL     1      32.147 -13.528 -27.060  0.00  0.00    -0.313 N 
ATOM      4  C   UNL     1      32.630 -12.838 -22.686  0.00  0.00    +0.138 C 
ATOM      5  C   UNL     1      33.467 -13.924 -22.021  0.00  0.00    +0.061 C 
ATOM      6  C   UNL     1      33.425 -12.136 -23.749  0.00  0.00    +0.019 C 
ATOM      7  C   UNL     1      34.092 -15.009 -22.878  0.00  0.00    -0.005 C 
ATOM      8  C   UNL     1      33.794 -12.800 -24.926  0.00  0.00    +0.058 C 
ATOM      9  C   UNL     1      34.026 -15.131 -24.284  0.00  0.00    +0.056 C 
ATOM     10  C   UNL     1      33.806 -10.797 -23.567  0.00  0.00    -0.001 C 
ATOM     11  C   UNL     1      34.762 -16.013 -22.137  0.00  0.00    -0.003 C 
ATOM     12  C   UNL     1      34.534 -12.114 -25.906  0.00  0.00    +0.015 C 
ATOM     13  C   UNL     1      34.632 -16.261 -24.880  0.00  0.00    +0.015 C 
ATOM     14  C   UNL     1      32.679 -14.559 -26.301  0.00  0.00    +0.308 C 
ATOM     15  C   UNL     1      34.541 -10.126 -24.544  0.00  0.00    -0.000 C 
ATOM     16  C   UNL     1      35.346 -17.117 -22.751  0.00  0.00    -0.000 C 
ATOM     17  C   UNL     1      34.905 -10.784 -25.714  0.00  0.00    +0.001 C 
ATOM     18  C   UNL     1      35.280 -17.241 -24.127  0.00  0.00    +0.001 C 
ATOM     19  H   UNL     1      31.621 -13.731 -27.867  0.00  0.00    +0.147 HD
ATOM     20  H   UNL     1      32.294 -12.593 -26.792  0.00  0.00    +0.147 HD
ENDROOT
BRANCH   4  21
ATOM     21  O   UNL     1      31.422 -13.370 -23.222  0.00  0.00    -0.380 OA
ATOM     22  H   UNL     1      31.491 -13.415 -24.189  0.00  0.00    +0.211 HD
ENDBRANCH   4  21
TORSDOF 1
ENDMDL
MODEL 4
REMARK VINA RESULT:      -8.3      1.472      5.170
REMARK  Name = 9881504
REMARK  1 active torsions:
REMARK  status: ('A' for Active; 'I' for Inactive)
REMARK    1  A    between atoms: C_4  and  O_21
REMARK                            x       y       z     vdW  Elec       q    Type
REMARK                         _______ _______ _______ _____ _____    ______ ____
ROOT
ATOM      1  O   UNL     1      34.562  -7.581 -24.719  0.00  0.00    -0.252 OA
ATOM      2  N   UNL     1      32.922  -8.055 -23.096  0.00  0.00    -0.223 N 
ATOM      3  N   UNL     1      34.625  -9.595 -23.690  0.00  0.00    -0.313 N 
ATOM      4  C   UNL     1      32.659  -7.589 -20.232  0.00  0.00    +0.138 C 
ATOM      5  C   UNL     1      31.829  -6.386 -20.661  0.00  0.00    +0.061 C 
ATOM      6  C   UNL     1      32.152  -8.841 -20.889  0.00  0.00    +0.019 C 
ATOM      7  C   UNL     1      31.688  -6.070 -22.138  0.00  0.00    -0.005 C 
ATOM      8  C   UNL     1      32.288  -9.034 -22.270  0.00  0.00    +0.058 C 
ATOM      9  C   UNL     1      32.221  -6.801 -23.224  0.00  0.00    +0.056 C 
ATOM     10  C   UNL     1      31.532  -9.835 -20.114  0.00  0.00    -0.001 C 
ATOM     11  C   UNL     1      30.977  -4.874 -22.405  0.00  0.00    -0.003 C 
ATOM     12  C   UNL     1      31.807 -10.219 -22.856  0.00  0.00    +0.015 C 
ATOM     13  C   UNL     1      32.020  -6.292 -24.527  0.00  0.00    +0.015 C 
ATOM     14  C   UNL     1      34.042  -8.357 -23.911  0.00  0.00    +0.308 C 
ATOM     15  C   UNL     1      31.058 -11.006 -20.705  0.00  0.00    -0.000 C 
ATOM     16  C   UNL     1      30.798  -4.395 -23.700  0.00  0.00    -0.000 C 
ATOM     17  C   UNL     1      31.195 -11.199 -22.075  0.00  0.00    +0.001 C 
ATOM     18  C   UNL     1      31.322  -5.107 -24.764  0.00  0.00    +0.001 C 
ATOM     19  H   UNL     1      35.408  -9.872 -24.220  0.00  0.00    +0.147 HD
ATOM     20  H   UNL     1      34.258 -10.197 -23.004  0.00  0.00    +0.147 HD
ENDROOT
BRANCH   4  21
ATOM     21  O   UNL     1      34.042  -7.393 -20.513  0.00  0.00    -0.380 OA
ATOM     22  H   UNL     1      34.272  -6.462 -20.366  0.00  0.00    +0.211 HD
ENDBRANCH   4  21
TORSDOF 1
ENDMDL
MODEL 5
REMARK VINA RESULT:      -8.1      3.377      5.833
REMARK  Name = 9881504
REMARK  1 active torsions:
REMARK  status: ('A' for Active; 'I' for Inactive)
REMARK    1  A    between atoms: C_4  and  O_21
REMARK                            x       y       z     vdW  Elec       q    Type
REMARK                         _______ _______ _______ _____ _____    ______ ____
ROOT
ATOM      1  O   UNL     1      34.931  -9.504 -23.688  0.00  0.00    -0.252 OA
ATOM      2  N   UNL     1      33.700 -11.462 -24.137  0.00  0.00    -0.223 N 
ATOM      3  N   UNL     1      35.607 -10.824 -25.396  0.00  0.00    -0.313 N 
ATOM      4  C   UNL     1      33.760 -14.205 -23.160  0.00  0.00    +0.138 C 
ATOM      5  C   UNL     1      32.622 -13.745 -22.258  0.00  0.00    +0.061 C 
ATOM      6  C   UNL     1      33.465 -13.873 -24.595  0.00  0.00    +0.019 C 
ATOM      7  C   UNL     1      32.196 -12.289 -22.284  0.00  0.00    -0.005 C 
ATOM      8  C   UNL     1      33.437 -12.543 -25.033  0.00  0.00    +0.058 C 
ATOM      9  C   UNL     1      32.719 -11.261 -23.100  0.00  0.00    +0.056 C 
ATOM     10  C   UNL     1      33.211 -14.905 -25.513  0.00  0.00    -0.001 C 
ATOM     11  C   UNL     1      31.198 -11.964 -21.333  0.00  0.00    -0.003 C 
ATOM     12  C   UNL     1      33.162 -12.264 -26.385  0.00  0.00    +0.015 C 
ATOM     13  C   UNL     1      32.216  -9.951 -22.917  0.00  0.00    +0.015 C 
ATOM     14  C   UNL     1      34.728 -10.513 -24.370  0.00  0.00    +0.308 C 
ATOM     15  C   UNL     1      32.938 -14.618 -26.850  0.00  0.00    -0.000 C 
ATOM     16  C   UNL     1      30.725 -10.666 -21.174  0.00  0.00    -0.000 C 
ATOM     17  C   UNL     1      32.914 -13.298 -27.286  0.00  0.00    +0.001 C 
ATOM     18  C   UNL     1      31.237  -9.656 -21.969  0.00  0.00    +0.001 C 
ATOM     19  H   UNL     1      36.346 -10.211 -25.614  0.00  0.00    +0.147 HD
ATOM     20  H   UNL     1      35.493 -11.657 -25.906  0.00  0.00    +0.147 HD
ENDROOT
BRANCH   4  21
ATOM     21  O   UNL     1      35.004 -13.641 -22.754  0.00  0.00    -0.380 OA
ATOM     22  H   UNL     1      34.875 -12.708 -22.523  0.00  0.00    +0.211 HD
ENDBRANCH   4  21
TORSDOF 1
ENDMDL
MODEL 6
REMARK VINA RESULT:      -8.1      4.115      6.207
REMARK  Name = 9881504
REMARK  1 active torsions:
REMARK  status: ('A' for Active; 'I' for Inactive)
REMARK    1  A    between atoms: C_4  and  O_21
REMARK                            x       y       z     vdW  Elec       q    Type
REMARK                         _______ _______ _______ _____ _____    ______ ____
ROOT
ATOM      1  O   UNL     1      32.885 -15.288 -26.106  0.00  0.00    -0.252 OA
ATOM      2  N   UNL     1      33.505 -13.554 -24.637  0.00  0.00    -0.223 N 
ATOM      3  N   UNL     1      32.688 -13.153 -26.828  0.00  0.00    -0.313 N 
ATOM      4  C   UNL     1      32.154 -12.038 -22.548  0.00  0.00    +0.138 C 
ATOM      5  C   UNL     1      32.836 -13.023 -21.607  0.00  0.00    +0.061 C 
ATOM      6  C   UNL     1      33.158 -11.408 -23.472  0.00  0.00    +0.019 C 
ATOM      7  C   UNL     1      33.657 -14.159 -22.189  0.00  0.00    -0.005 C 
ATOM      8  C   UNL     1      33.796 -12.165 -24.463  0.00  0.00    +0.058 C 
ATOM      9  C   UNL     1      33.914 -14.415 -23.555  0.00  0.00    +0.056 C 
ATOM     10  C   UNL     1      33.465 -10.044 -23.344  0.00  0.00    -0.001 C 
ATOM     11  C   UNL     1      34.158 -15.063 -21.221  0.00  0.00    -0.003 C 
ATOM     12  C   UNL     1      34.727 -11.546 -25.316  0.00  0.00    +0.015 C 
ATOM     13  C   UNL     1      34.658 -15.572 -23.883  0.00  0.00    +0.015 C 
ATOM     14  C   UNL     1      33.050 -14.088 -25.870  0.00  0.00    +0.308 C 
ATOM     15  C   UNL     1      34.392  -9.440 -24.193  0.00  0.00    -0.000 C 
ATOM     16  C   UNL     1      34.884 -16.195 -21.573  0.00  0.00    -0.000 C 
ATOM     17  C   UNL     1      35.023 -10.191 -25.180  0.00  0.00    +0.001 C 
ATOM     18  C   UNL     1      35.134 -16.451 -22.910  0.00  0.00    +0.001 C 
ATOM     19  H   UNL     1      32.362 -13.452 -27.708  0.00  0.00    +0.147 HD
ATOM     20  H   UNL     1      32.755 -12.193 -26.629  0.00  0.00    +0.147 HD
ENDROOT
BRANCH   4  21
ATOM     21  O   UNL     1      31.108 -12.664 -23.286  0.00  0.00    -0.380 OA
ATOM     22  H   UNL     1      30.306 -12.121 -23.232  0.00  0.00    +0.211 HD
ENDBRANCH   4  21
TORSDOF 1
ENDMDL
MODEL 7
REMARK VINA RESULT:      -7.7     16.357     18.613
REMARK  Name = 9881504
REMARK  1 active torsions:
REMARK  status: ('A' for Active; 'I' for Inactive)
REMARK    1  A    between atoms: C_4  and  O_21
REMARK                            x       y       z     vdW  Elec       q    Type
REMARK                         _______ _______ _______ _____ _____    ______ ____
ROOT
ATOM      1  O   UNL     1      36.394 -21.901 -16.947  0.00  0.00    -0.252 OA
ATOM      2  N   UNL     1      35.932 -23.642 -15.430  0.00  0.00    -0.223 N 
ATOM      3  N   UNL     1      38.137 -23.039 -16.063  0.00  0.00    -0.313 N 
ATOM      4  C   UNL     1      35.505 -23.813 -12.553  0.00  0.00    +0.138 C 
ATOM      5  C   UNL     1      34.028 -23.803 -12.928  0.00  0.00    +0.061 C 
ATOM      6  C   UNL     1      36.237 -24.878 -13.318  0.00  0.00    +0.019 C 
ATOM      7  C   UNL     1      33.633 -23.636 -14.383  0.00  0.00    -0.005 C 
ATOM      8  C   UNL     1      36.421 -24.771 -14.702  0.00  0.00    +0.058 C 
ATOM      9  C   UNL     1      34.497 -23.519 -15.496  0.00  0.00    +0.056 C 
ATOM     10  C   UNL     1      36.744 -26.000 -12.642  0.00  0.00    -0.001 C 
ATOM     11  C   UNL     1      32.235 -23.544 -14.593  0.00  0.00    -0.003 C 
ATOM     12  C   UNL     1      37.115 -25.783 -15.390  0.00  0.00    +0.015 C 
ATOM     13  C   UNL     1      33.914 -23.309 -16.767  0.00  0.00    +0.015 C 
ATOM     14  C   UNL     1      36.777 -22.820 -16.218  0.00  0.00    +0.308 C 
ATOM     15  C   UNL     1      37.430 -26.998 -13.333  0.00  0.00    -0.000 C 
ATOM     16  C   UNL     1      31.691 -23.333 -15.856  0.00  0.00    -0.000 C 
ATOM     17  C   UNL     1      37.615 -26.891 -14.707  0.00  0.00    +0.001 C 
ATOM     18  C   UNL     1      32.534 -23.214 -16.946  0.00  0.00    +0.001 C 
ATOM     19  H   UNL     1      38.784 -22.504 -16.579  0.00  0.00    +0.147 HD
ATOM     20  H   UNL     1      38.457 -23.727 -15.437  0.00  0.00    +0.147 HD
ENDROOT
BRANCH   4  21
ATOM     21  O   UNL     1      36.102 -22.536 -12.763  0.00  0.00    -0.380 OA
ATOM     22  H   UNL     1      36.868 -22.437 -12.175  0.00  0.00    +0.211 HD
ENDBRANCH   4  21
TORSDOF 1
ENDMDL
MODEL 8
REMARK VINA RESULT:      -7.6     16.242     18.699
REMARK  Name = 9881504
REMARK  1 active torsions:
REMARK  status: ('A' for Active; 'I' for Inactive)
REMARK    1  A    between atoms: C_4  and  O_21
REMARK                            x       y       z     vdW  Elec       q    Type
REMARK                         _______ _______ _______ _____ _____    ______ ____
ROOT
ATOM      1  O   UNL     1      39.409 -25.476 -13.534  0.00  0.00    -0.252 OA
ATOM      2  N   UNL     1      37.570 -24.241 -14.335  0.00  0.00    -0.223 N 
ATOM      3  N   UNL     1      39.372 -24.913 -15.725  0.00  0.00    -0.313 N 
ATOM      4  C   UNL     1      34.931 -24.910 -15.372  0.00  0.00    +0.138 C 
ATOM      5  C   UNL     1      34.466 -24.604 -13.954  0.00  0.00    +0.061 C 
ATOM      6  C   UNL     1      35.740 -23.769 -15.921  0.00  0.00    +0.019 C 
ATOM      7  C   UNL     1      35.495 -24.258 -12.894  0.00  0.00    -0.005 C 
ATOM      8  C   UNL     1      37.004 -23.469 -15.397  0.00  0.00    +0.058 C 
ATOM      9  C   UNL     1      36.893 -24.143 -13.066  0.00  0.00    +0.056 C 
ATOM     10  C   UNL     1      35.229 -22.991 -16.971  0.00  0.00    -0.001 C 
ATOM     11  C   UNL     1      34.952 -24.092 -11.597  0.00  0.00    -0.003 C 
ATOM     12  C   UNL     1      37.741 -22.398 -15.934  0.00  0.00    +0.015 C 
ATOM     13  C   UNL     1      37.680 -23.870 -11.923  0.00  0.00    +0.015 C 
ATOM     14  C   UNL     1      38.828 -24.886 -14.450  0.00  0.00    +0.308 C 
ATOM     15  C   UNL     1      35.966 -21.930 -17.496  0.00  0.00    -0.000 C 
ATOM     16  C   UNL     1      35.752 -23.828 -10.490  0.00  0.00    -0.000 C 
ATOM     17  C   UNL     1      37.222 -21.633 -16.978  0.00  0.00    +0.001 C 
ATOM     18  C   UNL     1      37.121 -23.717 -10.654  0.00  0.00    +0.001 C 
ATOM     19  H   UNL     1      40.243 -25.345 -15.879  0.00  0.00    +0.147 HD
ATOM     20  H   UNL     1      38.887 -24.501 -16.475  0.00  0.00    +0.147 HD
ENDROOT
BRANCH   4  21
ATOM     21  O   UNL     1      35.668 -26.127 -15.426  0.00  0.00    -0.380 OA
ATOM     22  H   UNL     1      36.549 -25.955 -15.794  0.00  0.00    +0.211 HD
ENDBRANCH   4  21
TORSDOF 1
ENDMDL
MODEL 9
REMARK VINA RESULT:      -7.2      3.751      5.493
REMARK  Name = 9881504
REMARK  1 active torsions:
REMARK  status: ('A' for Active; 'I' for Inactive)
REMARK    1  A    between atoms: C_4  and  O_21
REMARK                            x       y       z     vdW  Elec       q    Type
REMARK                         _______ _______ _______ _____ _____    ______ ____
ROOT
ATOM      1  O   UNL     1      34.986 -15.108 -22.872  0.00  0.00    -0.252 OA
ATOM      2  N   UNL     1      33.582 -13.270 -23.321  0.00  0.00    -0.223 N 
ATOM      3  N   UNL     1      34.418 -13.750 -21.154  0.00  0.00    -0.313 N 
ATOM      4  C   UNL     1      33.997 -10.522 -24.195  0.00  0.00    +0.138 C 
ATOM      5  C   UNL     1      33.650 -11.071 -25.573  0.00  0.00    +0.061 C 
ATOM      6  C   UNL     1      32.937 -10.893 -23.197  0.00  0.00    +0.019 C 
ATOM      7  C   UNL     1      33.405 -12.559 -25.739  0.00  0.00    -0.005 C 
ATOM      8  C   UNL     1      32.758 -12.225 -22.801  0.00  0.00    +0.058 C 
ATOM      9  C   UNL     1      33.422 -13.546 -24.728  0.00  0.00    +0.056 C 
ATOM     10  C   UNL     1      32.112  -9.897 -22.651  0.00  0.00    -0.001 C 
ATOM     11  C   UNL     1      33.190 -12.961 -27.080  0.00  0.00    -0.003 C 
ATOM     12  C   UNL     1      31.760 -12.540 -21.860  0.00  0.00    +0.015 C 
ATOM     13  C   UNL     1      33.226 -14.893 -25.113  0.00  0.00    +0.015 C 
ATOM     14  C   UNL     1      34.343 -14.127 -22.486  0.00  0.00    +0.308 C 
ATOM     15  C   UNL     1      31.125 -10.220 -21.721  0.00  0.00    -0.000 C 
ATOM     16  C   UNL     1      33.004 -14.295 -27.430  0.00  0.00    -0.000 C 
ATOM     17  C   UNL     1      30.949 -11.541 -21.325  0.00  0.00    +0.001 C 
ATOM     18  C   UNL     1      33.023 -15.264 -26.443  0.00  0.00    +0.001 C 
ATOM     19  H   UNL     1      34.930 -14.299 -20.516  0.00  0.00    +0.147 HD
ATOM     20  H   UNL     1      33.962 -12.935 -20.846  0.00  0.00    +0.147 HD
ENDROOT
BRANCH   4  21
ATOM     21  O   UNL     1      35.279 -10.971 -23.764  0.00  0.00    -0.380 OA
ATOM     22  H   UNL     1      35.890 -10.218 -23.732  0.00  0.00    +0.211 HD
ENDBRANCH   4  21
TORSDOF 1
ENDMDL
