MODEL 1
REMARK VINA RESULT:      -9.1      0.000      0.000
REMARK  Name = 11840979
REMARK  11 active torsions:
REMARK  status: ('A' for Active; 'I' for Inactive)
REMARK    1  A    between atoms: C_1  and  C_2
REMARK    2  A    between atoms: C_1  and  C_17
REMARK    3  A    between atoms: C_3  and  O_11
REMARK    4  A    between atoms: C_4  and  O_13
REMARK    5  A    between atoms: C_5  and  N_8
REMARK    6  A    between atoms: C_6  and  O_15
REMARK    7  A    between atoms: C_17  and  O_18
REMARK    8  A    between atoms: O_18  and  C_20
REMARK    9  A    between atoms: C_20  and  C_22
REMARK   10  A    between atoms: C_23  and  O_28
REMARK   11  A    between atoms: C_27  and  O_30
REMARK                            x       y       z     vdW  Elec       q    Type
REMARK                         _______ _______ _______ _____ _____    ______ ____
ROOT
ATOM      1  C   UNL     1      35.063 -16.303 -22.023  0.00  0.00    +0.080 C 
ENDROOT
BRANCH   1   2
ATOM      2  C   UNL     1      34.216 -15.438 -22.924  0.00  0.00    +0.054 C 
ATOM      3  C   UNL     1      33.440 -14.429 -22.372  0.00  0.00    +0.151 C 
ATOM      4  C   UNL     1      34.226 -15.665 -24.293  0.00  0.00    +0.171 C 
ATOM      5  C   UNL     1      32.658 -13.630 -23.206  0.00  0.00    +0.079 C 
ATOM      6  C   UNL     1      33.443 -14.866 -25.127  0.00  0.00    +0.173 C 
ATOM      7  C   UNL     1      32.660 -13.849 -24.583  0.00  0.00    +0.057 C 
BRANCH   5   8
ATOM      8  N   UNL     1      31.859 -12.596 -22.670  0.00  0.00    -0.355 N 
ATOM      9  H   UNL     1      32.172 -11.663 -22.708  0.00  0.00    +0.142 HD
ATOM     10  H   UNL     1      30.991 -12.807 -22.258  0.00  0.00    +0.142 HD
ENDBRANCH   5   8
BRANCH   3  11
ATOM     11  O   UNL     1      33.439 -14.217 -21.024  0.00  0.00    -0.470 OA
ATOM     12  C   UNL     1      32.377 -14.806 -20.278  0.00  0.00    +0.253 C 
ENDBRANCH   3  11
BRANCH   4  13
ATOM     13  O   UNL     1      34.990 -16.658 -24.831  0.00  0.00    -0.469 OA
ATOM     14  C   UNL     1      34.339 -17.893 -25.115  0.00  0.00    +0.253 C 
ENDBRANCH   4  13
BRANCH   6  15
ATOM     15  O   UNL     1      33.437 -15.069 -26.475  0.00  0.00    -0.468 OA
ATOM     16  C   UNL     1      33.417 -13.908 -27.303  0.00  0.00    +0.253 C 
ENDBRANCH   6  15
ENDBRANCH   1   2
BRANCH   1  17
ATOM     17  C   UNL     1      34.256 -17.410 -21.355  0.00  0.00    +0.214 C 
BRANCH  17  18
ATOM     18  O   UNL     1      35.142 -18.391 -20.805  0.00  0.00    -0.445 OA
BRANCH  18  20
ATOM     19  O   UNL     1      35.015 -19.981 -22.465  0.00  0.00    -0.245 OA
ATOM     20  C   UNL     1      35.008 -19.670 -21.268  0.00  0.00    +0.344 C 
BRANCH  20  22
ATOM     21 CL   UNL     1      37.222 -22.239 -17.394  0.00  0.00    -0.079 Cl
ATOM     22  C   UNL     1      34.852 -20.620 -20.174  0.00  0.00    +0.110 C 
ATOM     23  C   UNL     1      33.615 -21.203 -19.903  0.00  0.00    +0.143 C 
ATOM     24  C   UNL     1      35.962 -20.946 -19.394  0.00  0.00    +0.024 C 
ATOM     25  C   UNL     1      33.486 -22.111 -18.853  0.00  0.00    +0.074 C 
ATOM     26  C   UNL     1      35.833 -21.854 -18.343  0.00  0.00    +0.092 C 
ATOM     27  C   UNL     1      34.595 -22.437 -18.073  0.00  0.00    +0.147 C 
BRANCH  23  28
ATOM     28  O   UNL     1      32.519 -20.898 -20.654  0.00  0.00    -0.505 OA
ATOM     29  H   UNL     1      31.707 -20.686 -20.235  0.00  0.00    +0.292 HD
ENDBRANCH  23  28
BRANCH  27  30
ATOM     30  O   UNL     1      34.441 -23.327 -17.052  0.00  0.00    -0.505 OA
ATOM     31  H   UNL     1      34.541 -24.245 -17.212  0.00  0.00    +0.292 HD
ENDBRANCH  27  30
ENDBRANCH  20  22
ENDBRANCH  18  20
ENDBRANCH  17  18
ENDBRANCH   1  17
TORSDOF 11
ENDMDL
MODEL 2
REMARK VINA RESULT:      -8.9      6.917     10.482
REMARK  Name = 11840979
REMARK  11 active torsions:
REMARK  status: ('A' for Active; 'I' for Inactive)
REMARK    1  A    between atoms: C_1  and  C_2
REMARK    2  A    between atoms: C_1  and  C_17
REMARK    3  A    between atoms: C_3  and  O_11
REMARK    4  A    between atoms: C_4  and  O_13
REMARK    5  A    between atoms: C_5  and  N_8
REMARK    6  A    between atoms: C_6  and  O_15
REMARK    7  A    between atoms: C_17  and  O_18
REMARK    8  A    between atoms: O_18  and  C_20
REMARK    9  A    between atoms: C_20  and  C_22
REMARK   10  A    between atoms: C_23  and  O_28
REMARK   11  A    between atoms: C_27  and  O_30
REMARK                            x       y       z     vdW  Elec       q    Type
REMARK                         _______ _______ _______ _____ _____    ______ ____
ROOT
ATOM      1  C   UNL     1      33.639 -24.791 -13.951  0.00  0.00    +0.080 C 
ENDROOT
BRANCH   1   2
ATOM      2  C   UNL     1      33.240 -24.041 -15.199  0.00  0.00    +0.054 C 
ATOM      3  C   UNL     1      31.912 -23.690 -15.391  0.00  0.00    +0.151 C 
ATOM      4  C   UNL     1      34.209 -23.714 -16.137  0.00  0.00    +0.171 C 
ATOM      5  C   UNL     1      31.545 -22.997 -16.544  0.00  0.00    +0.079 C 
ATOM      6  C   UNL     1      33.842 -23.021 -17.290  0.00  0.00    +0.173 C 
ATOM      7  C   UNL     1      32.509 -22.662 -17.493  0.00  0.00    +0.057 C 
BRANCH   5   8
ATOM      8  N   UNL     1      30.200 -22.626 -16.764  0.00  0.00    -0.355 N 
ATOM      9  H   UNL     1      29.819 -21.852 -16.290  0.00  0.00    +0.142 HD
ATOM     10  H   UNL     1      29.643 -23.143 -17.390  0.00  0.00    +0.142 HD
ENDBRANCH   5   8
BRANCH   3  11
ATOM     11  O   UNL     1      30.969 -24.019 -14.460  0.00  0.00    -0.470 OA
ATOM     12  C   UNL     1      30.267 -25.243 -14.657  0.00  0.00    +0.253 C 
ENDBRANCH   3  11
BRANCH   4  13
ATOM     13  O   UNL     1      35.513 -24.062 -15.944  0.00  0.00    -0.469 OA
ATOM     14  C   UNL     1      36.436 -23.004 -15.698  0.00  0.00    +0.253 C 
ENDBRANCH   4  13
BRANCH   6  15
ATOM     15  O   UNL     1      34.775 -22.687 -18.225  0.00  0.00    -0.468 OA
ATOM     16  C   UNL     1      34.337 -21.885 -19.320  0.00  0.00    +0.253 C 
ENDBRANCH   6  15
ENDBRANCH   1   2
BRANCH   1  17
ATOM     17  C   UNL     1      34.374 -23.906 -12.952  0.00  0.00    +0.214 C 
BRANCH  17  18
ATOM     18  O   UNL     1      34.808 -24.691 -11.836  0.00  0.00    -0.445 OA
BRANCH  18  20
ATOM     19  O   UNL     1      36.408 -24.054 -10.308  0.00  0.00    -0.245 OA
ATOM     20  C   UNL     1      36.096 -24.505 -11.416  0.00  0.00    +0.344 C 
BRANCH  20  22
ATOM     21 CL   UNL     1      37.110 -27.469 -15.503  0.00  0.00    -0.079 Cl
ATOM     22  C   UNL     1      37.053 -24.904 -12.440  0.00  0.00    +0.110 C 
ATOM     23  C   UNL     1      38.324 -24.330 -12.493  0.00  0.00    +0.143 C 
ATOM     24  C   UNL     1      36.687 -25.873 -13.373  0.00  0.00    +0.024 C 
ATOM     25  C   UNL     1      39.227 -24.725 -13.479  0.00  0.00    +0.074 C 
ATOM     26  C   UNL     1      37.590 -26.268 -14.360  0.00  0.00    +0.092 C 
ATOM     27  C   UNL     1      38.860 -25.695 -14.412  0.00  0.00    +0.147 C 
BRANCH  23  28
ATOM     28  O   UNL     1      38.701 -23.382 -11.589  0.00  0.00    -0.505 OA
ATOM     29  H   UNL     1      39.036 -23.639 -10.752  0.00  0.00    +0.292 HD
ENDBRANCH  23  28
BRANCH  27  30
ATOM     30  O   UNL     1      39.762 -26.062 -15.366  0.00  0.00    -0.505 OA
ATOM     31  H   UNL     1      39.999 -26.964 -15.464  0.00  0.00    +0.292 HD
ENDBRANCH  27  30
ENDBRANCH  20  22
ENDBRANCH  18  20
ENDBRANCH  17  18
ENDBRANCH   1  17
TORSDOF 11
ENDMDL
MODEL 3
REMARK VINA RESULT:      -8.9      1.143      2.835
REMARK  Name = 11840979
REMARK  11 active torsions:
REMARK  status: ('A' for Active; 'I' for Inactive)
REMARK    1  A    between atoms: C_1  and  C_2
REMARK    2  A    between atoms: C_1  and  C_17
REMARK    3  A    between atoms: C_3  and  O_11
REMARK    4  A    between atoms: C_4  and  O_13
REMARK    5  A    between atoms: C_5  and  N_8
REMARK    6  A    between atoms: C_6  and  O_15
REMARK    7  A    between atoms: C_17  and  O_18
REMARK    8  A    between atoms: O_18  and  C_20
REMARK    9  A    between atoms: C_20  and  C_22
REMARK   10  A    between atoms: C_23  and  O_28
REMARK   11  A    between atoms: C_27  and  O_30
REMARK                            x       y       z     vdW  Elec       q    Type
REMARK                         _______ _______ _______ _____ _____    ______ ____
ROOT
ATOM      1  C   UNL     1      35.162 -16.374 -22.202  0.00  0.00    +0.080 C 
ENDROOT
BRANCH   1   2
ATOM      2  C   UNL     1      34.268 -15.468 -23.014  0.00  0.00    +0.054 C 
ATOM      3  C   UNL     1      34.173 -15.653 -24.386  0.00  0.00    +0.151 C 
ATOM      4  C   UNL     1      33.554 -14.464 -22.377  0.00  0.00    +0.171 C 
ATOM      5  C   UNL     1      33.347 -14.816 -25.136  0.00  0.00    +0.079 C 
ATOM      6  C   UNL     1      32.728 -13.627 -23.127  0.00  0.00    +0.173 C 
ATOM      7  C   UNL     1      32.624 -13.804 -24.506  0.00  0.00    +0.057 C 
BRANCH   5   8
ATOM      8  N   UNL     1      33.230 -14.982 -26.534  0.00  0.00    -0.355 N 
ATOM      9  H   UNL     1      33.352 -14.210 -27.133  0.00  0.00    +0.142 HD
ATOM     10  H   UNL     1      33.027 -15.869 -26.909  0.00  0.00    +0.142 HD
ENDBRANCH   5   8
BRANCH   3  11
ATOM     11  O   UNL     1      34.881 -16.645 -25.001  0.00  0.00    -0.470 OA
ATOM     12  C   UNL     1      34.232 -17.904 -25.151  0.00  0.00    +0.253 C 
ENDBRANCH   3  11
BRANCH   4  13
ATOM     13  O   UNL     1      33.651 -14.286 -21.028  0.00  0.00    -0.469 OA
ATOM     14  C   UNL     1      32.558 -14.741 -20.235  0.00  0.00    +0.253 C 
ENDBRANCH   4  13
BRANCH   6  15
ATOM     15  O   UNL     1      32.016 -12.634 -22.523  0.00  0.00    -0.468 OA
ATOM     16  C   UNL     1      32.420 -11.293 -22.791  0.00  0.00    +0.253 C 
ENDBRANCH   6  15
ENDBRANCH   1   2
BRANCH   1  17
ATOM     17  C   UNL     1      34.370 -17.352 -21.343  0.00  0.00    +0.214 C 
BRANCH  17  18
ATOM     18  O   UNL     1      35.241 -18.373 -20.843  0.00  0.00    -0.445 OA
BRANCH  18  20
ATOM     19  O   UNL     1      34.989 -19.946 -22.505  0.00  0.00    -0.245 OA
ATOM     20  C   UNL     1      35.032 -19.642 -21.307  0.00  0.00    +0.344 C 
BRANCH  20  22
ATOM     21 CL   UNL     1      37.204 -22.202 -17.403  0.00  0.00    -0.079 Cl
ATOM     22  C   UNL     1      34.865 -20.589 -20.212  0.00  0.00    +0.110 C 
ATOM     23  C   UNL     1      33.624 -21.172 -19.954  0.00  0.00    +0.143 C 
ATOM     24  C   UNL     1      35.966 -20.914 -19.420  0.00  0.00    +0.024 C 
ATOM     25  C   UNL     1      33.484 -22.077 -18.903  0.00  0.00    +0.074 C 
ATOM     26  C   UNL     1      35.825 -21.819 -18.369  0.00  0.00    +0.092 C 
ATOM     27  C   UNL     1      34.585 -22.401 -18.110  0.00  0.00    +0.147 C 
BRANCH  23  28
ATOM     28  O   UNL     1      32.537 -20.868 -20.717  0.00  0.00    -0.505 OA
ATOM     29  H   UNL     1      31.754 -20.548 -20.313  0.00  0.00    +0.292 HD
ENDBRANCH  23  28
BRANCH  27  30
ATOM     30  O   UNL     1      34.420 -23.289 -17.089  0.00  0.00    -0.505 OA
ATOM     31  H   UNL     1      33.972 -23.027 -16.309  0.00  0.00    +0.292 HD
ENDBRANCH  27  30
ENDBRANCH  20  22
ENDBRANCH  18  20
ENDBRANCH  17  18
ENDBRANCH   1  17
TORSDOF 11
ENDMDL
MODEL 4
REMARK VINA RESULT:      -8.7      3.614      5.933
REMARK  Name = 11840979
REMARK  11 active torsions:
REMARK  status: ('A' for Active; 'I' for Inactive)
REMARK    1  A    between atoms: C_1  and  C_2
REMARK    2  A    between atoms: C_1  and  C_17
REMARK    3  A    between atoms: C_3  and  O_11
REMARK    4  A    between atoms: C_4  and  O_13
REMARK    5  A    between atoms: C_5  and  N_8
REMARK    6  A    between atoms: C_6  and  O_15
REMARK    7  A    between atoms: C_17  and  O_18
REMARK    8  A    between atoms: O_18  and  C_20
REMARK    9  A    between atoms: C_20  and  C_22
REMARK   10  A    between atoms: C_23  and  O_28
REMARK   11  A    between atoms: C_27  and  O_30
REMARK                            x       y       z     vdW  Elec       q    Type
REMARK                         _______ _______ _______ _____ _____    ______ ____
ROOT
ATOM      1  C   UNL     1      32.124 -13.594 -22.223  0.00  0.00    +0.080 C 
ENDROOT
BRANCH   1   2
ATOM      2  C   UNL     1      32.508 -12.194 -22.635  0.00  0.00    +0.054 C 
ATOM      3  C   UNL     1      33.444 -12.011 -23.643  0.00  0.00    +0.151 C 
ATOM      4  C   UNL     1      31.920 -11.110 -21.999  0.00  0.00    +0.171 C 
ATOM      5  C   UNL     1      33.799 -10.717 -24.023  0.00  0.00    +0.079 C 
ATOM      6  C   UNL     1      32.275  -9.816 -22.380  0.00  0.00    +0.173 C 
ATOM      7  C   UNL     1      33.214  -9.620 -23.392  0.00  0.00    +0.057 C 
BRANCH   5   8
ATOM      8  N   UNL     1      34.748 -10.501 -25.047  0.00  0.00    -0.355 N 
ATOM      9  H   UNL     1      35.662 -10.857 -24.953  0.00  0.00    +0.142 HD
ATOM     10  H   UNL     1      34.497  -9.995 -25.852  0.00  0.00    +0.142 HD
ENDBRANCH   5   8
BRANCH   3  11
ATOM     11  O   UNL     1      34.016 -13.086 -24.259  0.00  0.00    -0.470 OA
ATOM     12  C   UNL     1      33.320 -13.636 -25.375  0.00  0.00    +0.253 C 
ENDBRANCH   3  11
BRANCH   4  13
ATOM     13  O   UNL     1      31.001 -11.296 -21.009  0.00  0.00    -0.469 OA
ATOM     14  C   UNL     1      31.453 -11.133 -19.668  0.00  0.00    +0.253 C 
ENDBRANCH   4  13
BRANCH   6  15
ATOM     15  O   UNL     1      31.710  -8.735 -21.771  0.00  0.00    -0.468 OA
ATOM     16  C   UNL     1      32.593  -7.828 -21.113  0.00  0.00    +0.253 C 
ENDBRANCH   6  15
ENDBRANCH   1   2
BRANCH   1  17
ATOM     17  C   UNL     1      32.946 -14.098 -21.042  0.00  0.00    +0.214 C 
BRANCH  17  18
ATOM     18  O   UNL     1      34.229 -14.540 -21.500  0.00  0.00    -0.445 OA
BRANCH  18  20
ATOM     19  O   UNL     1      35.020 -15.869 -19.794  0.00  0.00    -0.245 OA
ATOM     20  C   UNL     1      34.697 -15.714 -20.978  0.00  0.00    +0.344 C 
BRANCH  20  22
ATOM     21 CL   UNL     1      33.865 -17.086 -25.870  0.00  0.00    -0.079 Cl
ATOM     22  C   UNL     1      34.770 -16.757 -21.992  0.00  0.00    +0.110 C 
ATOM     23  C   UNL     1      35.259 -18.026 -21.680  0.00  0.00    +0.143 C 
ATOM     24  C   UNL     1      34.341 -16.476 -23.289  0.00  0.00    +0.024 C 
ATOM     25  C   UNL     1      35.320 -19.011 -22.664  0.00  0.00    +0.074 C 
ATOM     26  C   UNL     1      34.402 -17.461 -24.273  0.00  0.00    +0.092 C 
ATOM     27  C   UNL     1      34.891 -18.730 -23.961  0.00  0.00    +0.147 C 
BRANCH  23  28
ATOM     28  O   UNL     1      35.683 -18.320 -20.418  0.00  0.00    -0.505 OA
ATOM     29  H   UNL     1      36.592 -18.250 -20.200  0.00  0.00    +0.292 HD
ENDBRANCH  23  28
BRANCH  27  30
ATOM     30  O   UNL     1      34.962 -19.712 -24.903  0.00  0.00    -0.505 OA
ATOM     31  H   UNL     1      35.770 -20.165 -25.048  0.00  0.00    +0.292 HD
ENDBRANCH  27  30
ENDBRANCH  20  22
ENDBRANCH  18  20
ENDBRANCH  17  18
ENDBRANCH   1  17
TORSDOF 11
ENDMDL
MODEL 5
REMARK VINA RESULT:      -8.7      3.174      5.799
REMARK  Name = 11840979
REMARK  11 active torsions:
REMARK  status: ('A' for Active; 'I' for Inactive)
REMARK    1  A    between atoms: C_1  and  C_2
REMARK    2  A    between atoms: C_1  and  C_17
REMARK    3  A    between atoms: C_3  and  O_11
REMARK    4  A    between atoms: C_4  and  O_13
REMARK    5  A    between atoms: C_5  and  N_8
REMARK    6  A    between atoms: C_6  and  O_15
REMARK    7  A    between atoms: C_17  and  O_18
REMARK    8  A    between atoms: O_18  and  C_20
REMARK    9  A    between atoms: C_20  and  C_22
REMARK   10  A    between atoms: C_23  and  O_28
REMARK   11  A    between atoms: C_27  and  O_30
REMARK                            x       y       z     vdW  Elec       q    Type
REMARK                         _______ _______ _______ _____ _____    ______ ____
ROOT
ATOM      1  C   UNL     1      31.979 -13.262 -22.558  0.00  0.00    +0.080 C 
ENDROOT
BRANCH   1   2
ATOM      2  C   UNL     1      32.483 -11.865 -22.831  0.00  0.00    +0.054 C 
ATOM      3  C   UNL     1      33.513 -11.675 -23.741  0.00  0.00    +0.151 C 
ATOM      4  C   UNL     1      31.908 -10.791 -22.167  0.00  0.00    +0.171 C 
ATOM      5  C   UNL     1      33.977 -10.384 -23.992  0.00  0.00    +0.079 C 
ATOM      6  C   UNL     1      32.373  -9.501 -22.418  0.00  0.00    +0.173 C 
ATOM      7  C   UNL     1      33.407  -9.297 -23.331  0.00  0.00    +0.057 C 
BRANCH   5   8
ATOM      8  N   UNL     1      35.024 -10.161 -24.914  0.00  0.00    -0.355 N 
ATOM      9  H   UNL     1      34.841  -9.697 -25.763  0.00  0.00    +0.142 HD
ATOM     10  H   UNL     1      35.935 -10.471 -24.709  0.00  0.00    +0.142 HD
ENDBRANCH   5   8
BRANCH   3  11
ATOM     11  O   UNL     1      34.070 -12.740 -24.387  0.00  0.00    -0.470 OA
ATOM     12  C   UNL     1      33.483 -13.122 -25.628  0.00  0.00    +0.253 C 
ENDBRANCH   3  11
BRANCH   4  13
ATOM     13  O   UNL     1      30.896 -10.984 -21.273  0.00  0.00    -0.469 OA
ATOM     14  C   UNL     1      31.242 -10.968 -19.890  0.00  0.00    +0.253 C 
ENDBRANCH   4  13
BRANCH   6  15
ATOM     15  O   UNL     1      31.823  -8.429 -21.779  0.00  0.00    -0.468 OA
ATOM     16  C   UNL     1      32.684  -7.669 -20.933  0.00  0.00    +0.253 C 
ENDBRANCH   6  15
ENDBRANCH   1   2
BRANCH   1  17
ATOM     17  C   UNL     1      32.690 -13.915 -21.379  0.00  0.00    +0.214 C 
BRANCH  17  18
ATOM     18  O   UNL     1      34.008 -14.319 -21.771  0.00  0.00    -0.445 OA
BRANCH  18  20
ATOM     19  O   UNL     1      34.995 -15.188 -19.882  0.00  0.00    -0.245 OA
ATOM     20  C   UNL     1      34.587 -15.320 -21.042  0.00  0.00    +0.344 C 
BRANCH  20  22
ATOM     21 CL   UNL     1      33.976 -20.432 -21.103  0.00  0.00    -0.079 Cl
ATOM     22  C   UNL     1      34.665 -16.559 -21.804  0.00  0.00    +0.110 C 
ATOM     23  C   UNL     1      35.071 -16.554 -23.139  0.00  0.00    +0.143 C 
ATOM     24  C   UNL     1      34.329 -17.762 -21.183  0.00  0.00    +0.024 C 
ATOM     25  C   UNL     1      35.141 -17.750 -23.851  0.00  0.00    +0.074 C 
ATOM     26  C   UNL     1      34.398 -18.958 -21.896  0.00  0.00    +0.092 C 
ATOM     27  C   UNL     1      34.805 -18.953 -23.230  0.00  0.00    +0.147 C 
BRANCH  23  28
ATOM     28  O   UNL     1      35.405 -15.389 -23.763  0.00  0.00    -0.505 OA
ATOM     29  H   UNL     1      35.514 -15.371 -24.694  0.00  0.00    +0.292 HD
ENDBRANCH  23  28
BRANCH  27  30
ATOM     30  O   UNL     1      34.881 -20.107 -23.950  0.00  0.00    -0.505 OA
ATOM     31  H   UNL     1      35.604 -20.250 -24.530  0.00  0.00    +0.292 HD
ENDBRANCH  27  30
ENDBRANCH  20  22
ENDBRANCH  18  20
ENDBRANCH  17  18
ENDBRANCH   1  17
TORSDOF 11
ENDMDL
MODEL 6
REMARK VINA RESULT:      -8.6      4.988      9.284
REMARK  Name = 11840979
REMARK  11 active torsions:
REMARK  status: ('A' for Active; 'I' for Inactive)
REMARK    1  A    between atoms: C_1  and  C_2
REMARK    2  A    between atoms: C_1  and  C_17
REMARK    3  A    between atoms: C_3  and  O_11
REMARK    4  A    between atoms: C_4  and  O_13
REMARK    5  A    between atoms: C_5  and  N_8
REMARK    6  A    between atoms: C_6  and  O_15
REMARK    7  A    between atoms: C_17  and  O_18
REMARK    8  A    between atoms: O_18  and  C_20
REMARK    9  A    between atoms: C_20  and  C_22
REMARK   10  A    between atoms: C_23  and  O_28
REMARK   11  A    between atoms: C_27  and  O_30
REMARK                            x       y       z     vdW  Elec       q    Type
REMARK                         _______ _______ _______ _____ _____    ______ ____
ROOT
ATOM      1  C   UNL     1      33.833 -13.548 -22.247  0.00  0.00    +0.080 C 
ENDROOT
BRANCH   1   2
ATOM      2  C   UNL     1      33.935 -14.535 -23.385  0.00  0.00    +0.054 C 
ATOM      3  C   UNL     1      33.470 -14.178 -24.643  0.00  0.00    +0.151 C 
ATOM      4  C   UNL     1      34.492 -15.785 -23.157  0.00  0.00    +0.171 C 
ATOM      5  C   UNL     1      33.564 -15.089 -25.694  0.00  0.00    +0.079 C 
ATOM      6  C   UNL     1      34.586 -16.696 -24.209  0.00  0.00    +0.173 C 
ATOM      7  C   UNL     1      34.123 -16.348 -25.477  0.00  0.00    +0.057 C 
BRANCH   5   8
ATOM      8  N   UNL     1      33.100 -14.752 -26.984  0.00  0.00    -0.355 N 
ATOM      9  H   UNL     1      32.173 -14.443 -27.108  0.00  0.00    +0.142 HD
ATOM     10  H   UNL     1      33.701 -14.827 -27.759  0.00  0.00    +0.142 HD
ENDBRANCH   5   8
BRANCH   3  11
ATOM     11  O   UNL     1      32.923 -12.945 -24.853  0.00  0.00    -0.470 OA
ATOM     12  C   UNL     1      33.820 -11.891 -25.194  0.00  0.00    +0.253 C 
ENDBRANCH   3  11
BRANCH   4  13
ATOM     13  O   UNL     1      34.948 -16.131 -21.920  0.00  0.00    -0.469 OA
ATOM     14  C   UNL     1      34.076 -16.909 -21.104  0.00  0.00    +0.253 C 
ENDBRANCH   4  13
BRANCH   6  15
ATOM     15  O   UNL     1      35.131 -17.930 -24.010  0.00  0.00    -0.468 OA
ATOM     16  C   UNL     1      34.523 -19.024 -24.694  0.00  0.00    +0.253 C 
ENDBRANCH   6  15
ENDBRANCH   1   2
BRANCH   1  17
ATOM     17  C   UNL     1      32.418 -13.449 -21.690  0.00  0.00    +0.214 C 
BRANCH  17  18
ATOM     18  O   UNL     1      31.883 -12.148 -21.956  0.00  0.00    -0.445 OA
BRANCH  18  20
ATOM     19  O   UNL     1      31.319 -11.779 -19.755  0.00  0.00    -0.245 OA
ATOM     20  C   UNL     1      31.632 -11.352 -20.873  0.00  0.00    +0.344 C 
BRANCH  20  22
ATOM     21 CL   UNL     1      31.054  -7.624 -24.376  0.00  0.00    -0.079 Cl
ATOM     22  C   UNL     1      31.778  -9.941 -21.203  0.00  0.00    +0.110 C 
ATOM     23  C   UNL     1      32.293  -9.038 -20.272  0.00  0.00    +0.143 C 
ATOM     24  C   UNL     1      31.399  -9.495 -22.469  0.00  0.00    +0.024 C 
ATOM     25  C   UNL     1      32.426  -7.691 -20.606  0.00  0.00    +0.074 C 
ATOM     26  C   UNL     1      31.532  -8.148 -22.803  0.00  0.00    +0.092 C 
ATOM     27  C   UNL     1      32.046  -7.246 -21.872  0.00  0.00    +0.147 C 
BRANCH  23  28
ATOM     28  O   UNL     1      32.670  -9.454 -19.029  0.00  0.00    -0.505 OA
ATOM     29  H   UNL     1      32.511  -8.908 -18.284  0.00  0.00    +0.292 HD
ENDBRANCH  23  28
BRANCH  27  30
ATOM     30  O   UNL     1      32.187  -5.924 -22.173  0.00  0.00    -0.505 OA
ATOM     31  H   UNL     1      31.464  -5.338 -22.060  0.00  0.00    +0.292 HD
ENDBRANCH  27  30
ENDBRANCH  20  22
ENDBRANCH  18  20
ENDBRANCH  17  18
ENDBRANCH   1  17
TORSDOF 11
ENDMDL
MODEL 7
REMARK VINA RESULT:      -8.5      4.774     10.526
REMARK  Name = 11840979
REMARK  11 active torsions:
REMARK  status: ('A' for Active; 'I' for Inactive)
REMARK    1  A    between atoms: C_1  and  C_2
REMARK    2  A    between atoms: C_1  and  C_17
REMARK    3  A    between atoms: C_3  and  O_11
REMARK    4  A    between atoms: C_4  and  O_13
REMARK    5  A    between atoms: C_5  and  N_8
REMARK    6  A    between atoms: C_6  and  O_15
REMARK    7  A    between atoms: C_17  and  O_18
REMARK    8  A    between atoms: O_18  and  C_20
REMARK    9  A    between atoms: C_20  and  C_22
REMARK   10  A    between atoms: C_23  and  O_28
REMARK   11  A    between atoms: C_27  and  O_30
REMARK                            x       y       z     vdW  Elec       q    Type
REMARK                         _______ _______ _______ _____ _____    ______ ____
ROOT
ATOM      1  C   UNL     1      33.607 -22.815 -15.766  0.00  0.00    +0.080 C 
ENDROOT
BRANCH   1   2
ATOM      2  C   UNL     1      34.693 -23.458 -14.938  0.00  0.00    +0.054 C 
ATOM      3  C   UNL     1      35.980 -23.548 -15.448  0.00  0.00    +0.151 C 
ATOM      4  C   UNL     1      34.388 -23.951 -13.677  0.00  0.00    +0.171 C 
ATOM      5  C   UNL     1      36.982 -24.143 -14.682  0.00  0.00    +0.079 C 
ATOM      6  C   UNL     1      35.390 -24.545 -12.911  0.00  0.00    +0.173 C 
ATOM      7  C   UNL     1      36.688 -24.641 -13.414  0.00  0.00    +0.057 C 
BRANCH   5   8
ATOM      8  N   UNL     1      38.301 -24.247 -15.177  0.00  0.00    -0.355 N 
ATOM      9  H   UNL     1      39.021 -23.706 -14.778  0.00  0.00    +0.142 HD
ATOM     10  H   UNL     1      38.501 -24.858 -15.922  0.00  0.00    +0.142 HD
ENDBRANCH   5   8
BRANCH   3  11
ATOM     11  O   UNL     1      36.267 -23.060 -16.691  0.00  0.00    -0.470 OA
ATOM     12  C   UNL     1      36.895 -21.783 -16.754  0.00  0.00    +0.253 C 
ENDBRANCH   3  11
BRANCH   4  13
ATOM     13  O   UNL     1      33.121 -23.860 -13.180  0.00  0.00    -0.469 OA
ATOM     14  C   UNL     1      32.190 -24.855 -13.595  0.00  0.00    +0.253 C 
ENDBRANCH   4  13
BRANCH   6  15
ATOM     15  O   UNL     1      35.115 -25.035 -11.669  0.00  0.00    -0.468 OA
ATOM     16  C   UNL     1      35.740 -24.385 -10.564  0.00  0.00    +0.253 C 
ENDBRANCH   6  15
ENDBRANCH   1   2
BRANCH   1  17
ATOM     17  C   UNL     1      33.553 -23.372 -17.184  0.00  0.00    +0.214 C 
BRANCH  17  18
ATOM     18  O   UNL     1      33.437 -22.297 -18.123  0.00  0.00    -0.445 OA
BRANCH  18  20
ATOM     19  O   UNL     1      34.343 -23.555 -19.825  0.00  0.00    -0.245 OA
ATOM     20  C   UNL     1      34.071 -22.457 -19.323  0.00  0.00    +0.344 C 
BRANCH  20  22
ATOM     21 CL   UNL     1      37.696 -19.295 -21.157  0.00  0.00    -0.079 Cl
ATOM     22  C   UNL     1      34.389 -21.174 -19.935  0.00  0.00    +0.110 C 
ATOM     23  C   UNL     1      33.383 -20.253 -20.229  0.00  0.00    +0.143 C 
ATOM     24  C   UNL     1      35.719 -20.869 -20.225  0.00  0.00    +0.024 C 
ATOM     25  C   UNL     1      33.707 -19.029 -20.813  0.00  0.00    +0.074 C 
ATOM     26  C   UNL     1      36.043 -19.645 -20.809  0.00  0.00    +0.092 C 
ATOM     27  C   UNL     1      35.037 -18.725 -21.103  0.00  0.00    +0.147 C 
BRANCH  23  28
ATOM     28  O   UNL     1      32.078 -20.532 -19.953  0.00  0.00    -0.505 OA
ATOM     29  H   UNL     1      31.480 -20.717 -20.651  0.00  0.00    +0.292 HD
ENDBRANCH  23  28
BRANCH  27  30
ATOM     30  O   UNL     1      35.325 -17.521 -21.674  0.00  0.00    -0.505 OA
ATOM     31  H   UNL     1      36.051 -17.444 -22.262  0.00  0.00    +0.292 HD
ENDBRANCH  27  30
ENDBRANCH  20  22
ENDBRANCH  18  20
ENDBRANCH  17  18
ENDBRANCH   1  17
TORSDOF 11
ENDMDL
MODEL 8
REMARK VINA RESULT:      -8.5      3.351      5.763
REMARK  Name = 11840979
REMARK  11 active torsions:
REMARK  status: ('A' for Active; 'I' for Inactive)
REMARK    1  A    between atoms: C_1  and  C_2
REMARK    2  A    between atoms: C_1  and  C_17
REMARK    3  A    between atoms: C_3  and  O_11
REMARK    4  A    between atoms: C_4  and  O_13
REMARK    5  A    between atoms: C_5  and  N_8
REMARK    6  A    between atoms: C_6  and  O_15
REMARK    7  A    between atoms: C_17  and  O_18
REMARK    8  A    between atoms: O_18  and  C_20
REMARK    9  A    between atoms: C_20  and  C_22
REMARK   10  A    between atoms: C_23  and  O_28
REMARK   11  A    between atoms: C_27  and  O_30
REMARK                            x       y       z     vdW  Elec       q    Type
REMARK                         _______ _______ _______ _____ _____    ______ ____
ROOT
ATOM      1  C   UNL     1      33.910 -12.534 -23.968  0.00  0.00    +0.080 C 
ENDROOT
BRANCH   1   2
ATOM      2  C   UNL     1      32.967 -11.531 -23.350  0.00  0.00    +0.054 C 
ATOM      3  C   UNL     1      32.046 -11.952 -22.402  0.00  0.00    +0.151 C 
ATOM      4  C   UNL     1      33.035 -10.201 -23.739  0.00  0.00    +0.171 C 
ATOM      5  C   UNL     1      31.174 -11.025 -21.831  0.00  0.00    +0.079 C 
ATOM      6  C   UNL     1      32.163  -9.273 -23.168  0.00  0.00    +0.173 C 
ATOM      7  C   UNL     1      31.233  -9.685 -22.214  0.00  0.00    +0.057 C 
BRANCH   5   8
ATOM      8  N   UNL     1      30.227 -11.426 -20.863  0.00  0.00    -0.355 N 
ATOM      9  H   UNL     1      30.009 -12.380 -20.754  0.00  0.00    +0.142 HD
ATOM     10  H   UNL     1      29.784 -10.753 -20.299  0.00  0.00    +0.142 HD
ENDBRANCH   5   8
BRANCH   3  11
ATOM     11  O   UNL     1      31.989 -13.264 -22.028  0.00  0.00    -0.470 OA
ATOM     12  C   UNL     1      32.537 -13.597 -20.756  0.00  0.00    +0.253 C 
ENDBRANCH   3  11
BRANCH   4  13
ATOM     13  O   UNL     1      33.942  -9.792 -24.672  0.00  0.00    -0.469 OA
ATOM     14  C   UNL     1      35.109  -9.130 -24.192  0.00  0.00    +0.253 C 
ENDBRANCH   4  13
BRANCH   6  15
ATOM     15  O   UNL     1      32.211  -7.961 -23.533  0.00  0.00    -0.468 OA
ATOM     16  C   UNL     1      31.050  -7.421 -24.161  0.00  0.00    +0.253 C 
ENDBRANCH   6  15
ENDBRANCH   1   2
BRANCH   1  17
ATOM     17  C   UNL     1      33.289 -13.259 -25.156  0.00  0.00    +0.214 C 
BRANCH  17  18
ATOM     18  O   UNL     1      32.922 -14.590 -24.774  0.00  0.00    -0.445 OA
BRANCH  18  20
ATOM     19  O   UNL     1      33.866 -15.803 -26.487  0.00  0.00    -0.245 OA
ATOM     20  C   UNL     1      33.682 -15.607 -25.280  0.00  0.00    +0.344 C 
BRANCH  20  22
ATOM     21 CL   UNL     1      34.949 -16.022 -20.307  0.00  0.00    -0.079 Cl
ATOM     22  C   UNL     1      34.246 -16.431 -24.219  0.00  0.00    +0.110 C 
ATOM     23  C   UNL     1      34.705 -17.722 -24.482  0.00  0.00    +0.143 C 
ATOM     24  C   UNL     1      34.325 -15.913 -22.926  0.00  0.00    +0.024 C 
ATOM     25  C   UNL     1      35.242 -18.495 -23.454  0.00  0.00    +0.074 C 
ATOM     26  C   UNL     1      34.863 -16.686 -21.898  0.00  0.00    +0.092 C 
ATOM     27  C   UNL     1      35.322 -17.977 -22.161  0.00  0.00    +0.147 C 
BRANCH  23  28
ATOM     28  O   UNL     1      34.636 -18.245 -25.739  0.00  0.00    -0.505 OA
ATOM     29  H   UNL     1      34.655 -19.174 -25.862  0.00  0.00    +0.292 HD
ENDBRANCH  23  28
BRANCH  27  30
ATOM     30  O   UNL     1      35.851 -18.754 -21.174  0.00  0.00    -0.505 OA
ATOM     31  H   UNL     1      36.501 -18.401 -20.599  0.00  0.00    +0.292 HD
ENDBRANCH  27  30
ENDBRANCH  20  22
ENDBRANCH  18  20
ENDBRANCH  17  18
ENDBRANCH   1  17
TORSDOF 11
ENDMDL
MODEL 9
REMARK VINA RESULT:      -8.5      3.365      5.945
REMARK  Name = 11840979
REMARK  11 active torsions:
REMARK  status: ('A' for Active; 'I' for Inactive)
REMARK    1  A    between atoms: C_1  and  C_2
REMARK    2  A    between atoms: C_1  and  C_17
REMARK    3  A    between atoms: C_3  and  O_11
REMARK    4  A    between atoms: C_4  and  O_13
REMARK    5  A    between atoms: C_5  and  N_8
REMARK    6  A    between atoms: C_6  and  O_15
REMARK    7  A    between atoms: C_17  and  O_18
REMARK    8  A    between atoms: O_18  and  C_20
REMARK    9  A    between atoms: C_20  and  C_22
REMARK   10  A    between atoms: C_23  and  O_28
REMARK   11  A    between atoms: C_27  and  O_30
REMARK                            x       y       z     vdW  Elec       q    Type
REMARK                         _______ _______ _______ _____ _____    ______ ____
ROOT
ATOM      1  C   UNL     1      33.825 -12.659 -23.983  0.00  0.00    +0.080 C 
ENDROOT
BRANCH   1   2
ATOM      2  C   UNL     1      32.987 -11.581 -23.340  0.00  0.00    +0.054 C 
ATOM      3  C   UNL     1      33.108 -10.269 -23.776  0.00  0.00    +0.151 C 
ATOM      4  C   UNL     1      32.106 -11.918 -22.322  0.00  0.00    +0.171 C 
ATOM      5  C   UNL     1      32.332  -9.274 -23.182  0.00  0.00    +0.079 C 
ATOM      6  C   UNL     1      31.331 -10.922 -21.728  0.00  0.00    +0.173 C 
ATOM      7  C   UNL     1      31.444  -9.600 -22.158  0.00  0.00    +0.057 C 
BRANCH   5   8
ATOM      8  N   UNL     1      32.435  -7.931 -23.606  0.00  0.00    -0.355 N 
ATOM      9  H   UNL     1      31.623  -7.381 -23.700  0.00  0.00    +0.142 HD
ATOM     10  H   UNL     1      33.317  -7.545 -23.810  0.00  0.00    +0.142 HD
ENDBRANCH   5   8
BRANCH   3  11
ATOM     11  O   UNL     1      33.978  -9.951 -24.779  0.00  0.00    -0.470 OA
ATOM     12  C   UNL     1      35.246  -9.429 -24.391  0.00  0.00    +0.253 C 
ENDBRANCH   3  11
BRANCH   4  13
ATOM     13  O   UNL     1      31.991 -13.208 -21.897  0.00  0.00    -0.469 OA
ATOM     14  C   UNL     1      32.668 -13.556 -20.692  0.00  0.00    +0.253 C 
ENDBRANCH   4  13
BRANCH   6  15
ATOM     15  O   UNL     1      30.458 -11.228 -20.727  0.00  0.00    -0.468 OA
ATOM     16  C   UNL     1      30.757 -10.718 -19.429  0.00  0.00    +0.253 C 
ENDBRANCH   6  15
ENDBRANCH   1   2
BRANCH   1  17
ATOM     17  C   UNL     1      33.099 -13.353 -25.129  0.00  0.00    +0.214 C 
BRANCH  17  18
ATOM     18  O   UNL     1      32.840 -14.718 -24.783  0.00  0.00    -0.445 OA
BRANCH  18  20
ATOM     19  O   UNL     1      33.961 -15.777 -26.493  0.00  0.00    -0.245 OA
ATOM     20  C   UNL     1      33.697 -15.655 -25.290  0.00  0.00    +0.344 C 
BRANCH  20  22
ATOM     21 CL   UNL     1      34.954 -16.126 -20.320  0.00  0.00    -0.079 Cl
ATOM     22  C   UNL     1      34.258 -16.491 -24.237  0.00  0.00    +0.110 C 
ATOM     23  C   UNL     1      34.716 -17.779 -24.514  0.00  0.00    +0.143 C 
ATOM     24  C   UNL     1      34.336 -15.988 -22.939  0.00  0.00    +0.024 C 
ATOM     25  C   UNL     1      35.251 -18.564 -23.493  0.00  0.00    +0.074 C 
ATOM     26  C   UNL     1      34.870 -16.773 -21.918  0.00  0.00    +0.092 C 
ATOM     27  C   UNL     1      35.329 -18.061 -22.195  0.00  0.00    +0.147 C 
BRANCH  23  28
ATOM     28  O   UNL     1      34.650 -18.288 -25.777  0.00  0.00    -0.505 OA
ATOM     29  H   UNL     1      35.129 -17.882 -26.472  0.00  0.00    +0.292 HD
ENDBRANCH  23  28
BRANCH  27  30
ATOM     30  O   UNL     1      35.856 -18.849 -21.216  0.00  0.00    -0.505 OA
ATOM     31  H   UNL     1      35.620 -19.755 -21.166  0.00  0.00    +0.292 HD
ENDBRANCH  27  30
ENDBRANCH  20  22
ENDBRANCH  18  20
ENDBRANCH  17  18
ENDBRANCH   1  17
TORSDOF 11
ENDMDL
