MODEL 1
REMARK VINA RESULT:      -8.0      0.000      0.000
REMARK  Name = 9549264
REMARK  13 active torsions:
REMARK  status: ('A' for Active; 'I' for Inactive)
REMARK    1  A    between atoms: C_2  and  O_7
REMARK    2  A    between atoms: C_3  and  O_9
REMARK    3  A    between atoms: C_4  and  O_11
REMARK    4  A    between atoms: C_5  and  C_22
REMARK    5  A    between atoms: C_6  and  O_13
REMARK    6  A    between atoms: O_13  and  C_14
REMARK    7  A    between atoms: C_14  and  C_15
REMARK    8  A    between atoms: C_15  and  C_16
REMARK    9  A    between atoms: C_16  and  C_17
REMARK   10  A    between atoms: C_17  and  C_18
REMARK   11  A    between atoms: C_18  and  C_19
REMARK   12  A    between atoms: C_19  and  C_20
REMARK   13  A    between atoms: C_22  and  O_23
REMARK                            x       y       z     vdW  Elec       q    Type
REMARK                         _______ _______ _______ _____ _____    ______ ____
ROOT
ATOM      1  O   UNL     1      38.422 -24.593 -15.237  0.00  0.00    -0.326 OA
ATOM      2  C   UNL     1      36.997 -24.880 -12.765  0.00  0.00    +0.172 C 
ATOM      3  C   UNL     1      38.149 -25.808 -13.152  0.00  0.00    +0.169 C 
ATOM      4  C   UNL     1      36.343 -24.271 -14.005  0.00  0.00    +0.196 C 
ATOM      5  C   UNL     1      39.120 -25.069 -14.080  0.00  0.00    +0.176 C 
ATOM      6  C   UNL     1      37.397 -23.650 -14.924  0.00  0.00    +0.266 C 
ENDROOT
BRANCH   2   7
ATOM      7  O   UNL     1      36.015 -25.600 -12.024  0.00  0.00    -0.379 OA
ATOM      8  H   UNL     1      36.262 -26.537 -11.987  0.00  0.00    +0.211 HD
ENDBRANCH   2   7
BRANCH   3   9
ATOM      9  O   UNL     1      37.634 -26.953 -13.834  0.00  0.00    -0.379 OA
ATOM     10  H   UNL     1      36.750 -27.163 -13.493  0.00  0.00    +0.211 HD
ENDBRANCH   3   9
BRANCH   4  11
ATOM     11  O   UNL     1      35.434 -23.246 -13.602  0.00  0.00    -0.378 OA
ATOM     12  H   UNL     1      35.934 -22.484 -13.267  0.00  0.00    +0.211 HD
ENDBRANCH   4  11
BRANCH   6  13
ATOM     13  O   UNL     1      36.744 -23.233 -16.122  0.00  0.00    -0.329 OA
BRANCH  13  14
ATOM     14  C   UNL     1      37.212 -21.964 -16.558  0.00  0.00    +0.145 C 
BRANCH  14  15
ATOM     15  C   UNL     1      36.687 -21.701 -17.962  0.00  0.00    +0.032 C 
BRANCH  15  16
ATOM     16  C   UNL     1      35.216 -22.094 -18.097  0.00  0.00    +0.003 C 
BRANCH  16  17
ATOM     17  C   UNL     1      34.713 -21.872 -19.525  0.00  0.00    +0.000 C 
BRANCH  17  18
ATOM     18  C   UNL     1      33.295 -21.295 -19.588  0.00  0.00    +0.000 C 
BRANCH  18  19
ATOM     19  C   UNL     1      33.153 -20.137 -20.579  0.00  0.00    +0.000 C 
BRANCH  19  20
ATOM     20  C   UNL     1      34.517 -19.556 -20.950  0.00  0.00    +0.000 C 
ATOM     21  C   UNL     1      34.548 -19.087 -22.396  0.00  0.00    +0.000 C 
ENDBRANCH  19  20
ENDBRANCH  18  19
ENDBRANCH  17  18
ENDBRANCH  16  17
ENDBRANCH  15  16
ENDBRANCH  14  15
ENDBRANCH  13  14
ENDBRANCH   6  13
BRANCH   5  22
ATOM     22  C   UNL     1      40.252 -25.966 -14.568  0.00  0.00    +0.169 C 
BRANCH  22  23
ATOM     23  O   UNL     1      40.376 -25.814 -15.971  0.00  0.00    -0.379 OA
ATOM     24  H   UNL     1      39.942 -26.557 -16.417  0.00  0.00    +0.211 HD
ENDBRANCH  22  23
ENDBRANCH   5  22
TORSDOF 13
ENDMDL
MODEL 2
REMARK VINA RESULT:      -7.9      1.535      1.918
REMARK  Name = 9549264
REMARK  13 active torsions:
REMARK  status: ('A' for Active; 'I' for Inactive)
REMARK    1  A    between atoms: C_2  and  O_7
REMARK    2  A    between atoms: C_3  and  O_9
REMARK    3  A    between atoms: C_4  and  O_11
REMARK    4  A    between atoms: C_5  and  C_22
REMARK    5  A    between atoms: C_6  and  O_13
REMARK    6  A    between atoms: O_13  and  C_14
REMARK    7  A    between atoms: C_14  and  C_15
REMARK    8  A    between atoms: C_15  and  C_16
REMARK    9  A    between atoms: C_16  and  C_17
REMARK   10  A    between atoms: C_17  and  C_18
REMARK   11  A    between atoms: C_18  and  C_19
REMARK   12  A    between atoms: C_19  and  C_20
REMARK   13  A    between atoms: C_22  and  O_23
REMARK                            x       y       z     vdW  Elec       q    Type
REMARK                         _______ _______ _______ _____ _____    ______ ____
ROOT
ATOM      1  O   UNL     1      36.594 -24.852 -14.686  0.00  0.00    -0.326 OA
ATOM      2  C   UNL     1      35.939 -24.454 -11.923  0.00  0.00    +0.172 C 
ATOM      3  C   UNL     1      37.174 -25.243 -12.360  0.00  0.00    +0.169 C 
ATOM      4  C   UNL     1      34.866 -24.467 -13.011  0.00  0.00    +0.196 C 
ATOM      5  C   UNL     1      37.653 -24.740 -13.726  0.00  0.00    +0.176 C 
ATOM      6  C   UNL     1      35.457 -24.054 -14.361  0.00  0.00    +0.266 C 
ENDROOT
BRANCH   2   7
ATOM      7  O   UNL     1      35.400 -25.010 -10.727  0.00  0.00    -0.379 OA
ATOM      8  H   UNL     1      35.160 -25.937 -10.880  0.00  0.00    +0.211 HD
ENDBRANCH   2   7
BRANCH   3   9
ATOM      9  O   UNL     1      36.844 -26.630 -12.464  0.00  0.00    -0.379 OA
ATOM     10  H   UNL     1      37.035 -27.072 -11.622  0.00  0.00    +0.211 HD
ENDBRANCH   3   9
BRANCH   4  11
ATOM     11  O   UNL     1      33.836 -23.541 -12.666  0.00  0.00    -0.378 OA
ATOM     12  H   UNL     1      34.225 -22.783 -12.202  0.00  0.00    +0.211 HD
ENDBRANCH   4  11
BRANCH   6  13
ATOM     13  O   UNL     1      34.447 -24.227 -15.353  0.00  0.00    -0.329 OA
BRANCH  13  14
ATOM     14  C   UNL     1      34.483 -23.189 -16.322  0.00  0.00    +0.145 C 
BRANCH  14  15
ATOM     15  C   UNL     1      33.341 -23.394 -17.307  0.00  0.00    +0.032 C 
BRANCH  15  16
ATOM     16  C   UNL     1      33.420 -22.411 -18.474  0.00  0.00    +0.003 C 
BRANCH  16  17
ATOM     17  C   UNL     1      34.872 -22.059 -18.804  0.00  0.00    +0.000 C 
BRANCH  17  18
ATOM     18  C   UNL     1      35.009 -21.039 -19.939  0.00  0.00    +0.000 C 
BRANCH  18  19
ATOM     19  C   UNL     1      33.680 -20.394 -20.340  0.00  0.00    +0.000 C 
BRANCH  19  20
ATOM     20  C   UNL     1      33.907 -19.119 -21.152  0.00  0.00    +0.000 C 
ATOM     21  C   UNL     1      34.824 -19.370 -22.339  0.00  0.00    +0.000 C 
ENDBRANCH  19  20
ENDBRANCH  18  19
ENDBRANCH  17  18
ENDBRANCH  16  17
ENDBRANCH  15  16
ENDBRANCH  14  15
ENDBRANCH  13  14
ENDBRANCH   6  13
BRANCH   5  22
ATOM     22  C   UNL     1      38.835 -25.542 -14.257  0.00  0.00    +0.169 C 
BRANCH  22  23
ATOM     23  O   UNL     1      38.365 -26.804 -14.697  0.00  0.00    -0.379 OA
ATOM     24  H   UNL     1      37.765 -26.682 -15.448  0.00  0.00    +0.211 HD
ENDBRANCH  22  23
ENDBRANCH   5  22
TORSDOF 13
ENDMDL
MODEL 3
REMARK VINA RESULT:      -7.9      1.764      2.883
REMARK  Name = 9549264
REMARK  13 active torsions:
REMARK  status: ('A' for Active; 'I' for Inactive)
REMARK    1  A    between atoms: C_2  and  O_7
REMARK    2  A    between atoms: C_3  and  O_9
REMARK    3  A    between atoms: C_4  and  O_11
REMARK    4  A    between atoms: C_5  and  C_22
REMARK    5  A    between atoms: C_6  and  O_13
REMARK    6  A    between atoms: O_13  and  C_14
REMARK    7  A    between atoms: C_14  and  C_15
REMARK    8  A    between atoms: C_15  and  C_16
REMARK    9  A    between atoms: C_16  and  C_17
REMARK   10  A    between atoms: C_17  and  C_18
REMARK   11  A    between atoms: C_18  and  C_19
REMARK   12  A    between atoms: C_19  and  C_20
REMARK   13  A    between atoms: C_22  and  O_23
REMARK                            x       y       z     vdW  Elec       q    Type
REMARK                         _______ _______ _______ _____ _____    ______ ____
ROOT
ATOM      1  O   UNL     1      36.258 -23.774 -14.069  0.00  0.00    -0.326 OA
ATOM      2  C   UNL     1      37.650 -26.281 -14.052  0.00  0.00    +0.172 C 
ATOM      3  C   UNL     1      38.126 -25.082 -13.231  0.00  0.00    +0.169 C 
ATOM      4  C   UNL     1      36.819 -25.831 -15.253  0.00  0.00    +0.196 C 
ATOM      5  C   UNL     1      36.930 -24.192 -12.874  0.00  0.00    +0.176 C 
ATOM      6  C   UNL     1      35.717 -24.863 -14.816  0.00  0.00    +0.266 C 
ENDROOT
BRANCH   2   7
ATOM      7  O   UNL     1      38.769 -27.035 -14.513  0.00  0.00    -0.379 OA
ATOM      8  H   UNL     1      39.436 -27.086 -13.811  0.00  0.00    +0.211 HD
ENDBRANCH   2   7
BRANCH   3   9
ATOM      9  O   UNL     1      39.061 -24.319 -13.996  0.00  0.00    -0.379 OA
ATOM     10  H   UNL     1      38.584 -23.674 -14.542  0.00  0.00    +0.211 HD
ENDBRANCH   3   9
BRANCH   4  11
ATOM     11  O   UNL     1      36.208 -26.970 -15.856  0.00  0.00    -0.378 OA
ATOM     12  H   UNL     1      36.343 -26.939 -16.817  0.00  0.00    +0.211 HD
ENDBRANCH   4  11
BRANCH   6  13
ATOM     13  O   UNL     1      35.076 -24.369 -15.991  0.00  0.00    -0.329 OA
BRANCH  13  14
ATOM     14  C   UNL     1      33.858 -23.707 -15.683  0.00  0.00    +0.145 C 
BRANCH  14  15
ATOM     15  C   UNL     1      33.204 -23.250 -16.980  0.00  0.00    +0.032 C 
BRANCH  15  16
ATOM     16  C   UNL     1      34.231 -22.686 -17.960  0.00  0.00    +0.003 C 
BRANCH  16  17
ATOM     17  C   UNL     1      33.554 -22.162 -19.230  0.00  0.00    +0.000 C 
BRANCH  17  18
ATOM     18  C   UNL     1      34.284 -20.973 -19.862  0.00  0.00    +0.000 C 
BRANCH  18  19
ATOM     19  C   UNL     1      33.352 -20.010 -20.601  0.00  0.00    +0.000 C 
BRANCH  19  20
ATOM     20  C   UNL     1      34.141 -19.057 -21.499  0.00  0.00    +0.000 C 
ATOM     21  C   UNL     1      35.628 -19.092 -21.180  0.00  0.00    +0.000 C 
ENDBRANCH  19  20
ENDBRANCH  18  19
ENDBRANCH  17  18
ENDBRANCH  16  17
ENDBRANCH  15  16
ENDBRANCH  14  15
ENDBRANCH  13  14
ENDBRANCH   6  13
BRANCH   5  22
ATOM     22  C   UNL     1      37.348 -22.933 -12.123  0.00  0.00    +0.169 C 
BRANCH  22  23
ATOM     23  O   UNL     1      38.649 -23.131 -11.596  0.00  0.00    -0.379 OA
ATOM     24  H   UNL     1      39.289 -22.620 -12.116  0.00  0.00    +0.211 HD
ENDBRANCH  22  23
ENDBRANCH   5  22
TORSDOF 13
ENDMDL
MODEL 4
REMARK VINA RESULT:      -7.6      2.110      3.436
REMARK  Name = 9549264
REMARK  13 active torsions:
REMARK  status: ('A' for Active; 'I' for Inactive)
REMARK    1  A    between atoms: C_2  and  O_7
REMARK    2  A    between atoms: C_3  and  O_9
REMARK    3  A    between atoms: C_4  and  O_11
REMARK    4  A    between atoms: C_5  and  C_22
REMARK    5  A    between atoms: C_6  and  O_13
REMARK    6  A    between atoms: O_13  and  C_14
REMARK    7  A    between atoms: C_14  and  C_15
REMARK    8  A    between atoms: C_15  and  C_16
REMARK    9  A    between atoms: C_16  and  C_17
REMARK   10  A    between atoms: C_17  and  C_18
REMARK   11  A    between atoms: C_18  and  C_19
REMARK   12  A    between atoms: C_19  and  C_20
REMARK   13  A    between atoms: C_22  and  O_23
REMARK                            x       y       z     vdW  Elec       q    Type
REMARK                         _______ _______ _______ _____ _____    ______ ____
ROOT
ATOM      1  O   UNL     1      35.623 -23.602 -14.352  0.00  0.00    -0.326 OA
ATOM      2  C   UNL     1      36.463 -24.550 -11.779  0.00  0.00    +0.172 C 
ATOM      3  C   UNL     1      34.995 -24.547 -12.204  0.00  0.00    +0.169 C 
ATOM      4  C   UNL     1      37.260 -23.496 -12.548  0.00  0.00    +0.196 C 
ATOM      5  C   UNL     1      34.896 -24.668 -13.729  0.00  0.00    +0.176 C 
ATOM      6  C   UNL     1      37.018 -23.626 -14.054  0.00  0.00    +0.266 C 
ENDROOT
BRANCH   2   7
ATOM      7  O   UNL     1      36.571 -24.290 -10.382  0.00  0.00    -0.379 OA
ATOM      8  H   UNL     1      35.807 -24.673  -9.923  0.00  0.00    +0.211 HD
ENDBRANCH   2   7
BRANCH   3   9
ATOM      9  O   UNL     1      34.380 -23.323 -11.795  0.00  0.00    -0.379 OA
ATOM     10  H   UNL     1      33.494 -23.507 -11.445  0.00  0.00    +0.211 HD
ENDBRANCH   3   9
BRANCH   4  11
ATOM     11  O   UNL     1      38.652 -23.683 -12.296  0.00  0.00    -0.378 OA
ATOM     12  H   UNL     1      39.114 -23.849 -13.134  0.00  0.00    +0.211 HD
ENDBRANCH   4  11
BRANCH   6  13
ATOM     13  O   UNL     1      37.668 -22.532 -14.698  0.00  0.00    -0.329 OA
BRANCH  13  14
ATOM     14  C   UNL     1      37.769 -22.736 -16.101  0.00  0.00    +0.145 C 
BRANCH  14  15
ATOM     15  C   UNL     1      37.199 -21.521 -16.818  0.00  0.00    +0.032 C 
BRANCH  15  16
ATOM     16  C   UNL     1      36.187 -21.923 -17.890  0.00  0.00    +0.003 C 
BRANCH  16  17
ATOM     17  C   UNL     1      36.553 -21.321 -19.249  0.00  0.00    +0.000 C 
BRANCH  17  18
ATOM     18  C   UNL     1      35.332 -20.951 -20.099  0.00  0.00    +0.000 C 
BRANCH  18  19
ATOM     19  C   UNL     1      34.022 -21.542 -19.572  0.00  0.00    +0.000 C 
BRANCH  19  20
ATOM     20  C   UNL     1      32.840 -20.620 -19.873  0.00  0.00    +0.000 C 
ATOM     21  C   UNL     1      33.187 -19.600 -20.946  0.00  0.00    +0.000 C 
ENDBRANCH  19  20
ENDBRANCH  18  19
ENDBRANCH  17  18
ENDBRANCH  16  17
ENDBRANCH  15  16
ENDBRANCH  14  15
ENDBRANCH  13  14
ENDBRANCH   6  13
BRANCH   5  22
ATOM     22  C   UNL     1      33.458 -24.590 -14.225  0.00  0.00    +0.169 C 
BRANCH  22  23
ATOM     23  O   UNL     1      32.601 -25.080 -13.209  0.00  0.00    -0.379 OA
ATOM     24  H   UNL     1      32.364 -26.001 -13.402  0.00  0.00    +0.211 HD
ENDBRANCH  22  23
ENDBRANCH   5  22
TORSDOF 13
ENDMDL
MODEL 5
REMARK VINA RESULT:      -7.5      3.581      5.265
REMARK  Name = 9549264
REMARK  13 active torsions:
REMARK  status: ('A' for Active; 'I' for Inactive)
REMARK    1  A    between atoms: C_2  and  O_7
REMARK    2  A    between atoms: C_3  and  O_9
REMARK    3  A    between atoms: C_4  and  O_11
REMARK    4  A    between atoms: C_5  and  C_22
REMARK    5  A    between atoms: C_6  and  O_13
REMARK    6  A    between atoms: O_13  and  C_14
REMARK    7  A    between atoms: C_14  and  C_15
REMARK    8  A    between atoms: C_15  and  C_16
REMARK    9  A    between atoms: C_16  and  C_17
REMARK   10  A    between atoms: C_17  and  C_18
REMARK   11  A    between atoms: C_18  and  C_19
REMARK   12  A    between atoms: C_19  and  C_20
REMARK   13  A    between atoms: C_22  and  O_23
REMARK                            x       y       z     vdW  Elec       q    Type
REMARK                         _______ _______ _______ _____ _____    ______ ____
ROOT
ATOM      1  O   UNL     1      35.938 -24.214 -13.630  0.00  0.00    -0.326 OA
ATOM      2  C   UNL     1      37.793 -26.380 -13.933  0.00  0.00    +0.172 C 
ATOM      3  C   UNL     1      37.934 -25.339 -12.822  0.00  0.00    +0.169 C 
ATOM      4  C   UNL     1      37.016 -25.814 -15.121  0.00  0.00    +0.196 C 
ATOM      5  C   UNL     1      36.555 -24.775 -12.464  0.00  0.00    +0.176 C 
ATOM      6  C   UNL     1      35.704 -25.177 -14.657  0.00  0.00    +0.266 C 
ENDROOT
BRANCH   2   7
ATOM      7  O   UNL     1      39.081 -26.803 -14.375  0.00  0.00    -0.379 OA
ATOM      8  H   UNL     1      38.989 -27.322 -15.189  0.00  0.00    +0.211 HD
ENDBRANCH   2   7
BRANCH   3   9
ATOM      9  O   UNL     1      38.771 -24.271 -13.269  0.00  0.00    -0.379 OA
ATOM     10  H   UNL     1      38.226 -23.494 -13.472  0.00  0.00    +0.211 HD
ENDBRANCH   3   9
BRANCH   4  11
ATOM     11  O   UNL     1      36.709 -26.871 -16.030  0.00  0.00    -0.378 OA
ATOM     12  H   UNL     1      36.442 -26.495 -16.884  0.00  0.00    +0.211 HD
ENDBRANCH   4  11
BRANCH   6  13
ATOM     13  O   UNL     1      35.102 -24.543 -15.784  0.00  0.00    -0.329 OA
BRANCH  13  14
ATOM     14  C   UNL     1      34.580 -23.265 -15.447  0.00  0.00    +0.145 C 
BRANCH  14  15
ATOM     15  C   UNL     1      33.059 -23.331 -15.475  0.00  0.00    +0.032 C 
BRANCH  15  16
ATOM     16  C   UNL     1      32.475 -23.466 -14.070  0.00  0.00    +0.003 C 
BRANCH  16  17
ATOM     17  C   UNL     1      31.828 -24.838 -13.869  0.00  0.00    +0.000 C 
BRANCH  17  18
ATOM     18  C   UNL     1      30.307 -24.826 -14.054  0.00  0.00    +0.000 C 
BRANCH  18  19
ATOM     19  C   UNL     1      29.865 -25.149 -15.483  0.00  0.00    +0.000 C 
BRANCH  19  20
ATOM     20  C   UNL     1      28.794 -24.170 -15.966  0.00  0.00    +0.000 C 
ATOM     21  C   UNL     1      29.085 -22.752 -15.501  0.00  0.00    +0.000 C 
ENDBRANCH  19  20
ENDBRANCH  18  19
ENDBRANCH  17  18
ENDBRANCH  16  17
ENDBRANCH  15  16
ENDBRANCH  14  15
ENDBRANCH  13  14
ENDBRANCH   6  13
BRANCH   5  22
ATOM     22  C   UNL     1      36.634 -23.671 -11.416  0.00  0.00    +0.169 C 
BRANCH  22  23
ATOM     23  O   UNL     1      36.240 -24.205 -10.165  0.00  0.00    -0.379 OA
ATOM     24  H   UNL     1      36.762 -23.794  -9.458  0.00  0.00    +0.211 HD
ENDBRANCH  22  23
ENDBRANCH   5  22
TORSDOF 13
ENDMDL
MODEL 6
REMARK VINA RESULT:      -7.3      2.389      4.085
REMARK  Name = 9549264
REMARK  13 active torsions:
REMARK  status: ('A' for Active; 'I' for Inactive)
REMARK    1  A    between atoms: C_2  and  O_7
REMARK    2  A    between atoms: C_3  and  O_9
REMARK    3  A    between atoms: C_4  and  O_11
REMARK    4  A    between atoms: C_5  and  C_22
REMARK    5  A    between atoms: C_6  and  O_13
REMARK    6  A    between atoms: O_13  and  C_14
REMARK    7  A    between atoms: C_14  and  C_15
REMARK    8  A    between atoms: C_15  and  C_16
REMARK    9  A    between atoms: C_16  and  C_17
REMARK   10  A    between atoms: C_17  and  C_18
REMARK   11  A    between atoms: C_18  and  C_19
REMARK   12  A    between atoms: C_19  and  C_20
REMARK   13  A    between atoms: C_22  and  O_23
REMARK                            x       y       z     vdW  Elec       q    Type
REMARK                         _______ _______ _______ _____ _____    ______ ____
ROOT
ATOM      1  O   UNL     1      35.368 -23.192 -16.771  0.00  0.00    -0.326 OA
ATOM      2  C   UNL     1      32.989 -23.274 -15.172  0.00  0.00    +0.172 C 
ATOM      3  C   UNL     1      34.352 -23.696 -14.623  0.00  0.00    +0.169 C 
ATOM      4  C   UNL     1      32.942 -23.416 -16.693  0.00  0.00    +0.196 C 
ATOM      5  C   UNL     1      35.464 -22.943 -15.362  0.00  0.00    +0.176 C 
ATOM      6  C   UNL     1      34.145 -22.726 -17.340  0.00  0.00    +0.266 C 
ENDROOT
BRANCH   2   7
ATOM      7  O   UNL     1      31.959 -24.073 -14.596  0.00  0.00    -0.379 OA
ATOM      8  H   UNL     1      31.110 -23.611 -14.674  0.00  0.00    +0.211 HD
ENDBRANCH   2   7
BRANCH   3   9
ATOM      9  O   UNL     1      34.533 -25.100 -14.816  0.00  0.00    -0.379 OA
ATOM     10  H   UNL     1      35.041 -25.466 -14.075  0.00  0.00    +0.211 HD
ENDBRANCH   3   9
BRANCH   4  11
ATOM     11  O   UNL     1      31.751 -22.804 -17.186  0.00  0.00    -0.378 OA
ATOM     12  H   UNL     1      31.206 -22.508 -16.439  0.00  0.00    +0.211 HD
ENDBRANCH   4  11
BRANCH   6  13
ATOM     13  O   UNL     1      34.121 -23.018 -18.736  0.00  0.00    -0.329 OA
BRANCH  13  14
ATOM     14  C   UNL     1      34.421 -21.869 -19.515  0.00  0.00    +0.145 C 
BRANCH  14  15
ATOM     15  C   UNL     1      33.157 -21.035 -19.671  0.00  0.00    +0.032 C 
BRANCH  15  16
ATOM     16  C   UNL     1      33.271 -20.050 -20.833  0.00  0.00    +0.003 C 
BRANCH  16  17
ATOM     17  C   UNL     1      34.723 -19.613 -21.047  0.00  0.00    +0.000 C 
BRANCH  17  18
ATOM     18  C   UNL     1      34.906 -18.682 -22.250  0.00  0.00    +0.000 C 
BRANCH  18  19
ATOM     19  C   UNL     1      34.952 -19.421 -23.590  0.00  0.00    +0.000 C 
BRANCH  19  20
ATOM     20  C   UNL     1      34.405 -18.550 -24.721  0.00  0.00    +0.000 C 
ATOM     21  C   UNL     1      34.813 -17.095 -24.551  0.00  0.00    +0.000 C 
ENDBRANCH  19  20
ENDBRANCH  18  19
ENDBRANCH  17  18
ENDBRANCH  16  17
ENDBRANCH  15  16
ENDBRANCH  14  15
ENDBRANCH  13  14
ENDBRANCH   6  13
BRANCH   5  22
ATOM     22  C   UNL     1      36.854 -23.379 -14.917  0.00  0.00    +0.169 C 
BRANCH  22  23
ATOM     23  O   UNL     1      37.230 -24.525 -15.661  0.00  0.00    -0.379 OA
ATOM     24  H   UNL     1      36.656 -25.269 -15.420  0.00  0.00    +0.211 HD
ENDBRANCH  22  23
ENDBRANCH   5  22
TORSDOF 13
ENDMDL
MODEL 7
REMARK VINA RESULT:      -7.3      6.937     11.343
REMARK  Name = 9549264
REMARK  13 active torsions:
REMARK  status: ('A' for Active; 'I' for Inactive)
REMARK    1  A    between atoms: C_2  and  O_7
REMARK    2  A    between atoms: C_3  and  O_9
REMARK    3  A    between atoms: C_4  and  O_11
REMARK    4  A    between atoms: C_5  and  C_22
REMARK    5  A    between atoms: C_6  and  O_13
REMARK    6  A    between atoms: O_13  and  C_14
REMARK    7  A    between atoms: C_14  and  C_15
REMARK    8  A    between atoms: C_15  and  C_16
REMARK    9  A    between atoms: C_16  and  C_17
REMARK   10  A    between atoms: C_17  and  C_18
REMARK   11  A    between atoms: C_18  and  C_19
REMARK   12  A    between atoms: C_19  and  C_20
REMARK   13  A    between atoms: C_22  and  O_23
REMARK                            x       y       z     vdW  Elec       q    Type
REMARK                         _______ _______ _______ _____ _____    ______ ____
ROOT
ATOM      1  O   UNL     1      34.718 -16.085 -22.506  0.00  0.00    -0.326 OA
ATOM      2  C   UNL     1      33.523 -14.416 -24.508  0.00  0.00    +0.172 C 
ATOM      3  C   UNL     1      33.360 -14.137 -23.014  0.00  0.00    +0.169 C 
ATOM      4  C   UNL     1      33.814 -15.894 -24.762  0.00  0.00    +0.196 C 
ATOM      5  C   UNL     1      34.571 -14.683 -22.249  0.00  0.00    +0.176 C 
ATOM      6  C   UNL     1      34.967 -16.379 -23.880  0.00  0.00    +0.266 C 
ENDROOT
BRANCH   2   7
ATOM      7  O   UNL     1      32.339 -14.044 -25.209  0.00  0.00    -0.379 OA
ATOM      8  H   UNL     1      32.578 -13.576 -26.023  0.00  0.00    +0.211 HD
ENDBRANCH   2   7
BRANCH   3   9
ATOM      9  O   UNL     1      32.178 -14.780 -22.533  0.00  0.00    -0.379 OA
ATOM     10  H   UNL     1      32.171 -15.705 -22.824  0.00  0.00    +0.211 HD
ENDBRANCH   3   9
BRANCH   4  11
ATOM     11  O   UNL     1      34.184 -16.073 -26.129  0.00  0.00    -0.378 OA
ATOM     12  H   UNL     1      33.752 -16.869 -26.480  0.00  0.00    +0.211 HD
ENDBRANCH   4  11
BRANCH   6  13
ATOM     13  O   UNL     1      35.090 -17.790 -24.056  0.00  0.00    -0.329 OA
BRANCH  13  14
ATOM     14  C   UNL     1      35.600 -18.419 -22.889  0.00  0.00    +0.145 C 
BRANCH  14  15
ATOM     15  C   UNL     1      34.627 -19.505 -22.450  0.00  0.00    +0.032 C 
BRANCH  15  16
ATOM     16  C   UNL     1      34.121 -19.266 -21.028  0.00  0.00    +0.003 C 
BRANCH  16  17
ATOM     17  C   UNL     1      33.265 -20.438 -20.542  0.00  0.00    +0.000 C 
BRANCH  17  18
ATOM     18  C   UNL     1      33.925 -21.251 -19.423  0.00  0.00    +0.000 C 
BRANCH  18  19
ATOM     19  C   UNL     1      35.226 -21.932 -19.853  0.00  0.00    +0.000 C 
BRANCH  19  20
ATOM     20  C   UNL     1      36.434 -21.307 -19.155  0.00  0.00    +0.000 C 
ATOM     21  C   UNL     1      36.575 -21.811 -17.727  0.00  0.00    +0.000 C 
ENDBRANCH  19  20
ENDBRANCH  18  19
ENDBRANCH  17  18
ENDBRANCH  16  17
ENDBRANCH  15  16
ENDBRANCH  14  15
ENDBRANCH  13  14
ENDBRANCH   6  13
BRANCH   5  22
ATOM     22  C   UNL     1      34.432 -14.508 -20.742  0.00  0.00    +0.169 C 
BRANCH  22  23
ATOM     23  O   UNL     1      34.953 -15.661 -20.103  0.00  0.00    -0.379 OA
ATOM     24  H   UNL     1      35.343 -16.250 -20.767  0.00  0.00    +0.211 HD
ENDBRANCH  22  23
ENDBRANCH   5  22
TORSDOF 13
ENDMDL
MODEL 8
REMARK VINA RESULT:      -7.2      9.684     13.676
REMARK  Name = 9549264
REMARK  13 active torsions:
REMARK  status: ('A' for Active; 'I' for Inactive)
REMARK    1  A    between atoms: C_2  and  O_7
REMARK    2  A    between atoms: C_3  and  O_9
REMARK    3  A    between atoms: C_4  and  O_11
REMARK    4  A    between atoms: C_5  and  C_22
REMARK    5  A    between atoms: C_6  and  O_13
REMARK    6  A    between atoms: O_13  and  C_14
REMARK    7  A    between atoms: C_14  and  C_15
REMARK    8  A    between atoms: C_15  and  C_16
REMARK    9  A    between atoms: C_16  and  C_17
REMARK   10  A    between atoms: C_17  and  C_18
REMARK   11  A    between atoms: C_18  and  C_19
REMARK   12  A    between atoms: C_19  and  C_20
REMARK   13  A    between atoms: C_22  and  O_23
REMARK                            x       y       z     vdW  Elec       q    Type
REMARK                         _______ _______ _______ _____ _____    ______ ____
ROOT
ATOM      1  O   UNL     1      33.899 -14.591 -23.043  0.00  0.00    -0.326 OA
ATOM      2  C   UNL     1      33.986 -16.997 -24.602  0.00  0.00    +0.172 C 
ATOM      3  C   UNL     1      34.652 -16.893 -23.229  0.00  0.00    +0.169 C 
ATOM      4  C   UNL     1      33.852 -15.621 -25.253  0.00  0.00    +0.196 C 
ATOM      5  C   UNL     1      33.914 -15.857 -22.373  0.00  0.00    +0.176 C 
ATOM      6  C   UNL     1      33.202 -14.625 -24.288  0.00  0.00    +0.266 C 
ENDROOT
BRANCH   2   7
ATOM      7  O   UNL     1      34.749 -17.846 -25.454  0.00  0.00    -0.379 OA
ATOM      8  H   UNL     1      35.550 -18.135 -24.990  0.00  0.00    +0.211 HD
ENDBRANCH   2   7
BRANCH   3   9
ATOM      9  O   UNL     1      36.011 -16.483 -23.387  0.00  0.00    -0.379 OA
ATOM     10  H   UNL     1      36.039 -15.584 -23.753  0.00  0.00    +0.211 HD
ENDBRANCH   3   9
BRANCH   4  11
ATOM     11  O   UNL     1      33.029 -15.728 -26.414  0.00  0.00    -0.378 OA
ATOM     12  H   UNL     1      32.392 -14.995 -26.427  0.00  0.00    +0.211 HD
ENDBRANCH   4  11
BRANCH   6  13
ATOM     13  O   UNL     1      33.240 -13.336 -24.897  0.00  0.00    -0.329 OA
BRANCH  13  14
ATOM     14  C   UNL     1      33.673 -12.338 -23.983  0.00  0.00    +0.145 C 
BRANCH  14  15
ATOM     15  C   UNL     1      34.075 -11.095 -24.764  0.00  0.00    +0.032 C 
BRANCH  15  16
ATOM     16  C   UNL     1      33.803  -9.818 -23.970  0.00  0.00    +0.003 C 
BRANCH  16  17
ATOM     17  C   UNL     1      34.957  -8.823 -24.112  0.00  0.00    +0.000 C 
BRANCH  17  18
ATOM     18  C   UNL     1      34.675  -7.467 -23.455  0.00  0.00    +0.000 C 
BRANCH  18  19
ATOM     19  C   UNL     1      33.413  -7.461 -22.590  0.00  0.00    +0.000 C 
BRANCH  19  20
ATOM     20  C   UNL     1      32.366  -6.496 -23.148  0.00  0.00    +0.000 C 
ATOM     21  C   UNL     1      31.078  -7.220 -23.511  0.00  0.00    +0.000 C 
ENDBRANCH  19  20
ENDBRANCH  18  19
ENDBRANCH  17  18
ENDBRANCH  16  17
ENDBRANCH  15  16
ENDBRANCH  14  15
ENDBRANCH  13  14
ENDBRANCH   6  13
BRANCH   5  22
ATOM     22  C   UNL     1      34.579 -15.647 -21.018  0.00  0.00    +0.169 C 
BRANCH  22  23
ATOM     23  O   UNL     1      35.206 -16.856 -20.628  0.00  0.00    -0.379 OA
ATOM     24  H   UNL     1      34.531 -17.535 -20.474  0.00  0.00    +0.211 HD
ENDBRANCH  22  23
ENDBRANCH   5  22
TORSDOF 13
ENDMDL
MODEL 9
REMARK VINA RESULT:      -7.2      9.748     13.159
REMARK  Name = 9549264
REMARK  13 active torsions:
REMARK  status: ('A' for Active; 'I' for Inactive)
REMARK    1  A    between atoms: C_2  and  O_7
REMARK    2  A    between atoms: C_3  and  O_9
REMARK    3  A    between atoms: C_4  and  O_11
REMARK    4  A    between atoms: C_5  and  C_22
REMARK    5  A    between atoms: C_6  and  O_13
REMARK    6  A    between atoms: O_13  and  C_14
REMARK    7  A    between atoms: C_14  and  C_15
REMARK    8  A    between atoms: C_15  and  C_16
REMARK    9  A    between atoms: C_16  and  C_17
REMARK   10  A    between atoms: C_17  and  C_18
REMARK   11  A    between atoms: C_18  and  C_19
REMARK   12  A    between atoms: C_19  and  C_20
REMARK   13  A    between atoms: C_22  and  O_23
REMARK                            x       y       z     vdW  Elec       q    Type
REMARK                         _______ _______ _______ _____ _____    ______ ____
ROOT
ATOM      1  O   UNL     1      33.932 -14.505 -23.121  0.00  0.00    -0.326 OA
ATOM      2  C   UNL     1      34.003 -16.848 -24.772  0.00  0.00    +0.172 C 
ATOM      3  C   UNL     1      34.608 -16.825 -23.368  0.00  0.00    +0.169 C 
ATOM      4  C   UNL     1      33.950 -15.444 -25.371  0.00  0.00    +0.196 C 
ATOM      5  C   UNL     1      33.870 -15.797 -22.503  0.00  0.00    +0.176 C 
ATOM      6  C   UNL     1      33.293 -14.463 -24.396  0.00  0.00    +0.266 C 
ENDROOT
BRANCH   2   7
ATOM      7  O   UNL     1      34.774 -17.692 -25.624  0.00  0.00    -0.379 OA
ATOM      8  H   UNL     1      34.680 -17.395 -26.542  0.00  0.00    +0.211 HD
ENDBRANCH   2   7
BRANCH   3   9
ATOM      9  O   UNL     1      35.988 -16.461 -23.447  0.00  0.00    -0.379 OA
ATOM     10  H   UNL     1      36.074 -15.498 -23.361  0.00  0.00    +0.211 HD
ENDBRANCH   3   9
BRANCH   4  11
ATOM     11  O   UNL     1      33.178 -15.473 -26.571  0.00  0.00    -0.378 OA
ATOM     12  H   UNL     1      33.593 -14.899 -27.236  0.00  0.00    +0.211 HD
ENDBRANCH   4  11
BRANCH   6  13
ATOM     13  O   UNL     1      33.406 -13.153 -24.949  0.00  0.00    -0.329 OA
BRANCH  13  14
ATOM     14  C   UNL     1      33.792 -12.203 -23.966  0.00  0.00    +0.145 C 
BRANCH  14  15
ATOM     15  C   UNL     1      33.964 -10.846 -24.634  0.00  0.00    +0.032 C 
BRANCH  15  16
ATOM     16  C   UNL     1      33.733  -9.699 -23.650  0.00  0.00    +0.003 C 
BRANCH  16  17
ATOM     17  C   UNL     1      32.243  -9.526 -23.345  0.00  0.00    +0.000 C 
BRANCH  17  18
ATOM     18  C   UNL     1      31.896  -9.737 -21.867  0.00  0.00    +0.000 C 
BRANCH  18  19
ATOM     19  C   UNL     1      31.143 -11.042 -21.600  0.00  0.00    +0.000 C 
BRANCH  19  20
ATOM     20  C   UNL     1      31.522 -11.631 -20.240  0.00  0.00    +0.000 C 
ATOM     21  C   UNL     1      31.513 -10.569 -19.151  0.00  0.00    +0.000 C 
ENDBRANCH  19  20
ENDBRANCH  18  19
ENDBRANCH  17  18
ENDBRANCH  16  17
ENDBRANCH  15  16
ENDBRANCH  14  15
ENDBRANCH  13  14
ENDBRANCH   6  13
BRANCH   5  22
ATOM     22  C   UNL     1      34.479 -15.665 -21.112  0.00  0.00    +0.169 C 
BRANCH  22  23
ATOM     23  O   UNL     1      35.019 -16.919 -20.734  0.00  0.00    -0.379 OA
ATOM     24  H   UNL     1      34.350 -17.427 -20.249  0.00  0.00    +0.211 HD
ENDBRANCH  22  23
ENDBRANCH   5  22
TORSDOF 13
ENDMDL
