MODEL 1
REMARK VINA RESULT:     -10.0      0.000      0.000
REMARK  Name = 467825
REMARK  8 active torsions:
REMARK  status: ('A' for Active; 'I' for Inactive)
REMARK    1  A    between atoms: C_1  and  C_4
REMARK    2  A    between atoms: C_1  and  O_10
REMARK    3  A    between atoms: C_1  and  C_12
REMARK    4  A    between atoms: C_1  and  C_27
REMARK    5  A    between atoms: C_12  and  C_16
REMARK    6  A    between atoms: C_17  and  C_19
REMARK    7  A    between atoms: C_24  and  C_26
REMARK    8  A    between atoms: C_27  and  N_28
REMARK                            x       y       z     vdW  Elec       q    Type
REMARK                         _______ _______ _______ _____ _____    ______ ____
ROOT
ATOM      1  C   UNL     1      33.462 -13.324 -23.571  0.00  0.00    +0.136 C 
ENDROOT
BRANCH   1   4
ATOM      2  F   UNL     1      35.081 -14.960 -21.931  0.00  0.00    -0.204 F 
ATOM      3  F   UNL     1      34.948 -18.550 -25.010  0.00  0.00    -0.204 F 
ATOM      4  C   UNL     1      33.871 -14.753 -23.962  0.00  0.00    +0.031 C 
ATOM      5  C   UNL     1      34.660 -15.469 -23.097  0.00  0.00    +0.141 C 
ATOM      6  C   UNL     1      33.425 -15.250 -25.162  0.00  0.00    +0.003 C 
ATOM      7  C   UNL     1      35.029 -16.766 -23.455  0.00  0.00    +0.059 C 
ATOM      8  C   UNL     1      33.793 -16.547 -25.520  0.00  0.00    +0.030 C 
ATOM      9  C   UNL     1      34.595 -17.305 -24.667  0.00  0.00    +0.142 C 
ENDBRANCH   1   4
BRANCH   1  10
ATOM     10  O   UNL     1      34.546 -12.674 -22.894  0.00  0.00    -0.380 OA
ATOM     11  H   UNL     1      35.186 -12.349 -23.547  0.00  0.00    +0.211 HD
ENDBRANCH   1  10
BRANCH   1  12
ATOM     12  C   UNL     1      32.215 -13.339 -22.599  0.00  0.00    +0.089 C 
ATOM     13  C   UNL     1      32.255 -14.461 -21.547  0.00  0.00    +0.011 C 
BRANCH  12  16
ATOM     14  S   UNL     1      31.698 -12.004 -20.242  0.00  0.00    -0.079 S 
ATOM     15  N   UNL     1      31.971 -10.877 -22.552  0.00  0.00    -0.403 NA
ATOM     16  C   UNL     1      31.971 -11.987 -21.908  0.00  0.00    +0.137 C 
ATOM     17  C   UNL     1      31.723  -9.882 -21.628  0.00  0.00    +0.120 C 
ATOM     18  C   UNL     1      31.548 -10.298 -20.326  0.00  0.00    +0.123 C 
BRANCH  17  19
ATOM     19  C   UNL     1      31.654  -8.501 -22.013  0.00  0.00    +0.026 C 
ATOM     20  C   UNL     1      31.222  -8.154 -23.295  0.00  0.00    +0.003 C 
ATOM     21  C   UNL     1      32.018  -7.503 -21.108  0.00  0.00    +0.003 C 
ATOM     22  C   UNL     1      31.156  -6.812 -23.669  0.00  0.00    +0.010 C 
ATOM     23  C   UNL     1      31.950  -6.161 -21.482  0.00  0.00    +0.010 C 
ATOM     24  C   UNL     1      31.519  -5.816 -22.763  0.00  0.00    +0.068 C 
BRANCH  24  26
ATOM     25  N   UNL     1      31.393  -3.324 -23.459  0.00  0.00    -0.191 NA
ATOM     26  C   UNL     1      31.450  -4.442 -23.147  0.00  0.00    +0.100 C 
ENDBRANCH  24  26
ENDBRANCH  17  19
ENDBRANCH  12  16
ENDBRANCH   1  12
BRANCH   1  27
ATOM     27  C   UNL     1      33.144 -12.476 -24.844  0.00  0.00    +0.149 C 
BRANCH  27  28
ATOM     28  N   UNL     1      34.132 -11.444 -25.171  0.00  0.00    -0.188 N 
ATOM     29  N   UNL     1      34.309 -10.413 -24.351  0.00  0.00    -0.154 NA
ATOM     30  N   UNL     1      35.675 -10.320 -26.184  0.00  0.00    -0.203 NA
ATOM     31  C   UNL     1      34.930 -11.399 -26.252  0.00  0.00    +0.186 C 
ATOM     32  C   UNL     1      35.261  -9.752 -25.012  0.00  0.00    +0.218 C 
ENDBRANCH  27  28
ENDBRANCH   1  27
TORSDOF 8
ENDMDL
MODEL 2
REMARK VINA RESULT:      -9.7     11.410     14.782
REMARK  Name = 467825
REMARK  8 active torsions:
REMARK  status: ('A' for Active; 'I' for Inactive)
REMARK    1  A    between atoms: C_1  and  C_4
REMARK    2  A    between atoms: C_1  and  O_10
REMARK    3  A    between atoms: C_1  and  C_12
REMARK    4  A    between atoms: C_1  and  C_27
REMARK    5  A    between atoms: C_12  and  C_16
REMARK    6  A    between atoms: C_17  and  C_19
REMARK    7  A    between atoms: C_24  and  C_26
REMARK    8  A    between atoms: C_27  and  N_28
REMARK                            x       y       z     vdW  Elec       q    Type
REMARK                         _______ _______ _______ _____ _____    ______ ____
ROOT
ATOM      1  C   UNL     1      34.200 -23.628 -14.061  0.00  0.00    +0.136 C 
ENDROOT
BRANCH   1   4
ATOM      2  F   UNL     1      32.850 -22.625 -16.333  0.00  0.00    -0.204 F 
ATOM      3  F   UNL     1      28.978 -25.191 -15.433  0.00  0.00    -0.204 F 
ATOM      4  C   UNL     1      32.771 -24.053 -14.438  0.00  0.00    +0.031 C 
ATOM      5  C   UNL     1      32.201 -23.509 -15.563  0.00  0.00    +0.141 C 
ATOM      6  C   UNL     1      32.130 -24.960 -13.632  0.00  0.00    +0.003 C 
ATOM      7  C   UNL     1      30.905 -23.897 -15.902  0.00  0.00    +0.059 C 
ATOM      8  C   UNL     1      30.834 -25.349 -13.971  0.00  0.00    +0.030 C 
ATOM      9  C   UNL     1      30.221 -24.818 -15.106  0.00  0.00    +0.142 C 
ENDBRANCH   1   4
BRANCH   1  10
ATOM     10  O   UNL     1      34.346 -22.211 -14.224  0.00  0.00    -0.380 OA
ATOM     11  H   UNL     1      33.545 -21.849 -14.633  0.00  0.00    +0.211 HD
ENDBRANCH   1  10
BRANCH   1  12
ATOM     12  C   UNL     1      35.265 -24.341 -14.987  0.00  0.00    +0.089 C 
ATOM     13  C   UNL     1      34.716 -25.563 -15.745  0.00  0.00    +0.011 C 
BRANCH  12  16
ATOM     14  S   UNL     1      37.557 -22.971 -15.674  0.00  0.00    -0.079 S 
ATOM     15  N   UNL     1      35.336 -22.894 -16.993  0.00  0.00    -0.403 NA
ATOM     16  C   UNL     1      35.946 -23.380 -15.974  0.00  0.00    +0.137 C 
ATOM     17  C   UNL     1      36.239 -22.081 -17.648  0.00  0.00    +0.120 C 
ATOM     18  C   UNL     1      37.494 -21.997 -17.083  0.00  0.00    +0.123 C 
BRANCH  17  19
ATOM     19  C   UNL     1      35.882 -21.373 -18.843  0.00  0.00    +0.026 C 
ATOM     20  C   UNL     1      36.838 -20.608 -19.514  0.00  0.00    +0.003 C 
ATOM     21  C   UNL     1      34.579 -21.447 -19.338  0.00  0.00    +0.003 C 
ATOM     22  C   UNL     1      36.491 -19.919 -20.676  0.00  0.00    +0.010 C 
ATOM     23  C   UNL     1      34.233 -20.759 -20.501  0.00  0.00    +0.010 C 
ATOM     24  C   UNL     1      35.189 -19.994 -21.170  0.00  0.00    +0.068 C 
BRANCH  24  26
ATOM     25  N   UNL     1      34.546 -18.715 -23.328  0.00  0.00    -0.191 NA
ATOM     26  C   UNL     1      34.834 -19.289 -22.360  0.00  0.00    +0.100 C 
ENDBRANCH  24  26
ENDBRANCH  17  19
ENDBRANCH  12  16
ENDBRANCH   1  12
BRANCH   1  27
ATOM     27  C   UNL     1      34.490 -23.949 -12.560  0.00  0.00    +0.149 C 
BRANCH  27  28
ATOM     28  N   UNL     1      35.908 -24.002 -12.194  0.00  0.00    -0.188 N 
ATOM     29  N   UNL     1      36.604 -22.876 -12.075  0.00  0.00    -0.154 NA
ATOM     30  N   UNL     1      37.867 -24.736 -11.652  0.00  0.00    -0.203 NA
ATOM     31  C   UNL     1      36.641 -25.101 -11.948  0.00  0.00    +0.186 C 
ATOM     32  C   UNL     1      37.796 -23.374 -11.744  0.00  0.00    +0.218 C 
ENDBRANCH  27  28
ENDBRANCH   1  27
TORSDOF 8
ENDMDL
MODEL 3
REMARK VINA RESULT:      -9.7      3.465      8.586
REMARK  Name = 467825
REMARK  8 active torsions:
REMARK  status: ('A' for Active; 'I' for Inactive)
REMARK    1  A    between atoms: C_1  and  C_4
REMARK    2  A    between atoms: C_1  and  O_10
REMARK    3  A    between atoms: C_1  and  C_12
REMARK    4  A    between atoms: C_1  and  C_27
REMARK    5  A    between atoms: C_12  and  C_16
REMARK    6  A    between atoms: C_17  and  C_19
REMARK    7  A    between atoms: C_24  and  C_26
REMARK    8  A    between atoms: C_27  and  N_28
REMARK                            x       y       z     vdW  Elec       q    Type
REMARK                         _______ _______ _______ _____ _____    ______ ____
ROOT
ATOM      1  C   UNL     1      33.175 -10.752 -23.694  0.00  0.00    +0.136 C 
ENDROOT
BRANCH   1   4
ATOM      2  F   UNL     1      35.310  -8.900 -23.626  0.00  0.00    -0.204 F 
ATOM      3  F   UNL     1      32.395  -5.196 -24.046  0.00  0.00    -0.204 F 
ATOM      4  C   UNL     1      32.965  -9.232 -23.789  0.00  0.00    +0.031 C 
ATOM      5  C   UNL     1      34.067  -8.414 -23.747  0.00  0.00    +0.141 C 
ATOM      6  C   UNL     1      31.682  -8.760 -23.913  0.00  0.00    +0.003 C 
ATOM      7  C   UNL     1      33.873  -7.035 -23.834  0.00  0.00    +0.059 C 
ATOM      8  C   UNL     1      31.486  -7.382 -24.000  0.00  0.00    +0.030 C 
ATOM      9  C   UNL     1      32.582  -6.519 -23.961  0.00  0.00    +0.142 C 
ENDBRANCH   1   4
BRANCH   1  10
ATOM     10  O   UNL     1      34.221 -11.042 -22.756  0.00  0.00    -0.380 OA
ATOM     11  H   UNL     1      34.446 -11.984 -22.806  0.00  0.00    +0.211 HD
ENDBRANCH   1  10
BRANCH   1  12
ATOM     12  C   UNL     1      33.591 -11.353 -25.096  0.00  0.00    +0.089 C 
ATOM     13  C   UNL     1      34.907 -10.786 -25.654  0.00  0.00    +0.011 C 
BRANCH  12  16
ATOM     14  S   UNL     1      33.033 -13.682 -26.462  0.00  0.00    -0.079 S 
ATOM     15  N   UNL     1      34.124 -13.564 -24.122  0.00  0.00    -0.403 NA
ATOM     16  C   UNL     1      33.642 -12.890 -25.102  0.00  0.00    +0.137 C 
ATOM     17  C   UNL     1      34.011 -14.898 -24.464  0.00  0.00    +0.120 C 
ATOM     18  C   UNL     1      33.444 -15.159 -25.694  0.00  0.00    +0.123 C 
BRANCH  17  19
ATOM     19  C   UNL     1      34.459 -15.939 -23.585  0.00  0.00    +0.026 C 
ATOM     20  C   UNL     1      34.850 -17.173 -24.107  0.00  0.00    +0.003 C 
ATOM     21  C   UNL     1      34.507 -15.719 -22.207  0.00  0.00    +0.003 C 
ATOM     22  C   UNL     1      35.286 -18.186 -23.252  0.00  0.00    +0.010 C 
ATOM     23  C   UNL     1      34.944 -16.732 -21.353  0.00  0.00    +0.010 C 
ATOM     24  C   UNL     1      35.333 -17.965 -21.876  0.00  0.00    +0.068 C 
BRANCH  24  26
ATOM     25  N   UNL     1      36.144 -19.846 -20.289  0.00  0.00    -0.191 NA
ATOM     26  C   UNL     1      35.780 -19.002 -21.001  0.00  0.00    +0.100 C 
ENDBRANCH  24  26
ENDBRANCH  17  19
ENDBRANCH  12  16
ENDBRANCH   1  12
BRANCH   1  27
ATOM     27  C   UNL     1      31.882 -11.453 -23.167  0.00  0.00    +0.149 C 
BRANCH  27  28
ATOM     28  N   UNL     1      31.862 -11.728 -21.727  0.00  0.00    -0.188 N 
ATOM     29  N   UNL     1      32.319 -12.889 -21.269  0.00  0.00    -0.154 NA
ATOM     30  N   UNL     1      31.569 -11.520 -19.597  0.00  0.00    -0.203 NA
ATOM     31  C   UNL     1      31.418 -10.916 -20.753  0.00  0.00    +0.186 C 
ATOM     32  C   UNL     1      32.119 -12.716 -19.961  0.00  0.00    +0.218 C 
ENDBRANCH  27  28
ENDBRANCH   1  27
TORSDOF 8
ENDMDL
MODEL 4
REMARK VINA RESULT:      -9.7      4.402      9.219
REMARK  Name = 467825
REMARK  8 active torsions:
REMARK  status: ('A' for Active; 'I' for Inactive)
REMARK    1  A    between atoms: C_1  and  C_4
REMARK    2  A    between atoms: C_1  and  O_10
REMARK    3  A    between atoms: C_1  and  C_12
REMARK    4  A    between atoms: C_1  and  C_27
REMARK    5  A    between atoms: C_12  and  C_16
REMARK    6  A    between atoms: C_17  and  C_19
REMARK    7  A    between atoms: C_24  and  C_26
REMARK    8  A    between atoms: C_27  and  N_28
REMARK                            x       y       z     vdW  Elec       q    Type
REMARK                         _______ _______ _______ _____ _____    ______ ____
ROOT
ATOM      1  C   UNL     1      33.034 -13.451 -23.078  0.00  0.00    +0.136 C 
ENDROOT
BRANCH   1   4
ATOM      2  F   UNL     1      34.490 -11.158 -23.860  0.00  0.00    -0.204 F 
ATOM      3  F   UNL     1      31.291  -8.221 -21.983  0.00  0.00    -0.204 F 
ATOM      4  C   UNL     1      32.560 -12.020 -22.779  0.00  0.00    +0.031 C 
ATOM      5  C   UNL     1      33.338 -10.970 -23.201  0.00  0.00    +0.141 C 
ATOM      6  C   UNL     1      31.377 -11.855 -22.102  0.00  0.00    +0.003 C 
ATOM      7  C   UNL     1      32.905  -9.673 -22.929  0.00  0.00    +0.059 C 
ATOM      8  C   UNL     1      30.943 -10.558 -21.830  0.00  0.00    +0.030 C 
ATOM      9  C   UNL     1      31.707  -9.466 -22.243  0.00  0.00    +0.142 C 
ENDBRANCH   1   4
BRANCH   1  10
ATOM     10  O   UNL     1      31.918 -14.264 -23.465  0.00  0.00    -0.380 OA
ATOM     11  H   UNL     1      31.462 -13.850 -24.215  0.00  0.00    +0.211 HD
ENDBRANCH   1  10
BRANCH   1  12
ATOM     12  C   UNL     1      33.698 -14.105 -21.800  0.00  0.00    +0.089 C 
ATOM     13  C   UNL     1      32.834 -14.014 -20.531  0.00  0.00    +0.011 C 
BRANCH  12  16
ATOM     14  S   UNL     1      35.028 -15.895 -23.422  0.00  0.00    -0.079 S 
ATOM     15  N   UNL     1      33.851 -16.501 -21.202  0.00  0.00    -0.403 NA
ATOM     16  C   UNL     1      34.138 -15.560 -22.027  0.00  0.00    +0.137 C 
ATOM     17  C   UNL     1      34.397 -17.660 -21.716  0.00  0.00    +0.120 C 
ATOM     18  C   UNL     1      35.072 -17.531 -22.911  0.00  0.00    +0.123 C 
BRANCH  17  19
ATOM     19  C   UNL     1      34.263 -18.917 -21.038  0.00  0.00    +0.026 C 
ATOM     20  C   UNL     1      35.400 -19.662 -20.716  0.00  0.00    +0.003 C 
ATOM     21  C   UNL     1      32.998 -19.399 -20.698  0.00  0.00    +0.003 C 
ATOM     22  C   UNL     1      35.270 -20.884 -20.057  0.00  0.00    +0.010 C 
ATOM     23  C   UNL     1      32.869 -20.620 -20.038  0.00  0.00    +0.010 C 
ATOM     24  C   UNL     1      34.005 -21.364 -19.718  0.00  0.00    +0.068 C 
BRANCH  24  26
ATOM     25  N   UNL     1      33.764 -23.633 -18.492  0.00  0.00    -0.191 NA
ATOM     26  C   UNL     1      33.872 -22.615 -19.042  0.00  0.00    +0.100 C 
ENDBRANCH  24  26
ENDBRANCH  17  19
ENDBRANCH  12  16
ENDBRANCH   1  12
BRANCH   1  27
ATOM     27  C   UNL     1      34.042 -13.457 -24.272  0.00  0.00    +0.149 C 
BRANCH  27  28
ATOM     28  N   UNL     1      33.435 -13.584 -25.601  0.00  0.00    -0.188 N 
ATOM     29  N   UNL     1      32.856 -14.725 -25.959  0.00  0.00    -0.154 NA
ATOM     30  N   UNL     1      32.756 -13.138 -27.603  0.00  0.00    -0.203 NA
ATOM     31  C   UNL     1      33.382 -12.644 -26.561  0.00  0.00    +0.186 C 
ATOM     32  C   UNL     1      32.456 -14.405 -27.191  0.00  0.00    +0.218 C 
ENDBRANCH  27  28
ENDBRANCH   1  27
TORSDOF 8
ENDMDL
MODEL 5
REMARK VINA RESULT:      -9.5     11.418     14.743
REMARK  Name = 467825
REMARK  8 active torsions:
REMARK  status: ('A' for Active; 'I' for Inactive)
REMARK    1  A    between atoms: C_1  and  C_4
REMARK    2  A    between atoms: C_1  and  O_10
REMARK    3  A    between atoms: C_1  and  C_12
REMARK    4  A    between atoms: C_1  and  C_27
REMARK    5  A    between atoms: C_12  and  C_16
REMARK    6  A    between atoms: C_17  and  C_19
REMARK    7  A    between atoms: C_24  and  C_26
REMARK    8  A    between atoms: C_27  and  N_28
REMARK                            x       y       z     vdW  Elec       q    Type
REMARK                         _______ _______ _______ _____ _____    ______ ____
ROOT
ATOM      1  C   UNL     1      34.127 -23.590 -14.183  0.00  0.00    +0.136 C 
ENDROOT
BRANCH   1   4
ATOM      2  F   UNL     1      32.513 -25.538 -12.922  0.00  0.00    -0.204 F 
ATOM      3  F   UNL     1      28.927 -24.824 -15.925  0.00  0.00    -0.204 F 
ATOM      4  C   UNL     1      32.705 -23.930 -14.658  0.00  0.00    +0.031 C 
ATOM      5  C   UNL     1      32.000 -24.892 -13.978  0.00  0.00    +0.141 C 
ATOM      6  C   UNL     1      32.203 -23.254 -15.742  0.00  0.00    +0.003 C 
ATOM      7  C   UNL     1      30.710 -25.198 -14.411  0.00  0.00    +0.059 C 
ATOM      8  C   UNL     1      30.913 -23.559 -16.175  0.00  0.00    +0.030 C 
ATOM      9  C   UNL     1      30.166 -24.531 -15.510  0.00  0.00    +0.142 C 
ENDBRANCH   1   4
BRANCH   1  10
ATOM     10  O   UNL     1      34.334 -22.172 -14.239  0.00  0.00    -0.380 OA
ATOM     11  H   UNL     1      34.974 -21.912 -13.558  0.00  0.00    +0.211 HD
ENDBRANCH   1  10
BRANCH   1  12
ATOM     12  C   UNL     1      35.211 -24.281 -15.103  0.00  0.00    +0.089 C 
ATOM     13  C   UNL     1      34.689 -25.510 -15.869  0.00  0.00    +0.011 C 
BRANCH  12  16
ATOM     14  S   UNL     1      37.481 -22.863 -15.764  0.00  0.00    -0.079 S 
ATOM     15  N   UNL     1      35.272 -22.832 -17.107  0.00  0.00    -0.403 NA
ATOM     16  C   UNL     1      35.882 -23.305 -16.082  0.00  0.00    +0.137 C 
ATOM     17  C   UNL     1      36.166 -22.000 -17.752  0.00  0.00    +0.120 C 
ATOM     18  C   UNL     1      37.413 -21.890 -17.174  0.00  0.00    +0.123 C 
BRANCH  17  19
ATOM     19  C   UNL     1      35.807 -21.298 -18.951  0.00  0.00    +0.026 C 
ATOM     20  C   UNL     1      34.492 -21.342 -19.419  0.00  0.00    +0.003 C 
ATOM     21  C   UNL     1      36.770 -20.571 -19.652  0.00  0.00    +0.003 C 
ATOM     22  C   UNL     1      34.143 -20.661 -20.584  0.00  0.00    +0.010 C 
ATOM     23  C   UNL     1      36.420 -19.889 -20.817  0.00  0.00    +0.010 C 
ATOM     24  C   UNL     1      35.106 -19.934 -21.284  0.00  0.00    +0.068 C 
BRANCH  24  26
ATOM     25  N   UNL     1      34.456 -18.667 -23.448  0.00  0.00    -0.191 NA
ATOM     26  C   UNL     1      34.747 -19.236 -22.477  0.00  0.00    +0.100 C 
ENDBRANCH  24  26
ENDBRANCH  17  19
ENDBRANCH  12  16
ENDBRANCH   1  12
BRANCH   1  27
ATOM     27  C   UNL     1      34.326 -24.023 -12.695  0.00  0.00    +0.149 C 
BRANCH  27  28
ATOM     28  N   UNL     1      35.717 -24.038 -12.229  0.00  0.00    -0.188 N 
ATOM     29  N   UNL     1      36.399 -22.901 -12.144  0.00  0.00    -0.154 NA
ATOM     30  N   UNL     1      37.635 -24.716 -11.503  0.00  0.00    -0.203 NA
ATOM     31  C   UNL     1      36.434 -25.111 -11.856  0.00  0.00    +0.186 C 
ATOM     32  C   UNL     1      37.567 -23.365 -11.696  0.00  0.00    +0.218 C 
ENDBRANCH  27  28
ENDBRANCH   1  27
TORSDOF 8
ENDMDL
MODEL 6
REMARK VINA RESULT:      -9.2      3.542      8.617
REMARK  Name = 467825
REMARK  8 active torsions:
REMARK  status: ('A' for Active; 'I' for Inactive)
REMARK    1  A    between atoms: C_1  and  C_4
REMARK    2  A    between atoms: C_1  and  O_10
REMARK    3  A    between atoms: C_1  and  C_12
REMARK    4  A    between atoms: C_1  and  C_27
REMARK    5  A    between atoms: C_12  and  C_16
REMARK    6  A    between atoms: C_17  and  C_19
REMARK    7  A    between atoms: C_24  and  C_26
REMARK    8  A    between atoms: C_27  and  N_28
REMARK                            x       y       z     vdW  Elec       q    Type
REMARK                         _______ _______ _______ _____ _____    ______ ____
ROOT
ATOM      1  C   UNL     1      32.782  -9.263 -22.968  0.00  0.00    +0.136 C 
ENDROOT
BRANCH   1   4
ATOM      2  F   UNL     1      33.040  -7.299 -20.953  0.00  0.00    -0.204 F 
ATOM      3  F   UNL     1      30.777  -4.043 -23.535  0.00  0.00    -0.204 F 
ATOM      4  C   UNL     1      32.234  -7.835 -23.120  0.00  0.00    +0.031 C 
ATOM      5  C   UNL     1      32.410  -6.952 -22.084  0.00  0.00    +0.141 C 
ATOM      6  C   UNL     1      31.593  -7.506 -24.289  0.00  0.00    +0.003 C 
ATOM      7  C   UNL     1      31.912  -5.657 -22.225  0.00  0.00    +0.059 C 
ATOM      8  C   UNL     1      31.095  -6.211 -24.431  0.00  0.00    +0.030 C 
ATOM      9  C   UNL     1      31.254  -5.286 -23.399  0.00  0.00    +0.142 C 
ENDBRANCH   1   4
BRANCH   1  10
ATOM     10  O   UNL     1      33.694  -9.321 -21.862  0.00  0.00    -0.380 OA
ATOM     11  H   UNL     1      33.860  -8.424 -21.534  0.00  0.00    +0.211 HD
ENDBRANCH   1  10
BRANCH   1  12
ATOM     12  C   UNL     1      33.560  -9.711 -24.270  0.00  0.00    +0.089 C 
ATOM     13  C   UNL     1      34.995  -9.164 -24.360  0.00  0.00    +0.011 C 
BRANCH  12  16
ATOM     14  S   UNL     1      33.014 -11.826 -25.951  0.00  0.00    -0.079 S 
ATOM     15  N   UNL     1      33.983 -12.045 -23.566  0.00  0.00    -0.403 NA
ATOM     16  C   UNL     1      33.571 -11.235 -24.472  0.00  0.00    +0.137 C 
ATOM     17  C   UNL     1      33.852 -13.319 -24.082  0.00  0.00    +0.120 C 
ATOM     18  C   UNL     1      33.345 -13.402 -25.361  0.00  0.00    +0.123 C 
BRANCH  17  19
ATOM     19  C   UNL     1      34.227 -14.478 -23.324  0.00  0.00    +0.026 C 
ATOM     20  C   UNL     1      34.205 -14.436 -21.928  0.00  0.00    +0.003 C 
ATOM     21  C   UNL     1      34.612 -15.648 -23.979  0.00  0.00    +0.003 C 
ATOM     22  C   UNL     1      34.569 -15.563 -21.191  0.00  0.00    +0.010 C 
ATOM     23  C   UNL     1      34.975 -16.775 -23.241  0.00  0.00    +0.010 C 
ATOM     24  C   UNL     1      34.954 -16.732 -21.847  0.00  0.00    +0.068 C 
BRANCH  24  26
ATOM     25  N   UNL     1      35.629 -18.825 -20.477  0.00  0.00    -0.191 NA
ATOM     26  C   UNL     1      35.326 -17.886 -21.091  0.00  0.00    +0.100 C 
ENDBRANCH  24  26
ENDBRANCH  17  19
ENDBRANCH  12  16
ENDBRANCH   1  12
BRANCH   1  27
ATOM     27  C   UNL     1      31.624 -10.265 -22.660  0.00  0.00    +0.149 C 
BRANCH  27  28
ATOM     28  N   UNL     1      31.591 -10.779 -21.287  0.00  0.00    -0.188 N 
ATOM     29  N   UNL     1      31.438  -9.939 -20.269  0.00  0.00    -0.154 NA
ATOM     30  N   UNL     1      31.622 -12.116 -19.590  0.00  0.00    -0.203 NA
ATOM     31  C   UNL     1      31.701 -12.061 -20.899  0.00  0.00    +0.186 C 
ATOM     32  C   UNL     1      31.464 -10.802 -19.251  0.00  0.00    +0.218 C 
ENDBRANCH  27  28
ENDBRANCH   1  27
TORSDOF 8
ENDMDL
MODEL 7
REMARK VINA RESULT:      -9.0      1.044      1.546
REMARK  Name = 467825
REMARK  8 active torsions:
REMARK  status: ('A' for Active; 'I' for Inactive)
REMARK    1  A    between atoms: C_1  and  C_4
REMARK    2  A    between atoms: C_1  and  O_10
REMARK    3  A    between atoms: C_1  and  C_12
REMARK    4  A    between atoms: C_1  and  C_27
REMARK    5  A    between atoms: C_12  and  C_16
REMARK    6  A    between atoms: C_17  and  C_19
REMARK    7  A    between atoms: C_24  and  C_26
REMARK    8  A    between atoms: C_27  and  N_28
REMARK                            x       y       z     vdW  Elec       q    Type
REMARK                         _______ _______ _______ _____ _____    ______ ____
ROOT
ATOM      1  C   UNL     1      33.212 -13.835 -23.577  0.00  0.00    +0.136 C 
ENDROOT
BRANCH   1   4
ATOM      2  F   UNL     1      35.079 -14.673 -21.628  0.00  0.00    -0.204 F 
ATOM      3  F   UNL     1      35.780 -18.831 -23.776  0.00  0.00    -0.204 F 
ATOM      4  C   UNL     1      33.916 -15.200 -23.629  0.00  0.00    +0.031 C 
ATOM      5  C   UNL     1      34.808 -15.516 -22.635  0.00  0.00    +0.141 C 
ATOM      6  C   UNL     1      33.620 -16.044 -24.671  0.00  0.00    +0.003 C 
ATOM      7  C   UNL     1      35.445 -16.756 -22.685  0.00  0.00    +0.059 C 
ATOM      8  C   UNL     1      34.256 -17.285 -24.721  0.00  0.00    +0.030 C 
ATOM      9  C   UNL     1      35.170 -17.640 -23.728  0.00  0.00    +0.142 C 
ENDBRANCH   1   4
BRANCH   1  10
ATOM     10  O   UNL     1      34.178 -12.794 -23.379  0.00  0.00    -0.380 OA
ATOM     11  H   UNL     1      34.807 -13.064 -22.691  0.00  0.00    +0.211 HD
ENDBRANCH   1  10
BRANCH   1  12
ATOM     12  C   UNL     1      32.177 -13.778 -22.383  0.00  0.00    +0.089 C 
ATOM     13  C   UNL     1      32.467 -14.785 -21.256  0.00  0.00    +0.011 C 
BRANCH  12  16
ATOM     14  S   UNL     1      31.889 -12.241 -20.113  0.00  0.00    -0.079 S 
ATOM     15  N   UNL     1      31.971 -11.317 -22.525  0.00  0.00    -0.403 NA
ATOM     16  C   UNL     1      32.014 -12.369 -21.792  0.00  0.00    +0.137 C 
ATOM     17  C   UNL     1      31.819 -10.243 -21.672  0.00  0.00    +0.120 C 
ATOM     18  C   UNL     1      31.755 -10.545 -20.328  0.00  0.00    +0.123 C 
BRANCH  17  19
ATOM     19  C   UNL     1      31.735  -8.898 -22.165  0.00  0.00    +0.026 C 
ATOM     20  C   UNL     1      32.121  -7.830 -21.352  0.00  0.00    +0.003 C 
ATOM     21  C   UNL     1      31.268  -8.655 -23.458  0.00  0.00    +0.003 C 
ATOM     22  C   UNL     1      32.039  -6.523 -21.831  0.00  0.00    +0.010 C 
ATOM     23  C   UNL     1      31.188  -7.347 -23.937  0.00  0.00    +0.010 C 
ATOM     24  C   UNL     1      31.572  -6.281 -23.123  0.00  0.00    +0.068 C 
BRANCH  24  26
ATOM     25  N   UNL     1      31.421  -3.853 -24.013  0.00  0.00    -0.191 NA
ATOM     26  C   UNL     1      31.489  -4.943 -23.614  0.00  0.00    +0.100 C 
ENDBRANCH  24  26
ENDBRANCH  17  19
ENDBRANCH  12  16
ENDBRANCH   1  12
BRANCH   1  27
ATOM     27  C   UNL     1      32.490 -13.538 -24.931  0.00  0.00    +0.149 C 
BRANCH  27  28
ATOM     28  N   UNL     1      33.362 -13.077 -26.016  0.00  0.00    -0.188 N 
ATOM     29  N   UNL     1      33.987 -11.909 -25.912  0.00  0.00    -0.154 NA
ATOM     30  N   UNL     1      34.455 -12.982 -27.878  0.00  0.00    -0.203 NA
ATOM     31  C   UNL     1      33.629 -13.716 -27.168  0.00  0.00    +0.186 C 
ATOM     32  C   UNL     1      34.643 -11.893 -27.074  0.00  0.00    +0.218 C 
ENDBRANCH  27  28
ENDBRANCH   1  27
TORSDOF 8
ENDMDL
MODEL 8
REMARK VINA RESULT:      -9.0      4.446      9.277
REMARK  Name = 467825
REMARK  8 active torsions:
REMARK  status: ('A' for Active; 'I' for Inactive)
REMARK    1  A    between atoms: C_1  and  C_4
REMARK    2  A    between atoms: C_1  and  O_10
REMARK    3  A    between atoms: C_1  and  C_12
REMARK    4  A    between atoms: C_1  and  C_27
REMARK    5  A    between atoms: C_12  and  C_16
REMARK    6  A    between atoms: C_17  and  C_19
REMARK    7  A    between atoms: C_24  and  C_26
REMARK    8  A    between atoms: C_27  and  N_28
REMARK                            x       y       z     vdW  Elec       q    Type
REMARK                         _______ _______ _______ _____ _____    ______ ____
ROOT
ATOM      1  C   UNL     1      33.515 -13.826 -23.135  0.00  0.00    +0.136 C 
ENDROOT
BRANCH   1   4
ATOM      2  F   UNL     1      32.147 -14.626 -20.795  0.00  0.00    -0.204 F 
ATOM      3  F   UNL     1      30.680 -10.221 -19.886  0.00  0.00    -0.204 F 
ATOM      4  C   UNL     1      32.738 -12.842 -22.245  0.00  0.00    +0.031 C 
ATOM      5  C   UNL     1      32.106 -13.329 -21.128  0.00  0.00    +0.141 C 
ATOM      6  C   UNL     1      32.712 -11.519 -22.609  0.00  0.00    +0.003 C 
ATOM      7  C   UNL     1      31.403 -12.433 -20.322  0.00  0.00    +0.059 C 
ATOM      8  C   UNL     1      32.009 -10.623 -21.803  0.00  0.00    +0.030 C 
ATOM      9  C   UNL     1      31.354 -11.080 -20.660  0.00  0.00    +0.142 C 
ENDBRANCH   1   4
BRANCH   1  10
ATOM     10  O   UNL     1      32.637 -14.860 -23.602  0.00  0.00    -0.380 OA
ATOM     11  H   UNL     1      33.029 -15.726 -23.409  0.00  0.00    +0.211 HD
ENDBRANCH   1  10
BRANCH   1  12
ATOM     12  C   UNL     1      34.693 -14.508 -22.330  0.00  0.00    +0.089 C 
ATOM     13  C   UNL     1      34.728 -14.134 -20.838  0.00  0.00    +0.011 C 
BRANCH  12  16
ATOM     14  S   UNL     1      35.075 -16.656 -24.015  0.00  0.00    -0.079 S 
ATOM     15  N   UNL     1      34.494 -16.831 -21.503  0.00  0.00    -0.403 NA
ATOM     16  C   UNL     1      34.723 -16.037 -22.485  0.00  0.00    +0.137 C 
ATOM     17  C   UNL     1      34.603 -18.116 -21.997  0.00  0.00    +0.120 C 
ATOM     18  C   UNL     1      34.912 -18.222 -23.337  0.00  0.00    +0.123 C 
BRANCH  17  19
ATOM     19  C   UNL     1      34.406 -19.262 -21.158  0.00  0.00    +0.026 C 
ATOM     20  C   UNL     1      35.505 -19.989 -20.699  0.00  0.00    +0.003 C 
ATOM     21  C   UNL     1      33.115 -19.652 -20.798  0.00  0.00    +0.003 C 
ATOM     22  C   UNL     1      35.314 -21.104 -19.883  0.00  0.00    +0.010 C 
ATOM     23  C   UNL     1      32.924 -20.766 -19.981  0.00  0.00    +0.010 C 
ATOM     24  C   UNL     1      34.023 -21.492 -19.524  0.00  0.00    +0.068 C 
BRANCH  24  26
ATOM     25  N   UNL     1      33.668 -23.562 -18.006  0.00  0.00    -0.191 NA
ATOM     26  C   UNL     1      33.827 -22.634 -18.687  0.00  0.00    +0.100 C 
ENDBRANCH  24  26
ENDBRANCH  17  19
ENDBRANCH  12  16
ENDBRANCH   1  12
BRANCH   1  27
ATOM     27  C   UNL     1      34.075 -13.097 -24.399  0.00  0.00    +0.149 C 
BRANCH  27  28
ATOM     28  N   UNL     1      33.444 -13.471 -25.668  0.00  0.00    -0.188 N 
ATOM     29  N   UNL     1      32.982 -14.705 -25.839  0.00  0.00    -0.154 NA
ATOM     30  N   UNL     1      32.657 -13.384 -27.678  0.00  0.00    -0.203 NA
ATOM     31  C   UNL     1      33.258 -12.686 -26.743  0.00  0.00    +0.186 C 
ATOM     32  C   UNL     1      32.511 -14.605 -27.084  0.00  0.00    +0.218 C 
ENDBRANCH  27  28
ENDBRANCH   1  27
TORSDOF 8
ENDMDL
MODEL 9
REMARK VINA RESULT:      -8.6     11.600     14.802
REMARK  Name = 467825
REMARK  8 active torsions:
REMARK  status: ('A' for Active; 'I' for Inactive)
REMARK    1  A    between atoms: C_1  and  C_4
REMARK    2  A    between atoms: C_1  and  O_10
REMARK    3  A    between atoms: C_1  and  C_12
REMARK    4  A    between atoms: C_1  and  C_27
REMARK    5  A    between atoms: C_12  and  C_16
REMARK    6  A    between atoms: C_17  and  C_19
REMARK    7  A    between atoms: C_24  and  C_26
REMARK    8  A    between atoms: C_27  and  N_28
REMARK                            x       y       z     vdW  Elec       q    Type
REMARK                         _______ _______ _______ _____ _____    ______ ____
ROOT
ATOM      1  C   UNL     1      36.100 -23.272 -14.859  0.00  0.00    +0.136 C 
ENDROOT
BRANCH   1   4
ATOM      2  F   UNL     1      37.876 -22.122 -12.985  0.00  0.00    -0.204 F 
ATOM      3  F   UNL     1      35.853 -24.385  -9.355  0.00  0.00    -0.204 F 
ATOM      4  C   UNL     1      36.035 -23.575 -13.354  0.00  0.00    +0.031 C 
ATOM      5  C   UNL     1      36.942 -22.966 -12.523  0.00  0.00    +0.141 C 
ATOM      6  C   UNL     1      35.070 -24.443 -12.907  0.00  0.00    +0.003 C 
ATOM      7  C   UNL     1      36.881 -23.243 -11.157  0.00  0.00    +0.059 C 
ATOM      8  C   UNL     1      35.007 -24.720 -11.541  0.00  0.00    +0.030 C 
ATOM      9  C   UNL     1      35.913 -24.120 -10.666  0.00  0.00    +0.142 C 
ENDBRANCH   1   4
BRANCH   1  10
ATOM     10  O   UNL     1      35.778 -21.894 -15.094  0.00  0.00    -0.380 OA
ATOM     11  H   UNL     1      36.263 -21.578 -15.873  0.00  0.00    +0.211 HD
ENDBRANCH   1  10
BRANCH   1  12
ATOM     12  C   UNL     1      35.065 -24.161 -15.660  0.00  0.00    +0.089 C 
ATOM     13  C   UNL     1      34.088 -24.942 -14.765  0.00  0.00    +0.011 C 
BRANCH  12  16
ATOM     14  S   UNL     1      32.596 -23.445 -16.656  0.00  0.00    -0.079 S 
ATOM     15  N   UNL     1      34.864 -22.671 -17.625  0.00  0.00    -0.403 NA
ATOM     16  C   UNL     1      34.282 -23.369 -16.719  0.00  0.00    +0.137 C 
ATOM     17  C   UNL     1      33.866 -22.104 -18.393  0.00  0.00    +0.120 C 
ATOM     18  C   UNL     1      32.573 -22.408 -18.021  0.00  0.00    +0.123 C 
BRANCH  17  19
ATOM     19  C   UNL     1      34.168 -21.252 -19.506  0.00  0.00    +0.026 C 
ATOM     20  C   UNL     1      33.142 -20.571 -20.164  0.00  0.00    +0.003 C 
ATOM     21  C   UNL     1      35.488 -21.102 -19.935  0.00  0.00    +0.003 C 
ATOM     22  C   UNL     1      33.436 -19.743 -21.247  0.00  0.00    +0.010 C 
ATOM     23  C   UNL     1      35.781 -20.273 -21.018  0.00  0.00    +0.010 C 
ATOM     24  C   UNL     1      34.755 -19.594 -21.674  0.00  0.00    +0.068 C 
BRANCH  24  26
ATOM     25  N   UNL     1      35.299 -18.054 -23.685  0.00  0.00    -0.191 NA
ATOM     26  C   UNL     1      35.055 -18.745 -22.783  0.00  0.00    +0.100 C 
ENDBRANCH  24  26
ENDBRANCH  17  19
ENDBRANCH  12  16
ENDBRANCH   1  12
BRANCH   1  27
ATOM     27  C   UNL     1      37.546 -23.503 -15.404  0.00  0.00    +0.149 C 
BRANCH  27  28
ATOM     28  N   UNL     1      38.201 -24.728 -14.936  0.00  0.00    -0.188 N 
ATOM     29  N   UNL     1      39.396 -24.661 -14.359  0.00  0.00    -0.154 NA
ATOM     30  N   UNL     1      38.604 -26.803 -14.488  0.00  0.00    -0.203 NA
ATOM     31  C   UNL     1      37.727 -25.983 -15.018  0.00  0.00    +0.186 C 
ATOM     32  C   UNL     1      39.602 -25.954 -14.102  0.00  0.00    +0.218 C 
ENDBRANCH  27  28
ENDBRANCH   1  27
TORSDOF 8
ENDMDL
