MODEL 1
REMARK VINA RESULT:      -6.5      0.000      0.000
REMARK  Name = 2968
REMARK  11 active torsions:
REMARK  status: ('A' for Active; 'I' for Inactive)
REMARK    1  A    between atoms: C_1  and  C_2
REMARK    2  A    between atoms: C_1  and  C_10
REMARK    3  A    between atoms: C_2  and  C_3
REMARK    4  A    between atoms: C_3  and  C_4
REMARK    5  A    between atoms: C_4  and  C_5
REMARK    6  A    between atoms: C_5  and  N_6
REMARK    7  A    between atoms: C_10  and  C_11
REMARK    8  A    between atoms: C_11  and  C_12
REMARK    9  A    between atoms: C_12  and  C_13
REMARK   10  A    between atoms: C_13  and  C_14
REMARK   11  A    between atoms: C_14  and  N_15
REMARK                            x       y       z     vdW  Elec       q    Type
REMARK                         _______ _______ _______ _____ _____    ______ ____
ROOT
ATOM      1  C   UNL     1      35.295 -22.172 -18.077  0.00  0.00    -0.000 C 
ENDROOT
BRANCH   1   2
ATOM      2  C   UNL     1      36.758 -21.822 -17.792  0.00  0.00    -0.000 C 
BRANCH   2   3
ATOM      3  C   UNL     1      37.124 -21.918 -16.306  0.00  0.00    -0.002 C 
BRANCH   3   4
ATOM      4  C   UNL     1      36.648 -23.218 -15.650  0.00  0.00    -0.022 C 
BRANCH   4   5
ATOM      5  C   UNL     1      37.781 -24.033 -15.036  0.00  0.00    -0.073 C 
BRANCH   5   6
ATOM      6  N   UNL     1      37.241 -25.130 -14.200  0.00  0.00    +0.386 N 
ATOM      7  C   UNL     1      36.830 -26.329 -15.069  0.00  0.00    -0.096 C 
ATOM      8  C   UNL     1      38.290 -25.614 -13.189  0.00  0.00    -0.096 C 
ATOM      9  C   UNL     1      36.004 -24.665 -13.417  0.00  0.00    -0.096 C 
ENDBRANCH   5   6
ENDBRANCH   4   5
ENDBRANCH   3   4
ENDBRANCH   2   3
ENDBRANCH   1   2
BRANCH   1  10
ATOM     10  C   UNL     1      34.819 -21.706 -19.457  0.00  0.00    -0.000 C 
BRANCH  10  11
ATOM     11  C   UNL     1      33.322 -21.392 -19.508  0.00  0.00    -0.000 C 
BRANCH  11  12
ATOM     12  C   UNL     1      33.037 -20.204 -20.431  0.00  0.00    -0.002 C 
BRANCH  12  13
ATOM     13  C   UNL     1      34.329 -19.476 -20.811  0.00  0.00    -0.022 C 
BRANCH  13  14
ATOM     14  C   UNL     1      34.092 -18.136 -21.497  0.00  0.00    -0.073 C 
BRANCH  14  15
ATOM     15  N   UNL     1      35.076 -17.920 -22.582  0.00  0.00    +0.386 N 
ATOM     16  C   UNL     1      36.474 -18.394 -22.156  0.00  0.00    -0.096 C 
ATOM     17  C   UNL     1      34.676 -18.697 -23.846  0.00  0.00    -0.096 C 
ATOM     18  C   UNL     1      35.170 -16.432 -22.949  0.00  0.00    -0.096 C 
ENDBRANCH  14  15
ENDBRANCH  13  14
ENDBRANCH  12  13
ENDBRANCH  11  12
ENDBRANCH  10  11
ENDBRANCH   1  10
TORSDOF 11
ENDMDL
MODEL 2
REMARK VINA RESULT:      -6.5      0.944      9.139
REMARK  Name = 2968
REMARK  11 active torsions:
REMARK  status: ('A' for Active; 'I' for Inactive)
REMARK    1  A    between atoms: C_1  and  C_2
REMARK    2  A    between atoms: C_1  and  C_10
REMARK    3  A    between atoms: C_2  and  C_3
REMARK    4  A    between atoms: C_3  and  C_4
REMARK    5  A    between atoms: C_4  and  C_5
REMARK    6  A    between atoms: C_5  and  N_6
REMARK    7  A    between atoms: C_10  and  C_11
REMARK    8  A    between atoms: C_11  and  C_12
REMARK    9  A    between atoms: C_12  and  C_13
REMARK   10  A    between atoms: C_13  and  C_14
REMARK   11  A    between atoms: C_14  and  N_15
REMARK                            x       y       z     vdW  Elec       q    Type
REMARK                         _______ _______ _______ _____ _____    ______ ____
ROOT
ATOM      1  C   UNL     1      35.508 -21.980 -19.555  0.00  0.00    -0.000 C 
ENDROOT
BRANCH   1   2
ATOM      2  C   UNL     1      34.035 -21.926 -19.140  0.00  0.00    -0.000 C 
BRANCH   2   3
ATOM      3  C   UNL     1      33.250 -20.812 -19.842  0.00  0.00    -0.002 C 
BRANCH   3   4
ATOM      4  C   UNL     1      34.048 -20.115 -20.948  0.00  0.00    -0.022 C 
BRANCH   4   5
ATOM      5  C   UNL     1      33.705 -18.638 -21.100  0.00  0.00    -0.073 C 
BRANCH   5   6
ATOM      6  N   UNL     1      34.872 -17.880 -21.606  0.00  0.00    +0.386 N 
ATOM      7  C   UNL     1      34.907 -16.464 -21.010  0.00  0.00    -0.096 C 
ATOM      8  C   UNL     1      36.185 -18.584 -21.236  0.00  0.00    -0.096 C 
ATOM      9  C   UNL     1      34.819 -17.749 -23.136  0.00  0.00    -0.096 C 
ENDBRANCH   5   6
ENDBRANCH   4   5
ENDBRANCH   3   4
ENDBRANCH   2   3
ENDBRANCH   1   2
BRANCH   1  10
ATOM     10  C   UNL     1      36.467 -21.537 -18.444  0.00  0.00    -0.000 C 
BRANCH  10  11
ATOM     11  C   UNL     1      36.158 -22.176 -17.088  0.00  0.00    -0.000 C 
BRANCH  11  12
ATOM     12  C   UNL     1      37.421 -22.286 -16.229  0.00  0.00    -0.002 C 
BRANCH  12  13
ATOM     13  C   UNL     1      37.151 -23.076 -14.945  0.00  0.00    -0.022 C 
BRANCH  13  14
ATOM     14  C   UNL     1      37.222 -24.586 -15.136  0.00  0.00    -0.073 C 
BRANCH  14  15
ATOM     15  N   UNL     1      37.409 -25.271 -13.836  0.00  0.00    +0.386 N 
ATOM     16  C   UNL     1      38.823 -25.031 -13.288  0.00  0.00    -0.096 C 
ATOM     17  C   UNL     1      36.403 -24.755 -12.796  0.00  0.00    -0.096 C 
ATOM     18  C   UNL     1      37.207 -26.787 -13.982  0.00  0.00    -0.096 C 
ENDBRANCH  14  15
ENDBRANCH  13  14
ENDBRANCH  12  13
ENDBRANCH  11  12
ENDBRANCH  10  11
ENDBRANCH   1  10
TORSDOF 11
ENDMDL
MODEL 3
REMARK VINA RESULT:      -6.4      1.423      1.994
REMARK  Name = 2968
REMARK  11 active torsions:
REMARK  status: ('A' for Active; 'I' for Inactive)
REMARK    1  A    between atoms: C_1  and  C_2
REMARK    2  A    between atoms: C_1  and  C_10
REMARK    3  A    between atoms: C_2  and  C_3
REMARK    4  A    between atoms: C_3  and  C_4
REMARK    5  A    between atoms: C_4  and  C_5
REMARK    6  A    between atoms: C_5  and  N_6
REMARK    7  A    between atoms: C_10  and  C_11
REMARK    8  A    between atoms: C_11  and  C_12
REMARK    9  A    between atoms: C_12  and  C_13
REMARK   10  A    between atoms: C_13  and  C_14
REMARK   11  A    between atoms: C_14  and  N_15
REMARK                            x       y       z     vdW  Elec       q    Type
REMARK                         _______ _______ _______ _____ _____    ______ ____
ROOT
ATOM      1  C   UNL     1      33.059 -22.661 -17.918  0.00  0.00    -0.000 C 
ENDROOT
BRANCH   1   2
ATOM      2  C   UNL     1      33.421 -23.358 -16.604  0.00  0.00    -0.000 C 
BRANCH   2   3
ATOM      3  C   UNL     1      34.876 -23.127 -16.178  0.00  0.00    -0.002 C 
BRANCH   3   4
ATOM      4  C   UNL     1      35.132 -23.455 -14.703  0.00  0.00    -0.022 C 
BRANCH   4   5
ATOM      5  C   UNL     1      35.702 -24.852 -14.487  0.00  0.00    -0.073 C 
BRANCH   5   6
ATOM      6  N   UNL     1      36.969 -24.787 -13.723  0.00  0.00    +0.386 N 
ATOM      7  C   UNL     1      37.184 -26.072 -12.908  0.00  0.00    -0.096 C 
ATOM      8  C   UNL     1      38.168 -24.616 -14.666  0.00  0.00    -0.096 C 
ATOM      9  C   UNL     1      36.959 -23.602 -12.746  0.00  0.00    -0.096 C 
ENDBRANCH   5   6
ENDBRANCH   4   5
ENDBRANCH   3   4
ENDBRANCH   2   3
ENDBRANCH   1   2
BRANCH   1  10
ATOM     10  C   UNL     1      34.195 -22.682 -18.947  0.00  0.00    -0.000 C 
BRANCH  10  11
ATOM     11  C   UNL     1      34.382 -21.347 -19.672  0.00  0.00    -0.000 C 
BRANCH  11  12
ATOM     12  C   UNL     1      33.033 -20.675 -19.949  0.00  0.00    -0.002 C 
BRANCH  12  13
ATOM     13  C   UNL     1      33.211 -19.394 -20.769  0.00  0.00    -0.022 C 
BRANCH  13  14
ATOM     14  C   UNL     1      34.176 -19.550 -21.937  0.00  0.00    -0.073 C 
BRANCH  14  15
ATOM     15  N   UNL     1      35.074 -18.376 -22.037  0.00  0.00    +0.386 N 
ATOM     16  C   UNL     1      34.465 -17.158 -21.327  0.00  0.00    -0.096 C 
ATOM     17  C   UNL     1      36.435 -18.672 -21.388  0.00  0.00    -0.096 C 
ATOM     18  C   UNL     1      35.320 -17.997 -23.505  0.00  0.00    -0.096 C 
ENDBRANCH  14  15
ENDBRANCH  13  14
ENDBRANCH  12  13
ENDBRANCH  11  12
ENDBRANCH  10  11
ENDBRANCH   1  10
TORSDOF 11
ENDMDL
MODEL 4
REMARK VINA RESULT:      -6.3      6.424     10.324
REMARK  Name = 2968
REMARK  11 active torsions:
REMARK  status: ('A' for Active; 'I' for Inactive)
REMARK    1  A    between atoms: C_1  and  C_2
REMARK    2  A    between atoms: C_1  and  C_10
REMARK    3  A    between atoms: C_2  and  C_3
REMARK    4  A    between atoms: C_3  and  C_4
REMARK    5  A    between atoms: C_4  and  C_5
REMARK    6  A    between atoms: C_5  and  N_6
REMARK    7  A    between atoms: C_10  and  C_11
REMARK    8  A    between atoms: C_11  and  C_12
REMARK    9  A    between atoms: C_12  and  C_13
REMARK   10  A    between atoms: C_13  and  C_14
REMARK   11  A    between atoms: C_14  and  N_15
REMARK                            x       y       z     vdW  Elec       q    Type
REMARK                         _______ _______ _______ _____ _____    ______ ____
ROOT
ATOM      1  C   UNL     1      32.288 -13.240 -21.554  0.00  0.00    -0.000 C 
ENDROOT
BRANCH   1   2
ATOM      2  C   UNL     1      32.750 -14.691 -21.401  0.00  0.00    -0.000 C 
BRANCH   2   3
ATOM      3  C   UNL     1      34.207 -14.816 -20.939  0.00  0.00    -0.002 C 
BRANCH   3   4
ATOM      4  C   UNL     1      34.698 -16.266 -20.875  0.00  0.00    -0.022 C 
BRANCH   4   5
ATOM      5  C   UNL     1      34.347 -17.077 -22.117  0.00  0.00    -0.073 C 
BRANCH   5   6
ATOM      6  N   UNL     1      34.776 -18.486 -21.959  0.00  0.00    +0.386 N 
ATOM      7  C   UNL     1      34.857 -19.190 -23.323  0.00  0.00    -0.096 C 
ATOM      8  C   UNL     1      36.160 -18.566 -21.300  0.00  0.00    -0.096 C 
ATOM      9  C   UNL     1      33.785 -19.264 -21.081  0.00  0.00    -0.096 C 
ENDBRANCH   5   6
ENDBRANCH   4   5
ENDBRANCH   3   4
ENDBRANCH   2   3
ENDBRANCH   1   2
BRANCH   1  10
ATOM     10  C   UNL     1      31.934 -12.573 -20.220  0.00  0.00    -0.000 C 
BRANCH  10  11
ATOM     11  C   UNL     1      31.216 -11.232 -20.385  0.00  0.00    -0.000 C 
BRANCH  11  12
ATOM     12  C   UNL     1      31.760 -10.189 -19.404  0.00  0.00    -0.002 C 
BRANCH  12  13
ATOM     13  C   UNL     1      32.159  -8.901 -20.130  0.00  0.00    -0.022 C 
BRANCH  13  14
ATOM     14  C   UNL     1      31.907  -8.948 -21.632  0.00  0.00    -0.073 C 
BRANCH  14  15
ATOM     15  N   UNL     1      32.132  -7.618 -22.244  0.00  0.00    +0.386 N 
ATOM     16  C   UNL     1      31.224  -7.417 -23.466  0.00  0.00    -0.096 C 
ATOM     17  C   UNL     1      31.829  -6.496 -21.239  0.00  0.00    -0.096 C 
ATOM     18  C   UNL     1      33.589  -7.465 -22.704  0.00  0.00    -0.096 C 
ENDBRANCH  14  15
ENDBRANCH  13  14
ENDBRANCH  12  13
ENDBRANCH  11  12
ENDBRANCH  10  11
ENDBRANCH   1  10
TORSDOF 11
ENDMDL
MODEL 5
REMARK VINA RESULT:      -6.3      6.273     12.517
REMARK  Name = 2968
REMARK  11 active torsions:
REMARK  status: ('A' for Active; 'I' for Inactive)
REMARK    1  A    between atoms: C_1  and  C_2
REMARK    2  A    between atoms: C_1  and  C_10
REMARK    3  A    between atoms: C_2  and  C_3
REMARK    4  A    between atoms: C_3  and  C_4
REMARK    5  A    between atoms: C_4  and  C_5
REMARK    6  A    between atoms: C_5  and  N_6
REMARK    7  A    between atoms: C_10  and  C_11
REMARK    8  A    between atoms: C_11  and  C_12
REMARK    9  A    between atoms: C_12  and  C_13
REMARK   10  A    between atoms: C_13  and  C_14
REMARK   11  A    between atoms: C_14  and  N_15
REMARK                            x       y       z     vdW  Elec       q    Type
REMARK                         _______ _______ _______ _____ _____    ______ ____
ROOT
ATOM      1  C   UNL     1      32.131 -12.870 -20.715  0.00  0.00    -0.000 C 
ENDROOT
BRANCH   1   2
ATOM      2  C   UNL     1      31.248 -11.619 -20.704  0.00  0.00    -0.000 C 
BRANCH   2   3
ATOM      3  C   UNL     1      31.564 -10.667 -19.544  0.00  0.00    -0.002 C 
BRANCH   3   4
ATOM      4  C   UNL     1      32.027  -9.283 -20.008  0.00  0.00    -0.022 C 
BRANCH   4   5
ATOM      5  C   UNL     1      31.994  -9.113 -21.523  0.00  0.00    -0.073 C 
BRANCH   5   6
ATOM      6  N   UNL     1      32.218  -7.697 -21.895  0.00  0.00    +0.386 N 
ATOM      7  C   UNL     1      32.153  -6.789 -20.657  0.00  0.00    -0.096 C 
ATOM      8  C   UNL     1      33.595  -7.514 -22.547  0.00  0.00    -0.096 C 
ATOM      9  C   UNL     1      31.152  -7.217 -22.891  0.00  0.00    -0.096 C 
ENDBRANCH   5   6
ENDBRANCH   4   5
ENDBRANCH   3   4
ENDBRANCH   2   3
ENDBRANCH   1   2
BRANCH   1  10
ATOM     10  C   UNL     1      32.296 -13.482 -22.110  0.00  0.00    -0.000 C 
BRANCH  10  11
ATOM     11  C   UNL     1      33.410 -14.528 -22.186  0.00  0.00    -0.000 C 
BRANCH  11  12
ATOM     12  C   UNL     1      33.982 -14.828 -20.797  0.00  0.00    -0.002 C 
BRANCH  12  13
ATOM     13  C   UNL     1      34.731 -16.164 -20.783  0.00  0.00    -0.022 C 
BRANCH  13  14
ATOM     14  C   UNL     1      34.880 -16.791 -22.164  0.00  0.00    -0.073 C 
BRANCH  14  15
ATOM     15  N   UNL     1      34.988 -18.264 -22.063  0.00  0.00    +0.386 N 
ATOM     16  C   UNL     1      36.358 -18.677 -21.505  0.00  0.00    -0.096 C 
ATOM     17  C   UNL     1      33.906 -18.829 -21.130  0.00  0.00    -0.096 C 
ATOM     18  C   UNL     1      34.819 -18.922 -23.441  0.00  0.00    -0.096 C 
ENDBRANCH  14  15
ENDBRANCH  13  14
ENDBRANCH  12  13
ENDBRANCH  11  12
ENDBRANCH  10  11
ENDBRANCH   1  10
TORSDOF 11
ENDMDL
MODEL 6
REMARK VINA RESULT:      -6.2      5.645      9.711
REMARK  Name = 2968
REMARK  11 active torsions:
REMARK  status: ('A' for Active; 'I' for Inactive)
REMARK    1  A    between atoms: C_1  and  C_2
REMARK    2  A    between atoms: C_1  and  C_10
REMARK    3  A    between atoms: C_2  and  C_3
REMARK    4  A    between atoms: C_3  and  C_4
REMARK    5  A    between atoms: C_4  and  C_5
REMARK    6  A    between atoms: C_5  and  N_6
REMARK    7  A    between atoms: C_10  and  C_11
REMARK    8  A    between atoms: C_11  and  C_12
REMARK    9  A    between atoms: C_12  and  C_13
REMARK   10  A    between atoms: C_13  and  C_14
REMARK   11  A    between atoms: C_14  and  N_15
REMARK                            x       y       z     vdW  Elec       q    Type
REMARK                         _______ _______ _______ _____ _____    ______ ____
ROOT
ATOM      1  C   UNL     1      33.707 -15.419 -24.430  0.00  0.00    -0.000 C 
ENDROOT
BRANCH   1   2
ATOM      2  C   UNL     1      34.823 -16.417 -24.753  0.00  0.00    -0.000 C 
BRANCH   2   3
ATOM      3  C   UNL     1      34.302 -17.823 -25.073  0.00  0.00    -0.002 C 
BRANCH   3   4
ATOM      4  C   UNL     1      34.797 -18.888 -24.090  0.00  0.00    -0.022 C 
BRANCH   4   5
ATOM      5  C   UNL     1      35.836 -18.364 -23.107  0.00  0.00    -0.073 C 
BRANCH   5   6
ATOM      6  N   UNL     1      35.370 -18.539 -21.712  0.00  0.00    +0.386 N 
ATOM      7  C   UNL     1      34.991 -17.187 -21.088  0.00  0.00    -0.096 C 
ATOM      8  C   UNL     1      34.135 -19.450 -21.657  0.00  0.00    -0.096 C 
ATOM      9  C   UNL     1      36.467 -19.171 -20.842  0.00  0.00    -0.096 C 
ENDBRANCH   5   6
ENDBRANCH   4   5
ENDBRANCH   3   4
ENDBRANCH   2   3
ENDBRANCH   1   2
BRANCH   1  10
ATOM     10  C   UNL     1      34.163 -14.276 -23.516  0.00  0.00    -0.000 C 
BRANCH  10  11
ATOM     11  C   UNL     1      33.296 -13.021 -23.637  0.00  0.00    -0.000 C 
BRANCH  11  12
ATOM     12  C   UNL     1      33.873 -12.047 -24.669  0.00  0.00    -0.002 C 
BRANCH  12  13
ATOM     13  C   UNL     1      33.920 -10.619 -24.117  0.00  0.00    -0.022 C 
BRANCH  13  14
ATOM     14  C   UNL     1      32.760 -10.290 -23.186  0.00  0.00    -0.073 C 
BRANCH  14  15
ATOM     15  N   UNL     1      32.706  -8.836 -22.909  0.00  0.00    +0.386 N 
ATOM     16  C   UNL     1      34.034  -8.158 -23.277  0.00  0.00    -0.096 C 
ATOM     17  C   UNL     1      31.589  -8.165 -23.724  0.00  0.00    -0.096 C 
ATOM     18  C   UNL     1      32.433  -8.572 -21.421  0.00  0.00    -0.096 C 
ENDBRANCH  14  15
ENDBRANCH  13  14
ENDBRANCH  12  13
ENDBRANCH  11  12
ENDBRANCH  10  11
ENDBRANCH   1  10
TORSDOF 11
ENDMDL
MODEL 7
REMARK VINA RESULT:      -6.1      5.801      9.926
REMARK  Name = 2968
REMARK  11 active torsions:
REMARK  status: ('A' for Active; 'I' for Inactive)
REMARK    1  A    between atoms: C_1  and  C_2
REMARK    2  A    between atoms: C_1  and  C_10
REMARK    3  A    between atoms: C_2  and  C_3
REMARK    4  A    between atoms: C_3  and  C_4
REMARK    5  A    between atoms: C_4  and  C_5
REMARK    6  A    between atoms: C_5  and  N_6
REMARK    7  A    between atoms: C_10  and  C_11
REMARK    8  A    between atoms: C_11  and  C_12
REMARK    9  A    between atoms: C_12  and  C_13
REMARK   10  A    between atoms: C_13  and  C_14
REMARK   11  A    between atoms: C_14  and  N_15
REMARK                            x       y       z     vdW  Elec       q    Type
REMARK                         _______ _______ _______ _____ _____    ______ ____
ROOT
ATOM      1  C   UNL     1      32.329 -13.986 -21.847  0.00  0.00    -0.000 C 
ENDROOT
BRANCH   1   2
ATOM      2  C   UNL     1      32.900 -14.841 -20.712  0.00  0.00    -0.000 C 
BRANCH   2   3
ATOM      3  C   UNL     1      34.429 -14.959 -20.755  0.00  0.00    -0.002 C 
BRANCH   3   4
ATOM      4  C   UNL     1      34.922 -16.409 -20.776  0.00  0.00    -0.022 C 
BRANCH   4   5
ATOM      5  C   UNL     1      34.035 -17.335 -21.600  0.00  0.00    -0.073 C 
BRANCH   5   6
ATOM      6  N   UNL     1      34.654 -18.675 -21.726  0.00  0.00    +0.386 N 
ATOM      7  C   UNL     1      36.077 -18.678 -21.147  0.00  0.00    -0.096 C 
ATOM      8  C   UNL     1      33.832 -19.731 -20.972  0.00  0.00    -0.096 C 
ATOM      9  C   UNL     1      34.740 -19.103 -23.199  0.00  0.00    -0.096 C 
ENDBRANCH   5   6
ENDBRANCH   4   5
ENDBRANCH   3   4
ENDBRANCH   2   3
ENDBRANCH   1   2
BRANCH   1  10
ATOM     10  C   UNL     1      33.252 -13.904 -23.067  0.00  0.00    -0.000 C 
BRANCH  10  11
ATOM     11  C   UNL     1      33.435 -12.480 -23.595  0.00  0.00    -0.000 C 
BRANCH  11  12
ATOM     12  C   UNL     1      32.517 -11.497 -22.862  0.00  0.00    -0.002 C 
BRANCH  12  13
ATOM     13  C   UNL     1      32.761 -10.058 -23.329  0.00  0.00    -0.022 C 
BRANCH  13  14
ATOM     14  C   UNL     1      31.692  -9.079 -22.859  0.00  0.00    -0.073 C 
BRANCH  14  15
ATOM     15  N   UNL     1      32.302  -7.959 -22.105  0.00  0.00    +0.386 N 
ATOM     16  C   UNL     1      31.432  -6.697 -22.201  0.00  0.00    -0.096 C 
ATOM     17  C   UNL     1      32.452  -8.319 -20.619  0.00  0.00    -0.096 C 
ATOM     18  C   UNL     1      33.694  -7.621 -22.656  0.00  0.00    -0.096 C 
ENDBRANCH  14  15
ENDBRANCH  13  14
ENDBRANCH  12  13
ENDBRANCH  11  12
ENDBRANCH  10  11
ENDBRANCH   1  10
TORSDOF 11
ENDMDL
MODEL 8
REMARK VINA RESULT:      -6.1      1.447      2.267
REMARK  Name = 2968
REMARK  11 active torsions:
REMARK  status: ('A' for Active; 'I' for Inactive)
REMARK    1  A    between atoms: C_1  and  C_2
REMARK    2  A    between atoms: C_1  and  C_10
REMARK    3  A    between atoms: C_2  and  C_3
REMARK    4  A    between atoms: C_3  and  C_4
REMARK    5  A    between atoms: C_4  and  C_5
REMARK    6  A    between atoms: C_5  and  N_6
REMARK    7  A    between atoms: C_10  and  C_11
REMARK    8  A    between atoms: C_11  and  C_12
REMARK    9  A    between atoms: C_12  and  C_13
REMARK   10  A    between atoms: C_13  and  C_14
REMARK   11  A    between atoms: C_14  and  N_15
REMARK                            x       y       z     vdW  Elec       q    Type
REMARK                         _______ _______ _______ _____ _____    ______ ____
ROOT
ATOM      1  C   UNL     1      34.992 -21.965 -19.657  0.00  0.00    -0.000 C 
ENDROOT
BRANCH   1   2
ATOM      2  C   UNL     1      35.299 -22.067 -18.160  0.00  0.00    -0.000 C 
BRANCH   2   3
ATOM      3  C   UNL     1      36.758 -21.738 -17.819  0.00  0.00    -0.002 C 
BRANCH   3   4
ATOM      4  C   UNL     1      37.159 -22.170 -16.405  0.00  0.00    -0.022 C 
BRANCH   4   5
ATOM      5  C   UNL     1      35.985 -22.671 -15.572  0.00  0.00    -0.073 C 
BRANCH   5   6
ATOM      6  N   UNL     1      36.402 -23.798 -14.706  0.00  0.00    +0.386 N 
ATOM      7  C   UNL     1      35.533 -25.038 -14.964  0.00  0.00    -0.096 C 
ATOM      8  C   UNL     1      37.866 -24.180 -14.973  0.00  0.00    -0.096 C 
ATOM      9  C   UNL     1      36.271 -23.427 -13.222  0.00  0.00    -0.096 C 
ENDBRANCH   5   6
ENDBRANCH   4   5
ENDBRANCH   3   4
ENDBRANCH   2   3
ENDBRANCH   1   2
BRANCH   1  10
ATOM     10  C   UNL     1      35.392 -20.617 -20.266  0.00  0.00    -0.000 C 
BRANCH  10  11
ATOM     11  C   UNL     1      34.197 -19.794 -20.755  0.00  0.00    -0.000 C 
BRANCH  11  12
ATOM     12  C   UNL     1      34.416 -19.298 -22.187  0.00  0.00    -0.002 C 
BRANCH  12  13
ATOM     13  C   UNL     1      35.256 -18.017 -22.208  0.00  0.00    -0.022 C 
BRANCH  13  14
ATOM     14  C   UNL     1      34.964 -17.082 -21.041  0.00  0.00    -0.073 C 
BRANCH  14  15
ATOM     15  N   UNL     1      34.118 -15.948 -21.476  0.00  0.00    +0.386 N 
ATOM     16  C   UNL     1      34.604 -14.631 -20.852  0.00  0.00    -0.096 C 
ATOM     17  C   UNL     1      34.156 -15.791 -23.004  0.00  0.00    -0.096 C 
ATOM     18  C   UNL     1      32.656 -16.161 -21.056  0.00  0.00    -0.096 C 
ENDBRANCH  14  15
ENDBRANCH  13  14
ENDBRANCH  12  13
ENDBRANCH  11  12
ENDBRANCH  10  11
ENDBRANCH   1  10
TORSDOF 11
ENDMDL
MODEL 9
REMARK VINA RESULT:      -6.1      4.016      5.192
REMARK  Name = 2968
REMARK  11 active torsions:
REMARK  status: ('A' for Active; 'I' for Inactive)
REMARK    1  A    between atoms: C_1  and  C_2
REMARK    2  A    between atoms: C_1  and  C_10
REMARK    3  A    between atoms: C_2  and  C_3
REMARK    4  A    between atoms: C_3  and  C_4
REMARK    5  A    between atoms: C_4  and  C_5
REMARK    6  A    between atoms: C_5  and  N_6
REMARK    7  A    between atoms: C_10  and  C_11
REMARK    8  A    between atoms: C_11  and  C_12
REMARK    9  A    between atoms: C_12  and  C_13
REMARK   10  A    between atoms: C_13  and  C_14
REMARK   11  A    between atoms: C_14  and  N_15
REMARK                            x       y       z     vdW  Elec       q    Type
REMARK                         _______ _______ _______ _____ _____    ______ ____
ROOT
ATOM      1  C   UNL     1      33.917 -23.608 -16.898  0.00  0.00    -0.000 C 
ENDROOT
BRANCH   1   2
ATOM      2  C   UNL     1      33.830 -23.194 -15.426  0.00  0.00    -0.000 C 
BRANCH   2   3
ATOM      3  C   UNL     1      32.389 -23.005 -14.936  0.00  0.00    -0.002 C 
BRANCH   3   4
ATOM      4  C   UNL     1      31.362 -23.777 -15.769  0.00  0.00    -0.022 C 
BRANCH   4   5
ATOM      5  C   UNL     1      30.324 -22.878 -16.431  0.00  0.00    -0.073 C 
BRANCH   5   6
ATOM      6  N   UNL     1      28.957 -23.254 -16.003  0.00  0.00    +0.386 N 
ATOM      7  C   UNL     1      28.975 -24.566 -15.204  0.00  0.00    -0.096 C 
ATOM      8  C   UNL     1      28.343 -22.164 -15.114  0.00  0.00    -0.096 C 
ATOM      9  C   UNL     1      28.038 -23.451 -17.218  0.00  0.00    -0.096 C 
ENDBRANCH   5   6
ENDBRANCH   4   5
ENDBRANCH   3   4
ENDBRANCH   2   3
ENDBRANCH   1   2
BRANCH   1  10
ATOM     10  C   UNL     1      34.505 -22.518 -17.800  0.00  0.00    -0.000 C 
BRANCH  10  11
ATOM     11  C   UNL     1      33.973 -22.564 -19.234  0.00  0.00    -0.000 C 
BRANCH  11  12
ATOM     12  C   UNL     1      33.429 -21.199 -19.666  0.00  0.00    -0.002 C 
BRANCH  12  13
ATOM     13  C   UNL     1      34.441 -20.452 -20.541  0.00  0.00    -0.022 C 
BRANCH  13  14
ATOM     14  C   UNL     1      33.911 -19.134 -21.091  0.00  0.00    -0.073 C 
BRANCH  14  15
ATOM     15  N   UNL     1      35.024 -18.271 -21.550  0.00  0.00    +0.386 N 
ATOM     16  C   UNL     1      36.379 -18.846 -21.111  0.00  0.00    -0.096 C 
ATOM     17  C   UNL     1      35.031 -18.157 -23.082  0.00  0.00    -0.096 C 
ATOM     18  C   UNL     1      34.897 -16.856 -20.968  0.00  0.00    -0.096 C 
ENDBRANCH  14  15
ENDBRANCH  13  14
ENDBRANCH  12  13
ENDBRANCH  11  12
ENDBRANCH  10  11
ENDBRANCH   1  10
TORSDOF 11
ENDMDL
