MODEL 1
REMARK VINA RESULT:      -6.8      0.000      0.000
REMARK  Name = 1783
REMARK  8 active torsions:
REMARK  status: ('A' for Active; 'I' for Inactive)
REMARK    1  A    between atoms: N_1  and  C_18
REMARK    2  A    between atoms: C_3  and  C_6
REMARK    3  A    between atoms: C_4  and  S_9
REMARK    4  A    between atoms: C_5  and  C_25
REMARK    5  A    between atoms: S_9  and  C_12
REMARK    6  A    between atoms: C_18  and  C_20
REMARK    7  A    between atoms: C_25  and  O_26
REMARK    8  A    between atoms: O_26  and  C_29
REMARK                            x       y       z     vdW  Elec       q    Type
REMARK                         _______ _______ _______ _____ _____    ______ ____
ROOT
ATOM      1  N   UNL     1      34.668 -23.475 -15.923  0.00  0.00    -0.267 N 
ATOM      2  N   UNL     1      32.794 -23.163 -14.773  0.00  0.00    -0.394 NA
ATOM      3  C   UNL     1      32.501 -23.525 -16.063  0.00  0.00    +0.116 C 
ATOM      4  C   UNL     1      33.641 -23.712 -16.754  0.00  0.00    +0.176 C 
ATOM      5  C   UNL     1      34.108 -23.143 -14.721  0.00  0.00    +0.205 C 
ENDROOT
BRANCH   3   6
ATOM      6  C   UNL     1      31.098 -23.649 -16.493  0.00  0.00    +0.051 C 
ATOM      7  C   UNL     1      30.302 -24.717 -15.707  0.00  0.00    +0.007 C 
ATOM      8  C   UNL     1      30.320 -22.312 -16.458  0.00  0.00    +0.007 C 
ENDBRANCH   3   6
BRANCH   4   9
ATOM      9  S   UNL     1      33.914 -24.178 -18.441  0.00  0.00    -0.088 S 
BRANCH   9  12
ATOM     10 CL   UNL     1      37.349 -20.231 -19.967  0.00  0.00    -0.082 Cl
ATOM     11 CL   UNL     1      32.028 -19.482 -20.466  0.00  0.00    -0.082 Cl
ATOM     12  C   UNL     1      34.206 -22.552 -19.109  0.00  0.00    +0.029 C 
ATOM     13  C   UNL     1      33.128 -21.748 -19.482  0.00  0.00    +0.018 C 
ATOM     14  C   UNL     1      35.511 -22.083 -19.258  0.00  0.00    +0.018 C 
ATOM     15  C   UNL     1      35.739 -20.810 -19.781  0.00  0.00    +0.059 C 
ATOM     16  C   UNL     1      33.357 -20.475 -20.005  0.00  0.00    +0.059 C 
ATOM     17  C   UNL     1      34.662 -20.006 -20.155  0.00  0.00    +0.023 C 
ENDBRANCH   9  12
ENDBRANCH   4   9
BRANCH   1  18
ATOM     18  C   UNL     1      36.089 -23.543 -16.194  0.00  0.00    +0.121 C 
BRANCH  18  20
ATOM     19  N   UNL     1      37.984 -26.591 -13.852  0.00  0.00    -0.242 NA
ATOM     20  C   UNL     1      36.754 -24.613 -15.371  0.00  0.00    +0.001 C 
ATOM     21  C   UNL     1      36.138 -25.844 -15.221  0.00  0.00    +0.018 C 
ATOM     22  C   UNL     1      37.976 -24.357 -14.773  0.00  0.00    +0.018 C 
ATOM     23  C   UNL     1      36.792 -26.795 -14.456  0.00  0.00    +0.099 C 
ATOM     24  C   UNL     1      38.547 -25.374 -14.027  0.00  0.00    +0.099 C 
ENDBRANCH  18  20
ENDBRANCH   1  18
BRANCH   5  25
ATOM     25  C   UNL     1      34.923 -22.807 -13.535  0.00  0.00    +0.284 C 
BRANCH  25  26
ATOM     26  O   UNL     1      34.663 -23.790 -12.535  0.00  0.00    -0.425 OA
BRANCH  26  29
ATOM     27  O   UNL     1      35.873 -25.271 -11.255  0.00  0.00    -0.227 OA
ATOM     28  N   UNL     1      36.650 -23.151 -11.687  0.00  0.00    -0.295 N 
ATOM     29  C   UNL     1      35.736 -24.172 -11.780  0.00  0.00    +0.399 C 
ATOM     30  H   UNL     1      36.475 -22.292 -12.135  0.00  0.00    +0.148 HD
ATOM     31  H   UNL     1      37.479 -23.278 -11.173  0.00  0.00    +0.148 HD
ENDBRANCH  26  29
ENDBRANCH  25  26
ENDBRANCH   5  25
TORSDOF 8
ENDMDL
MODEL 2
REMARK VINA RESULT:      -5.9      2.029      4.832
REMARK  Name = 1783
REMARK  8 active torsions:
REMARK  status: ('A' for Active; 'I' for Inactive)
REMARK    1  A    between atoms: N_1  and  C_18
REMARK    2  A    between atoms: C_3  and  C_6
REMARK    3  A    between atoms: C_4  and  S_9
REMARK    4  A    between atoms: C_5  and  C_25
REMARK    5  A    between atoms: S_9  and  C_12
REMARK    6  A    between atoms: C_18  and  C_20
REMARK    7  A    between atoms: C_25  and  O_26
REMARK    8  A    between atoms: O_26  and  C_29
REMARK                            x       y       z     vdW  Elec       q    Type
REMARK                         _______ _______ _______ _____ _____    ______ ____
ROOT
ATOM      1  N   UNL     1      32.691 -22.999 -16.495  0.00  0.00    -0.267 N 
ATOM      2  N   UNL     1      34.210 -22.909 -14.879  0.00  0.00    -0.394 NA
ATOM      3  C   UNL     1      34.790 -23.330 -16.048  0.00  0.00    +0.116 C 
ATOM      4  C   UNL     1      33.864 -23.382 -17.023  0.00  0.00    +0.176 C 
ATOM      5  C   UNL     1      32.945 -22.717 -15.182  0.00  0.00    +0.205 C 
ENDROOT
BRANCH   3   6
ATOM      6  C   UNL     1      36.228 -23.648 -16.084  0.00  0.00    +0.051 C 
ATOM      7  C   UNL     1      37.133 -22.403 -16.241  0.00  0.00    +0.007 C 
ATOM      8  C   UNL     1      36.710 -24.473 -14.867  0.00  0.00    +0.007 C 
ENDBRANCH   3   6
BRANCH   4   9
ATOM      9  S   UNL     1      33.996 -23.848 -18.727  0.00  0.00    -0.088 S 
BRANCH   9  12
ATOM     10 CL   UNL     1      37.404 -19.930 -20.385  0.00  0.00    -0.082 Cl
ATOM     11 CL   UNL     1      32.074 -19.148 -20.709  0.00  0.00    -0.082 Cl
ATOM     12  C   UNL     1      34.276 -22.226 -19.411  0.00  0.00    +0.029 C 
ATOM     13  C   UNL     1      33.192 -21.416 -19.752  0.00  0.00    +0.018 C 
ATOM     14  C   UNL     1      35.578 -21.767 -19.606  0.00  0.00    +0.018 C 
ATOM     15  C   UNL     1      35.797 -20.498 -20.143  0.00  0.00    +0.059 C 
ATOM     16  C   UNL     1      33.411 -20.147 -20.289  0.00  0.00    +0.059 C 
ATOM     17  C   UNL     1      34.714 -19.688 -20.484  0.00  0.00    +0.023 C 
ENDBRANCH   9  12
ENDBRANCH   4   9
BRANCH   1  18
ATOM     18  C   UNL     1      31.399 -22.889 -17.140  0.00  0.00    +0.121 C 
BRANCH  18  20
ATOM     19  N   UNL     1      28.379 -25.009 -14.958  0.00  0.00    -0.242 NA
ATOM     20  C   UNL     1      30.339 -23.634 -16.374  0.00  0.00    +0.001 C 
ATOM     21  C   UNL     1      30.485 -24.990 -16.144  0.00  0.00    +0.018 C 
ATOM     22  C   UNL     1      29.228 -22.954 -15.906  0.00  0.00    +0.018 C 
ATOM     23  C   UNL     1      29.482 -25.629 -15.433  0.00  0.00    +0.099 C 
ATOM     24  C   UNL     1      28.281 -23.683 -15.206  0.00  0.00    +0.099 C 
ENDBRANCH  18  20
ENDBRANCH   1  18
BRANCH   5  25
ATOM     25  C   UNL     1      31.891 -22.258 -14.254  0.00  0.00    +0.284 C 
BRANCH  25  26
ATOM     26  O   UNL     1      32.090 -22.919 -13.007  0.00  0.00    -0.425 OA
BRANCH  26  29
ATOM     27  O   UNL     1      30.402 -24.386 -12.460  0.00  0.00    -0.227 OA
ATOM     28  N   UNL     1      32.396 -25.127 -13.330  0.00  0.00    -0.295 N 
ATOM     29  C   UNL     1      31.526 -24.159 -12.892  0.00  0.00    +0.399 C 
ATOM     30  H   UNL     1      33.287 -24.874 -13.665  0.00  0.00    +0.148 HD
ATOM     31  H   UNL     1      32.130 -26.074 -13.309  0.00  0.00    +0.148 HD
ENDBRANCH  26  29
ENDBRANCH  25  26
ENDBRANCH   5  25
TORSDOF 8
ENDMDL
MODEL 3
REMARK VINA RESULT:      -5.9      2.966      5.300
REMARK  Name = 1783
REMARK  8 active torsions:
REMARK  status: ('A' for Active; 'I' for Inactive)
REMARK    1  A    between atoms: N_1  and  C_18
REMARK    2  A    between atoms: C_3  and  C_6
REMARK    3  A    between atoms: C_4  and  S_9
REMARK    4  A    between atoms: C_5  and  C_25
REMARK    5  A    between atoms: S_9  and  C_12
REMARK    6  A    between atoms: C_18  and  C_20
REMARK    7  A    between atoms: C_25  and  O_26
REMARK    8  A    between atoms: O_26  and  C_29
REMARK                            x       y       z     vdW  Elec       q    Type
REMARK                         _______ _______ _______ _____ _____    ______ ____
ROOT
ATOM      1  N   UNL     1      34.145 -24.265 -14.531  0.00  0.00    -0.267 N 
ATOM      2  N   UNL     1      34.839 -24.254 -16.639  0.00  0.00    -0.394 NA
ATOM      3  C   UNL     1      33.930 -23.246 -16.437  0.00  0.00    +0.116 C 
ATOM      4  C   UNL     1      33.514 -23.259 -15.158  0.00  0.00    +0.176 C 
ATOM      5  C   UNL     1      34.946 -24.848 -15.471  0.00  0.00    +0.205 C 
ENDROOT
BRANCH   3   6
ATOM      6  C   UNL     1      33.556 -22.358 -17.550  0.00  0.00    +0.051 C 
ATOM      7  C   UNL     1      34.530 -22.426 -18.751  0.00  0.00    +0.007 C 
ATOM      8  C   UNL     1      32.111 -22.578 -18.059  0.00  0.00    +0.007 C 
ENDBRANCH   3   6
BRANCH   4   9
ATOM      9  S   UNL     1      32.360 -22.224 -14.301  0.00  0.00    -0.088 S 
BRANCH   9  12
ATOM     10 CL   UNL     1      27.661 -21.935 -17.047  0.00  0.00    -0.082 Cl
ATOM     11 CL   UNL     1      29.074 -26.559 -14.650  0.00  0.00    -0.082 Cl
ATOM     12  C   UNL     1      30.857 -22.985 -14.883  0.00  0.00    +0.029 C 
ATOM     13  C   UNL     1      30.586 -24.318 -14.575  0.00  0.00    +0.018 C 
ATOM     14  C   UNL     1      29.953 -22.248 -15.648  0.00  0.00    +0.018 C 
ATOM     15  C   UNL     1      28.777 -22.844 -16.104  0.00  0.00    +0.059 C 
ATOM     16  C   UNL     1      29.410 -24.914 -15.031  0.00  0.00    +0.059 C 
ATOM     17  C   UNL     1      28.506 -24.177 -15.795  0.00  0.00    +0.023 C 
ENDBRANCH   9  12
ENDBRANCH   4   9
BRANCH   1  18
ATOM     18  C   UNL     1      34.033 -24.684 -13.150  0.00  0.00    +0.121 C 
BRANCH  18  20
ATOM     19  N   UNL     1      37.264 -23.153 -10.785  0.00  0.00    -0.242 NA
ATOM     20  C   UNL     1      35.168 -24.147 -12.320  0.00  0.00    +0.001 C 
ATOM     21  C   UNL     1      36.107 -23.314 -12.901  0.00  0.00    +0.018 C 
ATOM     22  C   UNL     1      35.260 -24.491 -10.982  0.00  0.00    +0.018 C 
ATOM     23  C   UNL     1      37.131 -22.845 -12.094  0.00  0.00    +0.099 C 
ATOM     24  C   UNL     1      36.322 -23.970 -10.261  0.00  0.00    +0.099 C 
ENDBRANCH  18  20
ENDBRANCH   1  18
BRANCH   5  25
ATOM     25  C   UNL     1      35.810 -26.007 -15.165  0.00  0.00    +0.284 C 
BRANCH  25  26
ATOM     26  O   UNL     1      37.166 -25.590 -15.310  0.00  0.00    -0.425 OA
BRANCH  26  29
ATOM     27  O   UNL     1      39.249 -26.457 -14.852  0.00  0.00    -0.227 OA
ATOM     28  N   UNL     1      37.512 -26.664 -13.360  0.00  0.00    -0.295 N 
ATOM     29  C   UNL     1      38.081 -26.253 -14.541  0.00  0.00    +0.399 C 
ATOM     30  H   UNL     1      36.565 -26.466 -13.175  0.00  0.00    +0.148 HD
ATOM     31  H   UNL     1      38.050 -27.157 -12.700  0.00  0.00    +0.148 HD
ENDBRANCH  26  29
ENDBRANCH  25  26
ENDBRANCH   5  25
TORSDOF 8
ENDMDL
MODEL 4
REMARK VINA RESULT:      -5.9     12.250     16.035
REMARK  Name = 1783
REMARK  8 active torsions:
REMARK  status: ('A' for Active; 'I' for Inactive)
REMARK    1  A    between atoms: N_1  and  C_18
REMARK    2  A    between atoms: C_3  and  C_6
REMARK    3  A    between atoms: C_4  and  S_9
REMARK    4  A    between atoms: C_5  and  C_25
REMARK    5  A    between atoms: S_9  and  C_12
REMARK    6  A    between atoms: C_18  and  C_20
REMARK    7  A    between atoms: C_25  and  O_26
REMARK    8  A    between atoms: O_26  and  C_29
REMARK                            x       y       z     vdW  Elec       q    Type
REMARK                         _______ _______ _______ _____ _____    ______ ____
ROOT
ATOM      1  N   UNL     1      33.403 -10.680 -23.565  0.00  0.00    -0.267 N 
ATOM      2  N   UNL     1      34.607 -10.644 -25.431  0.00  0.00    -0.394 NA
ATOM      3  C   UNL     1      33.828 -11.773 -25.393  0.00  0.00    +0.116 C 
ATOM      4  C   UNL     1      33.102 -11.789 -24.261  0.00  0.00    +0.176 C 
ATOM      5  C   UNL     1      34.326 -10.007 -24.315  0.00  0.00    +0.205 C 
ENDROOT
BRANCH   3   6
ATOM      6  C   UNL     1      33.884 -12.743 -26.500  0.00  0.00    +0.051 C 
ATOM      7  C   UNL     1      32.528 -12.945 -27.216  0.00  0.00    +0.007 C 
ATOM      8  C   UNL     1      34.969 -12.417 -27.555  0.00  0.00    +0.007 C 
ENDBRANCH   3   6
BRANCH   4   9
ATOM      9  S   UNL     1      31.931 -12.967 -23.647  0.00  0.00    -0.088 S 
BRANCH   9  12
ATOM     10 CL   UNL     1      34.942 -15.709 -20.025  0.00  0.00    -0.082 Cl
ATOM     11 CL   UNL     1      34.985 -17.203 -25.210  0.00  0.00    -0.082 Cl
ATOM     12  C   UNL     1      33.073 -14.280 -23.260  0.00  0.00    +0.029 C 
ATOM     13  C   UNL     1      33.529 -15.128 -24.269  0.00  0.00    +0.018 C 
ATOM     14  C   UNL     1      33.510 -14.459 -21.947  0.00  0.00    +0.018 C 
ATOM     15  C   UNL     1      34.403 -15.487 -21.644  0.00  0.00    +0.059 C 
ATOM     16  C   UNL     1      34.422 -16.156 -23.965  0.00  0.00    +0.059 C 
ATOM     17  C   UNL     1      34.859 -16.335 -22.653  0.00  0.00    +0.023 C 
ENDBRANCH   9  12
ENDBRANCH   4   9
BRANCH   1  18
ATOM     18  C   UNL     1      32.886 -10.244 -22.285  0.00  0.00    +0.121 C 
BRANCH  18  20
ATOM     19  N   UNL     1      30.740  -6.551 -22.643  0.00  0.00    -0.242 NA
ATOM     20  C   UNL     1      32.133  -8.948 -22.411  0.00  0.00    +0.001 C 
ATOM     21  C   UNL     1      32.267  -7.980 -21.430  0.00  0.00    +0.018 C 
ATOM     22  C   UNL     1      31.313  -8.735 -23.506  0.00  0.00    +0.018 C 
ATOM     23  C   UNL     1      31.553  -6.804 -21.592  0.00  0.00    +0.099 C 
ATOM     24  C   UNL     1      30.642  -7.525 -23.575  0.00  0.00    +0.099 C 
ENDBRANCH  18  20
ENDBRANCH   1  18
BRANCH   5  25
ATOM     25  C   UNL     1      34.911  -8.722 -23.881  0.00  0.00    +0.284 C 
BRANCH  25  26
ATOM     26  O   UNL     1      35.040  -7.890 -25.032  0.00  0.00    -0.425 OA
BRANCH  26  29
ATOM     27  O   UNL     1      33.757  -6.272 -24.016  0.00  0.00    -0.227 OA
ATOM     28  N   UNL     1      34.739  -5.910 -26.063  0.00  0.00    -0.295 N 
ATOM     29  C   UNL     1      34.449  -6.660 -24.950  0.00  0.00    +0.399 C 
ATOM     30  H   UNL     1      35.303  -6.286 -26.777  0.00  0.00    +0.148 HD
ATOM     31  H   UNL     1      34.382  -4.996 -26.147  0.00  0.00    +0.148 HD
ENDBRANCH  26  29
ENDBRANCH  25  26
ENDBRANCH   5  25
TORSDOF 8
ENDMDL
MODEL 5
REMARK VINA RESULT:      -5.9     12.230     16.004
REMARK  Name = 1783
REMARK  8 active torsions:
REMARK  status: ('A' for Active; 'I' for Inactive)
REMARK    1  A    between atoms: N_1  and  C_18
REMARK    2  A    between atoms: C_3  and  C_6
REMARK    3  A    between atoms: C_4  and  S_9
REMARK    4  A    between atoms: C_5  and  C_25
REMARK    5  A    between atoms: S_9  and  C_12
REMARK    6  A    between atoms: C_18  and  C_20
REMARK    7  A    between atoms: C_25  and  O_26
REMARK    8  A    between atoms: O_26  and  C_29
REMARK                            x       y       z     vdW  Elec       q    Type
REMARK                         _______ _______ _______ _____ _____    ______ ____
ROOT
ATOM      1  N   UNL     1      33.404 -10.711 -23.581  0.00  0.00    -0.267 N 
ATOM      2  N   UNL     1      34.606 -10.677 -25.448  0.00  0.00    -0.394 NA
ATOM      3  C   UNL     1      33.824 -11.804 -25.411  0.00  0.00    +0.116 C 
ATOM      4  C   UNL     1      33.099 -11.818 -24.277  0.00  0.00    +0.176 C 
ATOM      5  C   UNL     1      34.329 -10.040 -24.331  0.00  0.00    +0.205 C 
ENDROOT
BRANCH   3   6
ATOM      6  C   UNL     1      33.876 -12.773 -26.519  0.00  0.00    +0.051 C 
ATOM      7  C   UNL     1      32.518 -12.970 -27.233  0.00  0.00    +0.007 C 
ATOM      8  C   UNL     1      34.961 -12.449 -27.574  0.00  0.00    +0.007 C 
ENDBRANCH   3   6
BRANCH   4   9
ATOM      9  S   UNL     1      31.925 -12.994 -23.664  0.00  0.00    -0.088 S 
BRANCH   9  12
ATOM     10 CL   UNL     1      34.975 -17.232 -25.225  0.00  0.00    -0.082 Cl
ATOM     11 CL   UNL     1      34.926 -15.743 -20.038  0.00  0.00    -0.082 Cl
ATOM     12  C   UNL     1      33.063 -14.309 -23.276  0.00  0.00    +0.029 C 
ATOM     13  C   UNL     1      33.498 -14.490 -21.963  0.00  0.00    +0.018 C 
ATOM     14  C   UNL     1      33.520 -15.157 -24.285  0.00  0.00    +0.018 C 
ATOM     15  C   UNL     1      34.411 -16.186 -23.981  0.00  0.00    +0.059 C 
ATOM     16  C   UNL     1      34.390 -15.519 -21.659  0.00  0.00    +0.059 C 
ATOM     17  C   UNL     1      34.846 -16.367 -22.668  0.00  0.00    +0.023 C 
ENDBRANCH   9  12
ENDBRANCH   4   9
BRANCH   1  18
ATOM     18  C   UNL     1      32.889 -10.275 -22.300  0.00  0.00    +0.121 C 
BRANCH  18  20
ATOM     19  N   UNL     1      30.744  -6.580 -22.653  0.00  0.00    -0.242 NA
ATOM     20  C   UNL     1      32.137  -8.978 -22.424  0.00  0.00    +0.001 C 
ATOM     21  C   UNL     1      31.330  -8.756 -23.527  0.00  0.00    +0.018 C 
ATOM     22  C   UNL     1      32.257  -8.019 -21.433  0.00  0.00    +0.018 C 
ATOM     23  C   UNL     1      30.658  -7.547 -23.594  0.00  0.00    +0.099 C 
ATOM     24  C   UNL     1      31.544  -6.842 -21.593  0.00  0.00    +0.099 C 
ENDBRANCH  18  20
ENDBRANCH   1  18
BRANCH   5  25
ATOM     25  C   UNL     1      34.918  -8.757 -23.896  0.00  0.00    +0.284 C 
BRANCH  25  26
ATOM     26  O   UNL     1      35.014  -7.911 -25.040  0.00  0.00    -0.425 OA
BRANCH  26  29
ATOM     27  O   UNL     1      33.760  -6.306 -23.968  0.00  0.00    -0.227 OA
ATOM     28  N   UNL     1      34.681  -5.919 -26.039  0.00  0.00    -0.295 N 
ATOM     29  C   UNL     1      34.425  -6.683 -24.926  0.00  0.00    +0.399 C 
ATOM     30  H   UNL     1      35.225  -6.286 -26.773  0.00  0.00    +0.148 HD
ATOM     31  H   UNL     1      34.322  -5.005 -26.101  0.00  0.00    +0.148 HD
ENDBRANCH  26  29
ENDBRANCH  25  26
ENDBRANCH   5  25
TORSDOF 8
ENDMDL
MODEL 6
REMARK VINA RESULT:      -5.8     12.261     15.435
REMARK  Name = 1783
REMARK  8 active torsions:
REMARK  status: ('A' for Active; 'I' for Inactive)
REMARK    1  A    between atoms: N_1  and  C_18
REMARK    2  A    between atoms: C_3  and  C_6
REMARK    3  A    between atoms: C_4  and  S_9
REMARK    4  A    between atoms: C_5  and  C_25
REMARK    5  A    between atoms: S_9  and  C_12
REMARK    6  A    between atoms: C_18  and  C_20
REMARK    7  A    between atoms: C_25  and  O_26
REMARK    8  A    between atoms: O_26  and  C_29
REMARK                            x       y       z     vdW  Elec       q    Type
REMARK                         _______ _______ _______ _____ _____    ______ ____
ROOT
ATOM      1  N   UNL     1      32.545  -9.848 -23.337  0.00  0.00    -0.267 N 
ATOM      2  N   UNL     1      34.546  -9.357 -24.163  0.00  0.00    -0.394 NA
ATOM      3  C   UNL     1      34.108 -10.554 -24.670  0.00  0.00    +0.116 C 
ATOM      4  C   UNL     1      32.895 -10.846 -24.166  0.00  0.00    +0.176 C 
ATOM      5  C   UNL     1      33.581  -8.958 -23.364  0.00  0.00    +0.205 C 
ENDROOT
BRANCH   3   6
ATOM      6  C   UNL     1      34.950 -11.304 -25.617  0.00  0.00    +0.051 C 
ATOM      7  C   UNL     1      34.146 -11.999 -26.743  0.00  0.00    +0.007 C 
ATOM      8  C   UNL     1      36.077 -10.455 -26.251  0.00  0.00    +0.007 C 
ENDBRANCH   3   6
BRANCH   4   9
ATOM      9  S   UNL     1      31.829 -12.234 -24.433  0.00  0.00    -0.088 S 
BRANCH   9  12
ATOM     10 CL   UNL     1      34.742 -14.524 -20.435  0.00  0.00    -0.082 Cl
ATOM     11 CL   UNL     1      34.757 -16.738 -25.356  0.00  0.00    -0.082 Cl
ATOM     12  C   UNL     1      32.929 -13.512 -23.854  0.00  0.00    +0.029 C 
ATOM     13  C   UNL     1      33.362 -14.508 -24.729  0.00  0.00    +0.018 C 
ATOM     14  C   UNL     1      33.355 -13.516 -22.526  0.00  0.00    +0.018 C 
ATOM     15  C   UNL     1      34.215 -14.517 -22.073  0.00  0.00    +0.059 C 
ATOM     16  C   UNL     1      34.222 -15.509 -24.276  0.00  0.00    +0.059 C 
ATOM     17  C   UNL     1      34.648 -15.513 -22.949  0.00  0.00    +0.023 C 
ENDBRANCH   9  12
ENDBRANCH   4   9
BRANCH   1  18
ATOM     18  C   UNL     1      31.335  -9.701 -22.556  0.00  0.00    +0.121 C 
BRANCH  18  20
ATOM     19  N   UNL     1      31.942 -10.908 -18.488  0.00  0.00    -0.242 NA
ATOM     20  C   UNL     1      31.548 -10.125 -21.128  0.00  0.00    +0.001 C 
ATOM     21  C   UNL     1      31.919  -9.184 -20.183  0.00  0.00    +0.018 C 
ATOM     22  C   UNL     1      31.371 -11.451 -20.773  0.00  0.00    +0.018 C 
ATOM     23  C   UNL     1      32.102  -9.625 -18.882  0.00  0.00    +0.099 C 
ATOM     24  C   UNL     1      31.579 -11.790 -19.447  0.00  0.00    +0.099 C 
ENDBRANCH  18  20
ENDBRANCH   1  18
BRANCH   5  25
ATOM     25  C   UNL     1      33.573  -7.711 -22.571  0.00  0.00    +0.284 C 
BRANCH  25  26
ATOM     26  O   UNL     1      33.076  -6.667 -23.406  0.00  0.00    -0.425 OA
BRANCH  26  29
ATOM     27  O   UNL     1      30.828  -6.269 -23.696  0.00  0.00    -0.227 OA
ATOM     28  N   UNL     1      31.961  -5.457 -21.867  0.00  0.00    -0.295 N 
ATOM     29  C   UNL     1      31.864  -6.145 -23.052  0.00  0.00    +0.399 C 
ATOM     30  H   UNL     1      32.827  -5.397 -21.402  0.00  0.00    +0.148 HD
ATOM     31  H   UNL     1      31.165  -5.024 -21.483  0.00  0.00    +0.148 HD
ENDBRANCH  26  29
ENDBRANCH  25  26
ENDBRANCH   5  25
TORSDOF 8
ENDMDL
MODEL 7
REMARK VINA RESULT:      -5.8     14.936     18.095
REMARK  Name = 1783
REMARK  8 active torsions:
REMARK  status: ('A' for Active; 'I' for Inactive)
REMARK    1  A    between atoms: N_1  and  C_18
REMARK    2  A    between atoms: C_3  and  C_6
REMARK    3  A    between atoms: C_4  and  S_9
REMARK    4  A    between atoms: C_5  and  C_25
REMARK    5  A    between atoms: S_9  and  C_12
REMARK    6  A    between atoms: C_18  and  C_20
REMARK    7  A    between atoms: C_25  and  O_26
REMARK    8  A    between atoms: O_26  and  C_29
REMARK                            x       y       z     vdW  Elec       q    Type
REMARK                         _______ _______ _______ _____ _____    ______ ____
ROOT
ATOM      1  N   UNL     1      32.607  -6.717 -22.691  0.00  0.00    -0.267 N 
ATOM      2  N   UNL     1      31.820  -5.773 -24.540  0.00  0.00    -0.394 NA
ATOM      3  C   UNL     1      33.080  -6.266 -24.762  0.00  0.00    +0.116 C 
ATOM      4  C   UNL     1      33.551  -6.837 -23.638  0.00  0.00    +0.176 C 
ATOM      5  C   UNL     1      31.564  -6.061 -23.283  0.00  0.00    +0.205 C 
ENDROOT
BRANCH   3   6
ATOM      6  C   UNL     1      33.706  -6.118 -26.087  0.00  0.00    +0.051 C 
ATOM      7  C   UNL     1      33.021  -5.056 -26.980  0.00  0.00    +0.007 C 
ATOM      8  C   UNL     1      35.224  -5.824 -26.026  0.00  0.00    +0.007 C 
ENDBRANCH   3   6
BRANCH   4   9
ATOM      9  S   UNL     1      35.096  -7.634 -23.299  0.00  0.00    -0.088 S 
BRANCH   9  12
ATOM     10 CL   UNL     1      35.741 -10.919 -27.600  0.00  0.00    -0.082 Cl
ATOM     11 CL   UNL     1      32.738 -12.547 -23.422  0.00  0.00    -0.082 Cl
ATOM     12  C   UNL     1      34.773  -9.176 -24.132  0.00  0.00    +0.029 C 
ATOM     13  C   UNL     1      33.975 -10.144 -23.522  0.00  0.00    +0.018 C 
ATOM     14  C   UNL     1      35.319  -9.415 -25.393  0.00  0.00    +0.018 C 
ATOM     15  C   UNL     1      35.067 -10.623 -26.044  0.00  0.00    +0.059 C 
ATOM     16  C   UNL     1      33.723 -11.352 -24.174  0.00  0.00    +0.059 C 
ATOM     17  C   UNL     1      34.269 -11.591 -25.434  0.00  0.00    +0.023 C 
ENDBRANCH   9  12
ENDBRANCH   4   9
BRANCH   1  18
ATOM     18  C   UNL     1      32.638  -7.171 -21.317  0.00  0.00    +0.121 C 
BRANCH  18  20
ATOM     19  N   UNL     1      30.859 -11.049 -20.908  0.00  0.00    -0.242 NA
ATOM     20  C   UNL     1      32.013  -8.533 -21.173  0.00  0.00    +0.001 C 
ATOM     21  C   UNL     1      31.351  -9.099 -22.248  0.00  0.00    +0.018 C 
ATOM     22  C   UNL     1      32.108  -9.206 -19.968  0.00  0.00    +0.018 C 
ATOM     23  C   UNL     1      30.794 -10.354 -22.066  0.00  0.00    +0.099 C 
ATOM     24  C   UNL     1      31.517 -10.456 -19.887  0.00  0.00    +0.099 C 
ENDBRANCH  18  20
ENDBRANCH   1  18
BRANCH   5  25
ATOM     25  C   UNL     1      30.320  -5.737 -22.555  0.00  0.00    +0.284 C 
BRANCH  25  26
ATOM     26  O   UNL     1      30.429  -4.397 -22.080  0.00  0.00    -0.425 OA
BRANCH  26  29
ATOM     27  O   UNL     1      30.167  -3.206 -24.032  0.00  0.00    -0.227 OA
ATOM     28  N   UNL     1      31.958  -2.840 -22.639  0.00  0.00    -0.295 N 
ATOM     29  C   UNL     1      30.791  -3.462 -23.009  0.00  0.00    +0.399 C 
ATOM     30  H   UNL     1      32.409  -3.096 -21.801  0.00  0.00    +0.148 HD
ATOM     31  H   UNL     1      32.345  -2.139 -23.211  0.00  0.00    +0.148 HD
ENDBRANCH  26  29
ENDBRANCH  25  26
ENDBRANCH   5  25
TORSDOF 8
ENDMDL
MODEL 8
REMARK VINA RESULT:      -5.7      2.960      5.137
REMARK  Name = 1783
REMARK  8 active torsions:
REMARK  status: ('A' for Active; 'I' for Inactive)
REMARK    1  A    between atoms: N_1  and  C_18
REMARK    2  A    between atoms: C_3  and  C_6
REMARK    3  A    between atoms: C_4  and  S_9
REMARK    4  A    between atoms: C_5  and  C_25
REMARK    5  A    between atoms: S_9  and  C_12
REMARK    6  A    between atoms: C_18  and  C_20
REMARK    7  A    between atoms: C_25  and  O_26
REMARK    8  A    between atoms: O_26  and  C_29
REMARK                            x       y       z     vdW  Elec       q    Type
REMARK                         _______ _______ _______ _____ _____    ______ ____
ROOT
ATOM      1  N   UNL     1      34.175 -24.241 -14.482  0.00  0.00    -0.267 N 
ATOM      2  N   UNL     1      34.860 -24.243 -16.594  0.00  0.00    -0.394 NA
ATOM      3  C   UNL     1      33.930 -23.253 -16.401  0.00  0.00    +0.116 C 
ATOM      4  C   UNL     1      33.520 -23.257 -15.120  0.00  0.00    +0.176 C 
ATOM      5  C   UNL     1      34.986 -24.819 -15.419  0.00  0.00    +0.205 C 
ENDROOT
BRANCH   3   6
ATOM      6  C   UNL     1      33.531 -22.388 -17.524  0.00  0.00    +0.051 C 
ATOM      7  C   UNL     1      34.540 -22.391 -18.697  0.00  0.00    +0.007 C 
ATOM      8  C   UNL     1      32.118 -22.699 -18.073  0.00  0.00    +0.007 C 
ENDBRANCH   3   6
BRANCH   4   9
ATOM      9  S   UNL     1      32.347 -22.237 -14.272  0.00  0.00    -0.088 S 
BRANCH   9  12
ATOM     10 CL   UNL     1      29.086 -26.586 -14.673  0.00  0.00    -0.082 Cl
ATOM     11 CL   UNL     1      27.692 -21.969 -17.095  0.00  0.00    -0.082 Cl
ATOM     12  C   UNL     1      30.857 -23.005 -14.879  0.00  0.00    +0.029 C 
ATOM     13  C   UNL     1      29.962 -22.272 -15.658  0.00  0.00    +0.018 C 
ATOM     14  C   UNL     1      30.587 -24.339 -14.574  0.00  0.00    +0.018 C 
ATOM     15  C   UNL     1      29.421 -24.940 -15.049  0.00  0.00    +0.059 C 
ATOM     16  C   UNL     1      28.796 -22.873 -16.133  0.00  0.00    +0.059 C 
ATOM     17  C   UNL     1      28.526 -24.207 -15.828  0.00  0.00    +0.023 C 
ENDBRANCH   9  12
ENDBRANCH   4   9
BRANCH   1  18
ATOM     18  C   UNL     1      34.080 -24.645 -13.095  0.00  0.00    +0.121 C 
BRANCH  18  20
ATOM     19  N   UNL     1      37.346 -23.100 -10.789  0.00  0.00    -0.242 NA
ATOM     20  C   UNL     1      35.226 -24.102 -12.286  0.00  0.00    +0.001 C 
ATOM     21  C   UNL     1      35.350 -24.453 -10.953  0.00  0.00    +0.018 C 
ATOM     22  C   UNL     1      36.147 -23.258 -12.882  0.00  0.00    +0.018 C 
ATOM     23  C   UNL     1      36.423 -23.928 -10.251  0.00  0.00    +0.099 C 
ATOM     24  C   UNL     1      37.184 -22.786 -12.095  0.00  0.00    +0.099 C 
ENDBRANCH  18  20
ENDBRANCH   1  18
BRANCH   5  25
ATOM     25  C   UNL     1      35.877 -25.954 -15.101  0.00  0.00    +0.284 C 
BRANCH  25  26
ATOM     26  O   UNL     1      37.191 -25.611 -15.534  0.00  0.00    -0.425 OA
BRANCH  26  29
ATOM     27  O   UNL     1      39.049 -24.690 -14.535  0.00  0.00    -0.227 OA
ATOM     28  N   UNL     1      37.922 -26.448 -13.575  0.00  0.00    -0.295 N 
ATOM     29  C   UNL     1      38.135 -25.507 -14.552  0.00  0.00    +0.399 C 
ATOM     30  H   UNL     1      37.166 -27.075 -13.652  0.00  0.00    +0.148 HD
ATOM     31  H   UNL     1      38.524 -26.497 -12.798  0.00  0.00    +0.148 HD
ENDBRANCH  26  29
ENDBRANCH  25  26
ENDBRANCH   5  25
TORSDOF 8
ENDMDL
MODEL 9
REMARK VINA RESULT:      -5.6     10.543     13.785
REMARK  Name = 1783
REMARK  8 active torsions:
REMARK  status: ('A' for Active; 'I' for Inactive)
REMARK    1  A    between atoms: N_1  and  C_18
REMARK    2  A    between atoms: C_3  and  C_6
REMARK    3  A    between atoms: C_4  and  S_9
REMARK    4  A    between atoms: C_5  and  C_25
REMARK    5  A    between atoms: S_9  and  C_12
REMARK    6  A    between atoms: C_18  and  C_20
REMARK    7  A    between atoms: C_25  and  O_26
REMARK    8  A    between atoms: O_26  and  C_29
REMARK                            x       y       z     vdW  Elec       q    Type
REMARK                         _______ _______ _______ _____ _____    ______ ____
ROOT
ATOM      1  N   UNL     1      32.201 -11.899 -22.723  0.00  0.00    -0.267 N 
ATOM      2  N   UNL     1      32.004 -13.260 -20.980  0.00  0.00    -0.394 NA
ATOM      3  C   UNL     1      32.992 -13.709 -21.819  0.00  0.00    +0.116 C 
ATOM      4  C   UNL     1      33.106 -12.881 -22.873  0.00  0.00    +0.176 C 
ATOM      5  C   UNL     1      31.548 -12.167 -21.553  0.00  0.00    +0.205 C 
ENDROOT
BRANCH   3   6
ATOM      6  C   UNL     1      33.734 -14.938 -21.490  0.00  0.00    +0.051 C 
ATOM      7  C   UNL     1      34.841 -14.727 -20.429  0.00  0.00    +0.007 C 
ATOM      8  C   UNL     1      32.827 -16.110 -21.048  0.00  0.00    +0.007 C 
ENDBRANCH   3   6
BRANCH   4   9
ATOM      9  S   UNL     1      34.184 -12.928 -24.277  0.00  0.00    -0.088 S 
BRANCH   9  12
ATOM     10 CL   UNL     1      31.866 -17.021 -27.031  0.00  0.00    -0.082 Cl
ATOM     11 CL   UNL     1      35.776 -18.078 -23.465  0.00  0.00    -0.082 Cl
ATOM     12  C   UNL     1      34.047 -14.668 -24.642  0.00  0.00    +0.029 C 
ATOM     13  C   UNL     1      34.869 -15.585 -23.987  0.00  0.00    +0.018 C 
ATOM     14  C   UNL     1      33.119 -15.111 -25.583  0.00  0.00    +0.018 C 
ATOM     15  C   UNL     1      33.012 -16.472 -25.869  0.00  0.00    +0.059 C 
ATOM     16  C   UNL     1      34.763 -16.946 -24.273  0.00  0.00    +0.059 C 
ATOM     17  C   UNL     1      33.834 -17.389 -25.214  0.00  0.00    +0.023 C 
ENDBRANCH   9  12
ENDBRANCH   4   9
BRANCH   1  18
ATOM     18  C   UNL     1      31.935 -10.772 -23.591  0.00  0.00    +0.121 C 
BRANCH  18  20
ATOM     19  N   UNL     1      34.864  -7.683 -23.086  0.00  0.00    -0.242 NA
ATOM     20  C   UNL     1      32.964  -9.687 -23.414  0.00  0.00    +0.001 C 
ATOM     21  C   UNL     1      34.115  -9.704 -24.181  0.00  0.00    +0.018 C 
ATOM     22  C   UNL     1      32.747  -8.683 -22.486  0.00  0.00    +0.018 C 
ATOM     23  C   UNL     1      35.030  -8.683 -23.980  0.00  0.00    +0.099 C 
ATOM     24  C   UNL     1      33.723  -7.709 -22.361  0.00  0.00    +0.099 C 
ENDBRANCH  18  20
ENDBRANCH   1  18
BRANCH   5  25
ATOM     25  C   UNL     1      30.466 -11.304 -21.037  0.00  0.00    +0.284 C 
BRANCH  25  26
ATOM     26  O   UNL     1      31.068 -10.148 -20.460  0.00  0.00    -0.425 OA
BRANCH  26  29
ATOM     27  O   UNL     1      31.154 -11.070 -18.353  0.00  0.00    -0.227 OA
ATOM     28  N   UNL     1      32.683  -9.494 -19.032  0.00  0.00    -0.295 N 
ATOM     29  C   UNL     1      31.591 -10.308 -19.208  0.00  0.00    +0.399 C 
ATOM     30  H   UNL     1      32.980  -8.905 -19.763  0.00  0.00    +0.148 HD
ATOM     31  H   UNL     1      33.168  -9.499 -18.176  0.00  0.00    +0.148 HD
ENDBRANCH  26  29
ENDBRANCH  25  26
ENDBRANCH   5  25
TORSDOF 8
ENDMDL
