MODEL 1
REMARK VINA RESULT:      -9.3      0.000      0.000
REMARK  Name = 6300
REMARK  1 active torsions:
REMARK  status: ('A' for Active; 'I' for Inactive)
REMARK    1  A    between atoms: C_6  and  O_22
REMARK                            x       y       z     vdW  Elec       q    Type
REMARK                         _______ _______ _______ _____ _____    ______ ____
ROOT
ATOM      1  O   UNL     1      39.488 -26.631 -14.618  0.00  0.00    -0.287 OA
ATOM      2  C   UNL     1      31.760 -23.711 -14.632  0.00  0.00    +0.023 C 
ATOM      3  C   UNL     1      32.804 -23.610 -15.765  0.00  0.00    +0.002 C 
ATOM      4  C   UNL     1      34.221 -23.322 -15.251  0.00  0.00    +0.001 C 
ATOM      5  C   UNL     1      34.658 -24.477 -14.287  0.00  0.00    +0.007 C 
ATOM      6  C   UNL     1      30.449 -23.880 -15.462  0.00  0.00    +0.088 C 
ATOM      7  C   UNL     1      32.167 -24.884 -13.725  0.00  0.00    +0.002 C 
ATOM      8  C   UNL     1      32.170 -22.628 -16.745  0.00  0.00    +0.002 C 
ATOM      9  C   UNL     1      33.596 -24.719 -13.177  0.00  0.00    +0.001 C 
ATOM     10  C   UNL     1      30.659 -22.908 -16.654  0.00  0.00    +0.027 C 
ATOM     11  C   UNL     1      36.126 -24.283 -13.753  0.00  0.00    +0.034 C 
ATOM     12  C   UNL     1      35.216 -23.170 -16.411  0.00  0.00    +0.004 C 
ATOM     13  C   UNL     1      31.667 -22.423 -13.762  0.00  0.00    +0.002 C 
ATOM     14  C   UNL     1      36.640 -22.954 -15.908  0.00  0.00    +0.022 C 
ATOM     15  C   UNL     1      37.039 -24.060 -14.964  0.00  0.00    -0.038 C 
ATOM     16  C   UNL     1      30.179 -25.300 -15.976  0.00  0.00    +0.029 C 
ATOM     17  C   UNL     1      36.251 -23.075 -12.797  0.00  0.00    +0.008 C 
ATOM     18  C   UNL     1      36.564 -25.500 -12.950  0.00  0.00    -0.020 C 
ATOM     19  C   UNL     1      38.112 -24.820 -15.237  0.00  0.00    +0.034 C 
ATOM     20  C   UNL     1      37.629 -26.260 -13.219  0.00  0.00    +0.038 C 
ATOM     21  C   UNL     1      38.493 -25.957 -14.375  0.00  0.00    +0.195 C 
ENDROOT
BRANCH   6  22
ATOM     22  O   UNL     1      29.286 -23.522 -14.718  0.00  0.00    -0.387 OA
ATOM     23  H   UNL     1      28.744 -24.311 -14.568  0.00  0.00    +0.210 HD
ENDBRANCH   6  22
TORSDOF 1
ENDMDL
MODEL 2
REMARK VINA RESULT:      -8.3     11.111     13.699
REMARK  Name = 6300
REMARK  1 active torsions:
REMARK  status: ('A' for Active; 'I' for Inactive)
REMARK    1  A    between atoms: C_6  and  O_22
REMARK                            x       y       z     vdW  Elec       q    Type
REMARK                         _______ _______ _______ _____ _____    ______ ____
ROOT
ATOM      1  O   UNL     1      34.917 -10.135 -26.153  0.00  0.00    -0.287 OA
ATOM      2  C   UNL     1      34.528 -17.254 -21.980  0.00  0.00    +0.023 C 
ATOM      3  C   UNL     1      34.600 -17.066 -23.511  0.00  0.00    +0.002 C 
ATOM      4  C   UNL     1      33.749 -15.891 -24.011  0.00  0.00    +0.001 C 
ATOM      5  C   UNL     1      34.252 -14.571 -23.333  0.00  0.00    +0.007 C 
ATOM      6  C   UNL     1      35.373 -18.555 -21.811  0.00  0.00    +0.088 C 
ATOM      7  C   UNL     1      35.079 -15.976 -21.326  0.00  0.00    +0.002 C 
ATOM      8  C   UNL     1      34.309 -18.461 -24.054  0.00  0.00    +0.002 C 
ATOM      9  C   UNL     1      34.318 -14.719 -21.787  0.00  0.00    +0.001 C 
ATOM     10  C   UNL     1      34.939 -19.418 -23.026  0.00  0.00    +0.027 C 
ATOM     11  C   UNL     1      33.459 -13.306 -23.834  0.00  0.00    +0.034 C 
ATOM     12  C   UNL     1      33.799 -15.775 -25.542  0.00  0.00    +0.004 C 
ATOM     13  C   UNL     1      33.083 -17.495 -21.455  0.00  0.00    +0.002 C 
ATOM     14  C   UNL     1      33.013 -14.568 -26.043  0.00  0.00    +0.022 C 
ATOM     15  C   UNL     1      33.492 -13.309 -25.366  0.00  0.00    -0.038 C 
ATOM     16  C   UNL     1      36.894 -18.354 -21.817  0.00  0.00    +0.029 C 
ATOM     17  C   UNL     1      31.988 -13.305 -23.360  0.00  0.00    +0.008 C 
ATOM     18  C   UNL     1      34.081 -12.034 -23.272  0.00  0.00    -0.020 C 
ATOM     19  C   UNL     1      33.965 -12.290 -26.102  0.00  0.00    +0.034 C 
ATOM     20  C   UNL     1      34.555 -11.020 -24.001  0.00  0.00    +0.038 C 
ATOM     21  C   UNL     1      34.509 -11.070 -25.474  0.00  0.00    +0.195 C 
ENDROOT
BRANCH   6  22
ATOM     22  O   UNL     1      35.089 -19.230 -20.587  0.00  0.00    -0.387 OA
ATOM     23  H   UNL     1      34.306 -18.835 -20.174  0.00  0.00    +0.210 HD
ENDBRANCH   6  22
TORSDOF 1
ENDMDL
MODEL 3
REMARK VINA RESULT:      -7.7     19.857     22.217
REMARK  Name = 6300
REMARK  1 active torsions:
REMARK  status: ('A' for Active; 'I' for Inactive)
REMARK    1  A    between atoms: C_6  and  O_22
REMARK                            x       y       z     vdW  Elec       q    Type
REMARK                         _______ _______ _______ _____ _____    ______ ____
ROOT
ATOM      1  O   UNL     1      32.838  -7.223 -19.511  0.00  0.00    -0.287 OA
ATOM      2  C   UNL     1      33.453  -4.114 -27.140  0.00  0.00    +0.023 C 
ATOM      3  C   UNL     1      32.784  -3.461 -25.911  0.00  0.00    +0.002 C 
ATOM      4  C   UNL     1      31.995  -4.461 -25.056  0.00  0.00    +0.001 C 
ATOM      5  C   UNL     1      32.970  -5.576 -24.545  0.00  0.00    +0.007 C 
ATOM      6  C   UNL     1      34.052  -2.856 -27.843  0.00  0.00    +0.088 C 
ATOM      7  C   UNL     1      34.450  -5.165 -26.625  0.00  0.00    +0.002 C 
ATOM      8  C   UNL     1      32.045  -2.265 -26.503  0.00  0.00    +0.002 C 
ATOM      9  C   UNL     1      33.770  -6.208 -25.719  0.00  0.00    +0.001 C 
ATOM     10  C   UNL     1      32.942  -1.787 -27.659  0.00  0.00    +0.027 C 
ATOM     11  C   UNL     1      32.245  -6.620 -23.615  0.00  0.00    +0.034 C 
ATOM     12  C   UNL     1      31.295  -3.763 -23.880  0.00  0.00    +0.004 C 
ATOM     13  C   UNL     1      32.442  -4.816 -28.093  0.00  0.00    +0.002 C 
ATOM     14  C   UNL     1      30.567  -4.759 -22.984  0.00  0.00    +0.022 C 
ATOM     15  C   UNL     1      31.511  -5.839 -22.519  0.00  0.00    -0.038 C 
ATOM     16  C   UNL     1      35.379  -2.351 -27.261  0.00  0.00    +0.029 C 
ATOM     17  C   UNL     1      31.225  -7.489 -24.386  0.00  0.00    +0.008 C 
ATOM     18  C   UNL     1      33.255  -7.589 -23.018  0.00  0.00    -0.020 C 
ATOM     19  C   UNL     1      31.710  -6.035 -21.206  0.00  0.00    +0.034 C 
ATOM     20  C   UNL     1      33.458  -7.786 -21.712  0.00  0.00    +0.038 C 
ATOM     21  C   UNL     1      32.680  -7.033 -20.712  0.00  0.00    +0.195 C 
ENDROOT
BRANCH   6  22
ATOM     22  O   UNL     1      34.311  -3.081 -29.227  0.00  0.00    -0.387 OA
ATOM     23  H   UNL     1      35.203  -3.446 -29.334  0.00  0.00    +0.210 HD
ENDBRANCH   6  22
TORSDOF 1
ENDMDL
MODEL 4
REMARK VINA RESULT:      -7.4      3.369      6.415
REMARK  Name = 6300
REMARK  1 active torsions:
REMARK  status: ('A' for Active; 'I' for Inactive)
REMARK    1  A    between atoms: C_6  and  O_22
REMARK                            x       y       z     vdW  Elec       q    Type
REMARK                         _______ _______ _______ _____ _____    ______ ____
ROOT
ATOM      1  O   UNL     1      33.510 -18.601 -21.115  0.00  0.00    -0.287 OA
ATOM      2  C   UNL     1      35.158 -24.066 -15.143  0.00  0.00    +0.023 C 
ATOM      3  C   UNL     1      36.101 -22.982 -15.710  0.00  0.00    +0.002 C 
ATOM      4  C   UNL     1      35.990 -22.828 -17.232  0.00  0.00    +0.001 C 
ATOM      5  C   UNL     1      34.518 -22.435 -17.599  0.00  0.00    +0.007 C 
ATOM      6  C   UNL     1      35.585 -24.061 -13.641  0.00  0.00    +0.088 C 
ATOM      7  C   UNL     1      33.714 -23.641 -15.458  0.00  0.00    +0.002 C 
ATOM      8  C   UNL     1      37.456 -23.341 -15.110  0.00  0.00    +0.002 C 
ATOM      9  C   UNL     1      33.495 -23.420 -16.965  0.00  0.00    +0.001 C 
ATOM     10  C   UNL     1      37.128 -23.902 -13.714  0.00  0.00    +0.027 C 
ATOM     11  C   UNL     1      34.331 -22.208 -19.146  0.00  0.00    +0.034 C 
ATOM     12  C   UNL     1      36.985 -21.785 -17.763  0.00  0.00    +0.004 C 
ATOM     13  C   UNL     1      35.403 -25.477 -15.753  0.00  0.00    +0.002 C 
ATOM     14  C   UNL     1      36.833 -21.574 -19.266  0.00  0.00    +0.022 C 
ATOM     15  C   UNL     1      35.407 -21.219 -19.607  0.00  0.00    -0.038 C 
ATOM     16  C   UNL     1      34.974 -22.941 -12.791  0.00  0.00    +0.029 C 
ATOM     17  C   UNL     1      34.468 -23.518 -19.956  0.00  0.00    +0.008 C 
ATOM     18  C   UNL     1      32.934 -21.678 -19.440  0.00  0.00    -0.020 C 
ATOM     19  C   UNL     1      35.136 -20.063 -20.234  0.00  0.00    +0.034 C 
ATOM     20  C   UNL     1      32.660 -20.527 -20.060  0.00  0.00    +0.038 C 
ATOM     21  C   UNL     1      33.749 -19.647 -20.521  0.00  0.00    +0.195 C 
ENDROOT
BRANCH   6  22
ATOM     22  O   UNL     1      35.234 -25.272 -12.975  0.00  0.00    -0.387 OA
ATOM     23  H   UNL     1      35.983 -25.576 -12.439  0.00  0.00    +0.210 HD
ENDBRANCH   6  22
TORSDOF 1
ENDMDL
MODEL 5
REMARK VINA RESULT:      -7.2     19.184     21.474
REMARK  Name = 6300
REMARK  1 active torsions:
REMARK  status: ('A' for Active; 'I' for Inactive)
REMARK    1  A    between atoms: C_6  and  O_22
REMARK                            x       y       z     vdW  Elec       q    Type
REMARK                         _______ _______ _______ _____ _____    ______ ____
ROOT
ATOM      1  O   UNL     1      31.824 -11.030 -22.728  0.00  0.00    -0.287 OA
ATOM      2  C   UNL     1      32.504  -3.697 -26.470  0.00  0.00    +0.023 C 
ATOM      3  C   UNL     1      33.523  -4.856 -26.485  0.00  0.00    +0.002 C 
ATOM      4  C   UNL     1      33.657  -5.555 -25.126  0.00  0.00    +0.001 C 
ATOM      5  C   UNL     1      32.263  -6.136 -24.711  0.00  0.00    +0.007 C 
ATOM      6  C   UNL     1      32.686  -3.136 -27.915  0.00  0.00    +0.088 C 
ATOM      7  C   UNL     1      31.129  -4.287 -26.120  0.00  0.00    +0.002 C 
ATOM      8  C   UNL     1      34.766  -4.229 -27.109  0.00  0.00    +0.002 C 
ATOM      9  C   UNL     1      31.153  -5.049 -24.782  0.00  0.00    +0.001 C 
ATOM     10  C   UNL     1      34.219  -3.223 -28.138  0.00  0.00    +0.027 C 
ATOM     11  C   UNL     1      32.326  -6.916 -23.344  0.00  0.00    +0.034 C 
ATOM     12  C   UNL     1      34.723  -6.661 -25.167  0.00  0.00    +0.004 C 
ATOM     13  C   UNL     1      32.846  -2.589 -25.431  0.00  0.00    +0.002 C 
ATOM     14  C   UNL     1      34.813  -7.408 -23.840  0.00  0.00    +0.022 C 
ATOM     15  C   UNL     1      33.460  -7.942 -23.443  0.00  0.00    -0.038 C 
ATOM     16  C   UNL     1      31.944  -3.908 -29.015  0.00  0.00    +0.029 C 
ATOM     17  C   UNL     1      32.593  -5.980 -22.143  0.00  0.00    +0.008 C 
ATOM     18  C   UNL     1      30.993  -7.594 -23.059  0.00  0.00    -0.020 C 
ATOM     19  C   UNL     1      33.290  -9.259 -23.248  0.00  0.00    +0.034 C 
ATOM     20  C   UNL     1      30.819  -8.905 -22.868  0.00  0.00    +0.038 C 
ATOM     21  C   UNL     1      31.966  -9.829 -22.928  0.00  0.00    +0.195 C 
ENDROOT
BRANCH   6  22
ATOM     22  O   UNL     1      32.235  -1.788 -28.034  0.00  0.00    -0.387 OA
ATOM     23  H   UNL     1      31.613  -1.591 -27.317  0.00  0.00    +0.210 HD
ENDBRANCH   6  22
TORSDOF 1
ENDMDL
MODEL 6
REMARK VINA RESULT:      -7.1      3.501      6.054
REMARK  Name = 6300
REMARK  1 active torsions:
REMARK  status: ('A' for Active; 'I' for Inactive)
REMARK    1  A    between atoms: C_6  and  O_22
REMARK                            x       y       z     vdW  Elec       q    Type
REMARK                         _______ _______ _______ _____ _____    ______ ____
ROOT
ATOM      1  O   UNL     1      34.320 -18.500 -21.467  0.00  0.00    -0.287 OA
ATOM      2  C   UNL     1      33.660 -23.877 -15.230  0.00  0.00    +0.023 C 
ATOM      3  C   UNL     1      34.813 -22.886 -15.497  0.00  0.00    +0.002 C 
ATOM      4  C   UNL     1      35.175 -22.773 -16.984  0.00  0.00    +0.001 C 
ATOM      5  C   UNL     1      33.917 -22.284 -17.779  0.00  0.00    +0.007 C 
ATOM      6  C   UNL     1      33.618 -23.856 -13.670  0.00  0.00    +0.088 C 
ATOM      7  C   UNL     1      32.415 -23.356 -15.968  0.00  0.00    +0.002 C 
ATOM      8  C   UNL     1      35.894 -23.326 -14.515  0.00  0.00    +0.002 C 
ATOM      9  C   UNL     1      32.675 -23.168 -17.473  0.00  0.00    +0.001 C 
ATOM     10  C   UNL     1      35.119 -23.815 -13.278  0.00  0.00    +0.027 C 
ATOM     11  C   UNL     1      34.220 -22.093 -19.313  0.00  0.00    +0.034 C 
ATOM     12  C   UNL     1      36.364 -21.825 -17.200  0.00  0.00    +0.004 C 
ATOM     13  C   UNL     1      33.960 -25.321 -15.727  0.00  0.00    +0.002 C 
ATOM     14  C   UNL     1      36.686 -21.652 -18.681  0.00  0.00    +0.022 C 
ATOM     15  C   UNL     1      35.461 -21.203 -19.438  0.00  0.00    -0.038 C 
ATOM     16  C   UNL     1      32.874 -22.665 -13.052  0.00  0.00    +0.029 C 
ATOM     17  C   UNL     1      34.486 -23.435 -20.033  0.00  0.00    +0.008 C 
ATOM     18  C   UNL     1      33.022 -21.470 -20.017  0.00  0.00    -0.020 C 
ATOM     19  C   UNL     1      35.484 -20.051 -20.127  0.00  0.00    +0.034 C 
ATOM     20  C   UNL     1      33.040 -20.323 -20.701  0.00  0.00    +0.038 C 
ATOM     21  C   UNL     1      34.284 -19.542 -20.821  0.00  0.00    +0.195 C 
ENDROOT
BRANCH   6  22
ATOM     22  O   UNL     1      32.987 -25.015 -13.129  0.00  0.00    -0.387 OA
ATOM     23  H   UNL     1      32.876 -25.678 -13.827  0.00  0.00    +0.210 HD
ENDBRANCH   6  22
TORSDOF 1
ENDMDL
MODEL 7
REMARK VINA RESULT:      -6.9     13.396     15.706
REMARK  Name = 6300
REMARK  1 active torsions:
REMARK  status: ('A' for Active; 'I' for Inactive)
REMARK    1  A    between atoms: C_6  and  O_22
REMARK                            x       y       z     vdW  Elec       q    Type
REMARK                         _______ _______ _______ _____ _____    ______ ____
ROOT
ATOM      1  O   UNL     1      34.868 -16.582 -20.834  0.00  0.00    -0.287 OA
ATOM      2  C   UNL     1      33.143  -9.042 -23.738  0.00  0.00    +0.023 C 
ATOM      3  C   UNL     1      32.865  -9.589 -22.321  0.00  0.00    +0.002 C 
ATOM      4  C   UNL     1      32.378 -11.044 -22.324  0.00  0.00    +0.001 C 
ATOM      5  C   UNL     1      33.472 -11.947 -22.989  0.00  0.00    +0.007 C 
ATOM      6  C   UNL     1      33.492  -7.557 -23.410  0.00  0.00    +0.088 C 
ATOM      7  C   UNL     1      34.259  -9.899 -24.359  0.00  0.00    +0.002 C 
ATOM      8  C   UNL     1      31.971  -8.522 -21.698  0.00  0.00    +0.002 C 
ATOM      9  C   UNL     1      33.891 -11.394 -24.381  0.00  0.00    +0.001 C 
ATOM     10  C   UNL     1      32.477  -7.195 -22.293  0.00  0.00    +0.027 C 
ATOM     11  C   UNL     1      33.069 -13.469 -22.987  0.00  0.00    +0.034 C 
ATOM     12  C   UNL     1      32.055 -11.529 -20.903  0.00  0.00    +0.004 C 
ATOM     13  C   UNL     1      31.901  -9.095 -24.674  0.00  0.00    +0.002 C 
ATOM     14  C   UNL     1      31.637 -12.996 -20.889  0.00  0.00    +0.022 C 
ATOM     15  C   UNL     1      32.689 -13.850 -21.552  0.00  0.00    -0.038 C 
ATOM     16  C   UNL     1      34.927  -7.314 -22.924  0.00  0.00    +0.029 C 
ATOM     17  C   UNL     1      31.874 -13.765 -23.922  0.00  0.00    +0.008 C 
ATOM     18  C   UNL     1      34.221 -14.324 -23.497  0.00  0.00    -0.020 C 
ATOM     19  C   UNL     1      33.273 -14.846 -20.867  0.00  0.00    +0.034 C 
ATOM     20  C   UNL     1      34.807 -15.314 -22.818  0.00  0.00    +0.038 C 
ATOM     21  C   UNL     1      34.356 -15.658 -21.457  0.00  0.00    +0.195 C 
ENDROOT
BRANCH   6  22
ATOM     22  O   UNL     1      33.328  -6.700 -24.538  0.00  0.00    -0.387 OA
ATOM     23  H   UNL     1      34.076  -6.814 -25.143  0.00  0.00    +0.210 HD
ENDBRANCH   6  22
TORSDOF 1
ENDMDL
MODEL 8
REMARK VINA RESULT:      -6.4      1.470      6.423
REMARK  Name = 6300
REMARK  1 active torsions:
REMARK  status: ('A' for Active; 'I' for Inactive)
REMARK    1  A    between atoms: C_6  and  O_22
REMARK                            x       y       z     vdW  Elec       q    Type
REMARK                         _______ _______ _______ _____ _____    ______ ____
ROOT
ATOM      1  O   UNL     1      28.166 -21.611 -15.354  0.00  0.00    -0.287 OA
ATOM      2  C   UNL     1      35.821 -24.391 -13.968  0.00  0.00    +0.023 C 
ATOM      3  C   UNL     1      35.370 -23.379 -15.043  0.00  0.00    +0.002 C 
ATOM      4  C   UNL     1      34.030 -23.752 -15.692  0.00  0.00    +0.001 C 
ATOM      5  C   UNL     1      32.925 -23.810 -14.584  0.00  0.00    +0.007 C 
ATOM      6  C   UNL     1      37.224 -23.814 -13.601  0.00  0.00    +0.088 C 
ATOM      7  C   UNL     1      34.757 -24.397 -12.857  0.00  0.00    +0.002 C 
ATOM      8  C   UNL     1      36.598 -23.238 -15.936  0.00  0.00    +0.002 C 
ATOM      9  C   UNL     1      33.356 -24.725 -13.403  0.00  0.00    +0.001 C 
ATOM     10  C   UNL     1      37.794 -23.373 -14.975  0.00  0.00    +0.027 C 
ATOM     11  C   UNL     1      31.503 -24.138 -15.178  0.00  0.00    +0.034 C 
ATOM     12  C   UNL     1      33.647 -22.755 -16.797  0.00  0.00    +0.004 C 
ATOM     13  C   UNL     1      35.976 -25.841 -14.511  0.00  0.00    +0.002 C 
ATOM     14  C   UNL     1      32.284 -23.076 -17.400  0.00  0.00    +0.022 C 
ATOM     15  C   UNL     1      31.234 -23.152 -16.320  0.00  0.00    -0.038 C 
ATOM     16  C   UNL     1      37.209 -22.630 -12.626  0.00  0.00    +0.029 C 
ATOM     17  C   UNL     1      31.411 -25.582 -15.724  0.00  0.00    +0.008 C 
ATOM     18  C   UNL     1      30.439 -24.031 -14.095  0.00  0.00    -0.020 C 
ATOM     19  C   UNL     1      30.164 -22.342 -16.367  0.00  0.00    +0.034 C 
ATOM     20  C   UNL     1      29.374 -23.225 -14.136  0.00  0.00    +0.038 C 
ATOM     21  C   UNL     1      29.152 -22.336 -15.291  0.00  0.00    +0.195 C 
ENDROOT
BRANCH   6  22
ATOM     22  O   UNL     1      38.068 -24.789 -12.993  0.00  0.00    -0.387 OA
ATOM     23  H   UNL     1      38.674 -25.152 -13.658  0.00  0.00    +0.210 HD
ENDBRANCH   6  22
TORSDOF 1
ENDMDL
MODEL 9
REMARK VINA RESULT:      -6.3      6.172      8.173
REMARK  Name = 6300
REMARK  1 active torsions:
REMARK  status: ('A' for Active; 'I' for Inactive)
REMARK    1  A    between atoms: C_6  and  O_22
REMARK                            x       y       z     vdW  Elec       q    Type
REMARK                         _______ _______ _______ _____ _____    ______ ____
ROOT
ATOM      1  O   UNL     1      35.522 -23.224 -15.566  0.00  0.00    -0.287 OA
ATOM      2  C   UNL     1      35.251 -17.913 -21.889  0.00  0.00    +0.023 C 
ATOM      3  C   UNL     1      34.062 -18.457 -21.068  0.00  0.00    +0.002 C 
ATOM      4  C   UNL     1      34.202 -19.946 -20.724  0.00  0.00    +0.001 C 
ATOM      5  C   UNL     1      35.509 -20.156 -19.886  0.00  0.00    +0.007 C 
ATOM      6  C   UNL     1      34.764 -16.458 -22.171  0.00  0.00    +0.088 C 
ATOM      7  C   UNL     1      36.520 -18.071 -21.034  0.00  0.00    +0.002 C 
ATOM      8  C   UNL     1      32.843 -18.004 -21.865  0.00  0.00    +0.002 C 
ATOM      9  C   UNL     1      36.742 -19.530 -20.598  0.00  0.00    +0.001 C 
ATOM     10  C   UNL     1      33.250 -16.641 -22.455  0.00  0.00    +0.027 C 
ATOM     11  C   UNL     1      35.701 -21.656 -19.448  0.00  0.00    +0.034 C 
ATOM     12  C   UNL     1      32.972 -20.462 -19.961  0.00  0.00    +0.004 C 
ATOM     13  C   UNL     1      35.466 -18.664 -23.235  0.00  0.00    +0.002 C 
ATOM     14  C   UNL     1      33.133 -21.923 -19.553  0.00  0.00    +0.022 C 
ATOM     15  C   UNL     1      34.406 -22.114 -18.768  0.00  0.00    -0.038 C 
ATOM     16  C   UNL     1      34.973 -15.464 -21.020  0.00  0.00    +0.029 C 
ATOM     17  C   UNL     1      35.998 -22.587 -20.646  0.00  0.00    +0.008 C 
ATOM     18  C   UNL     1      36.892 -21.786 -18.510  0.00  0.00    -0.020 C 
ATOM     19  C   UNL     1      34.356 -22.611 -17.521  0.00  0.00    +0.034 C 
ATOM     20  C   UNL     1      36.847 -22.278 -17.268  0.00  0.00    +0.038 C 
ATOM     21  C   UNL     1      35.573 -22.747 -16.694  0.00  0.00    +0.195 C 
ENDROOT
BRANCH   6  22
ATOM     22  O   UNL     1      35.422 -15.874 -23.294  0.00  0.00    -0.387 OA
ATOM     23  H   UNL     1      36.315 -15.598 -23.038  0.00  0.00    +0.210 HD
ENDBRANCH   6  22
TORSDOF 1
ENDMDL
