MODEL 1
REMARK VINA RESULT:      -9.3      0.000      0.000
REMARK  Name = 11149479
REMARK  4 active torsions:
REMARK  status: ('A' for Active; 'I' for Inactive)
REMARK    1  A    between atoms: N_1  and  C_10
REMARK    2  A    between atoms: C_3  and  C_20
REMARK    3  A    between atoms: C_8  and  O_18
REMARK    4  A    between atoms: C_15  and  O_16
REMARK                            x       y       z     vdW  Elec       q    Type
REMARK                         _______ _______ _______ _____ _____    ______ ____
ROOT
ATOM      1  N   UNL     1      34.184 -17.564 -21.637  0.00  0.00    -0.234 N 
ATOM      2  N   UNL     1      33.504 -16.635 -20.935  0.00  0.00    -0.165 NA
ATOM      3  C   UNL     1      34.551 -17.175 -22.892  0.00  0.00    +0.062 A 
ATOM      4  C   UNL     1      34.072 -15.901 -23.009  0.00  0.00    +0.036 A 
ATOM      5  C   UNL     1      33.415 -15.580 -21.764  0.00  0.00    +0.103 A 
ATOM      6  C   UNL     1      34.204 -15.085 -24.124  0.00  0.00    +0.039 C 
ATOM      7  C   UNL     1      32.815 -14.322 -21.575  0.00  0.00    +0.024 C 
ATOM      8  C   UNL     1      33.594 -13.833 -23.908  0.00  0.00    +0.134 C 
ATOM      9  C   UNL     1      32.933 -13.467 -22.694  0.00  0.00    +0.038 C 
ENDROOT
BRANCH   1  10
ATOM     10  C   UNL     1      34.450 -18.802 -21.052  0.00  0.00    +0.083 C 
ATOM     11  C   UNL     1      33.394 -19.634 -20.699  0.00  0.00    +0.022 C 
ATOM     12  C   UNL     1      35.765 -19.187 -20.829  0.00  0.00    +0.022 C 
ATOM     13  C   UNL     1      33.660 -20.871 -20.114  0.00  0.00    +0.038 C 
ATOM     14  C   UNL     1      36.031 -20.424 -20.243  0.00  0.00    +0.038 C 
ATOM     15  C   UNL     1      34.978 -21.267 -19.885  0.00  0.00    +0.134 C 
BRANCH  15  16
ATOM     16  O   UNL     1      35.238 -22.474 -19.314  0.00  0.00    -0.506 OA
ATOM     17  H   UNL     1      35.651 -23.150 -19.815  0.00  0.00    +0.292 HD
ENDBRANCH  15  16
ENDBRANCH   1  10
BRANCH   8  18
ATOM     18  O   UNL     1      33.637 -12.910 -24.920  0.00  0.00    -0.506 OA
ATOM     19  H   UNL     1      33.012 -12.212 -24.944  0.00  0.00    +0.292 HD
ENDBRANCH   8  18
BRANCH   3  20
ATOM     20  C   UNL     1      35.301 -18.041 -23.823  0.00  0.00    +0.046 C 
ATOM     21  C   UNL     1      34.389 -18.851 -24.750  0.00  0.00    +0.007 C 
ENDBRANCH   3  20
TORSDOF 4
ENDMDL
MODEL 2
REMARK VINA RESULT:      -9.0      1.237      2.694
REMARK  Name = 11149479
REMARK  4 active torsions:
REMARK  status: ('A' for Active; 'I' for Inactive)
REMARK    1  A    between atoms: N_1  and  C_10
REMARK    2  A    between atoms: C_3  and  C_20
REMARK    3  A    between atoms: C_8  and  O_18
REMARK    4  A    between atoms: C_15  and  O_16
REMARK                            x       y       z     vdW  Elec       q    Type
REMARK                         _______ _______ _______ _____ _____    ______ ____
ROOT
ATOM      1  N   UNL     1      34.669 -17.585 -22.507  0.00  0.00    -0.234 N 
ATOM      2  N   UNL     1      34.536 -17.841 -23.824  0.00  0.00    -0.165 NA
ATOM      3  C   UNL     1      34.445 -16.287 -22.154  0.00  0.00    +0.062 A 
ATOM      4  C   UNL     1      34.144 -15.659 -23.330  0.00  0.00    +0.036 A 
ATOM      5  C   UNL     1      34.207 -16.657 -24.370  0.00  0.00    +0.103 A 
ATOM      6  C   UNL     1      33.838 -14.312 -23.473  0.00  0.00    +0.039 C 
ATOM      7  C   UNL     1      33.943 -16.313 -25.709  0.00  0.00    +0.024 C 
ATOM      8  C   UNL     1      33.580 -13.996 -24.822  0.00  0.00    +0.134 C 
ATOM      9  C   UNL     1      33.628 -14.948 -25.888  0.00  0.00    +0.038 C 
ENDROOT
BRANCH   1  10
ATOM     10  C   UNL     1      35.012 -18.623 -21.641  0.00  0.00    +0.083 C 
ATOM     11  C   UNL     1      36.343 -18.808 -21.287  0.00  0.00    +0.022 C 
ATOM     12  C   UNL     1      34.020 -19.458 -21.144  0.00  0.00    +0.022 C 
ATOM     13  C   UNL     1      36.686 -19.845 -20.421  0.00  0.00    +0.038 C 
ATOM     14  C   UNL     1      34.364 -20.496 -20.279  0.00  0.00    +0.038 C 
ATOM     15  C   UNL     1      35.698 -20.690 -19.917  0.00  0.00    +0.134 C 
BRANCH  15  16
ATOM     16  O   UNL     1      36.033 -21.703 -19.073  0.00  0.00    -0.506 OA
ATOM     17  H   UNL     1      36.420 -22.487 -19.412  0.00  0.00    +0.292 HD
ENDBRANCH  15  16
ENDBRANCH   1  10
BRANCH   8  18
ATOM     18  O   UNL     1      33.262 -12.699 -25.133  0.00  0.00    -0.506 OA
ATOM     19  H   UNL     1      32.533 -12.283 -24.716  0.00  0.00    +0.292 HD
ENDBRANCH   8  18
BRANCH   3  20
ATOM     20  C   UNL     1      34.539 -15.795 -20.764  0.00  0.00    +0.046 C 
ATOM     21  C   UNL     1      33.200 -15.284 -20.221  0.00  0.00    +0.007 C 
ENDBRANCH   3  20
TORSDOF 4
ENDMDL
MODEL 3
REMARK VINA RESULT:      -8.7      4.625      6.926
REMARK  Name = 11149479
REMARK  4 active torsions:
REMARK  status: ('A' for Active; 'I' for Inactive)
REMARK    1  A    between atoms: N_1  and  C_10
REMARK    2  A    between atoms: C_3  and  C_20
REMARK    3  A    between atoms: C_8  and  O_18
REMARK    4  A    between atoms: C_15  and  O_16
REMARK                            x       y       z     vdW  Elec       q    Type
REMARK                         _______ _______ _______ _____ _____    ______ ____
ROOT
ATOM      1  N   UNL     1      33.575 -11.848 -23.980  0.00  0.00    -0.234 N 
ATOM      2  N   UNL     1      34.452 -10.964 -24.495  0.00  0.00    -0.165 NA
ATOM      3  C   UNL     1      32.700 -11.323 -23.076  0.00  0.00    +0.062 A 
ATOM      4  C   UNL     1      33.037 -10.001 -23.001  0.00  0.00    +0.036 A 
ATOM      5  C   UNL     1      34.144  -9.795 -23.904  0.00  0.00    +0.103 A 
ATOM      6  C   UNL     1      32.417  -9.050 -22.201  0.00  0.00    +0.039 C 
ATOM      7  C   UNL     1      34.721  -8.521 -24.050  0.00  0.00    +0.024 C 
ATOM      8  C   UNL     1      33.015  -7.785 -22.367  0.00  0.00    +0.134 C 
ATOM      9  C   UNL     1      34.112  -7.531 -23.248  0.00  0.00    +0.038 C 
ENDROOT
BRANCH   1  10
ATOM     10  C   UNL     1      33.626 -13.180 -24.394  0.00  0.00    +0.083 C 
ATOM     11  C   UNL     1      34.164 -14.140 -23.546  0.00  0.00    +0.022 C 
ATOM     12  C   UNL     1      33.140 -13.528 -25.647  0.00  0.00    +0.022 C 
ATOM     13  C   UNL     1      34.215 -15.470 -23.959  0.00  0.00    +0.038 C 
ATOM     14  C   UNL     1      33.192 -14.858 -26.060  0.00  0.00    +0.038 C 
ATOM     15  C   UNL     1      33.730 -15.831 -25.217  0.00  0.00    +0.134 C 
BRANCH  15  16
ATOM     16  O   UNL     1      33.780 -17.129 -25.620  0.00  0.00    -0.506 OA
ATOM     17  H   UNL     1      33.248 -17.418 -26.336  0.00  0.00    +0.292 HD
ENDBRANCH  15  16
ENDBRANCH   1  10
BRANCH   8  18
ATOM     18  O   UNL     1      32.516  -6.734 -21.642  0.00  0.00    -0.506 OA
ATOM     19  H   UNL     1      31.987  -6.896 -20.886  0.00  0.00    +0.292 HD
ENDBRANCH   8  18
BRANCH   3  20
ATOM     20  C   UNL     1      31.659 -12.120 -22.395  0.00  0.00    +0.046 C 
ATOM     21  C   UNL     1      32.049 -12.513 -20.966  0.00  0.00    +0.007 C 
ENDBRANCH   3  20
TORSDOF 4
ENDMDL
MODEL 4
REMARK VINA RESULT:      -8.6      5.168      9.865
REMARK  Name = 11149479
REMARK  4 active torsions:
REMARK  status: ('A' for Active; 'I' for Inactive)
REMARK    1  A    between atoms: N_1  and  C_10
REMARK    2  A    between atoms: C_3  and  C_20
REMARK    3  A    between atoms: C_8  and  O_18
REMARK    4  A    between atoms: C_15  and  O_16
REMARK                            x       y       z     vdW  Elec       q    Type
REMARK                         _______ _______ _______ _____ _____    ______ ____
ROOT
ATOM      1  N   UNL     1      32.199  -9.931 -22.530  0.00  0.00    -0.234 N 
ATOM      2  N   UNL     1      33.024 -10.274 -23.539  0.00  0.00    -0.165 NA
ATOM      3  C   UNL     1      31.770 -10.975 -21.764  0.00  0.00    +0.062 A 
ATOM      4  C   UNL     1      32.364 -12.073 -22.319  0.00  0.00    +0.036 A 
ATOM      5  C   UNL     1      33.150 -11.609 -23.437  0.00  0.00    +0.103 A 
ATOM      6  C   UNL     1      32.223 -13.381 -21.875  0.00  0.00    +0.039 C 
ATOM      7  C   UNL     1      33.888 -12.517 -24.219  0.00  0.00    +0.024 C 
ATOM      8  C   UNL     1      32.972 -14.268 -22.676  0.00  0.00    +0.134 C 
ATOM      9  C   UNL     1      33.766 -13.858 -23.792  0.00  0.00    +0.038 C 
ENDROOT
BRANCH   1  10
ATOM     10  C   UNL     1      31.858  -8.590 -22.353  0.00  0.00    +0.083 C 
ATOM     11  C   UNL     1      31.035  -7.964 -23.281  0.00  0.00    +0.022 C 
ATOM     12  C   UNL     1      32.346  -7.898 -21.252  0.00  0.00    +0.022 C 
ATOM     13  C   UNL     1      30.695  -6.624 -23.104  0.00  0.00    +0.038 C 
ATOM     14  C   UNL     1      32.006  -6.557 -21.076  0.00  0.00    +0.038 C 
ATOM     15  C   UNL     1      31.180  -5.919 -22.002  0.00  0.00    +0.134 C 
BRANCH  15  16
ATOM     16  O   UNL     1      30.848  -4.611 -21.829  0.00  0.00    -0.506 OA
ATOM     17  H   UNL     1      30.518  -4.317 -21.003  0.00  0.00    +0.292 HD
ENDBRANCH  15  16
ENDBRANCH   1  10
BRANCH   8  18
ATOM     18  O   UNL     1      32.938 -15.603 -22.367  0.00  0.00    -0.506 OA
ATOM     19  H   UNL     1      33.302 -16.230 -22.959  0.00  0.00    +0.292 HD
ENDBRANCH   8  18
BRANCH   3  20
ATOM     20  C   UNL     1      30.862 -10.816 -20.610  0.00  0.00    +0.046 C 
ATOM     21  C   UNL     1      31.589 -10.895 -19.264  0.00  0.00    +0.007 C 
ENDBRANCH   3  20
TORSDOF 4
ENDMDL
MODEL 5
REMARK VINA RESULT:      -8.6      3.181      7.191
REMARK  Name = 11149479
REMARK  4 active torsions:
REMARK  status: ('A' for Active; 'I' for Inactive)
REMARK    1  A    between atoms: N_1  and  C_10
REMARK    2  A    between atoms: C_3  and  C_20
REMARK    3  A    between atoms: C_8  and  O_18
REMARK    4  A    between atoms: C_15  and  O_16
REMARK                            x       y       z     vdW  Elec       q    Type
REMARK                         _______ _______ _______ _____ _____    ______ ____
ROOT
ATOM      1  N   UNL     1      33.725 -13.856 -23.634  0.00  0.00    -0.234 N 
ATOM      2  N   UNL     1      34.459 -14.441 -22.667  0.00  0.00    -0.165 NA
ATOM      3  C   UNL     1      33.425 -14.664 -24.691  0.00  0.00    +0.062 A 
ATOM      4  C   UNL     1      34.010 -15.861 -24.383  0.00  0.00    +0.036 A 
ATOM      5  C   UNL     1      34.656 -15.698 -23.103  0.00  0.00    +0.103 A 
ATOM      6  C   UNL     1      33.975 -17.005 -25.169  0.00  0.00    +0.039 C 
ATOM      7  C   UNL     1      35.352 -16.769 -22.511  0.00  0.00    +0.024 C 
ATOM      8  C   UNL     1      34.679 -18.059 -24.553  0.00  0.00    +0.134 C 
ATOM      9  C   UNL     1      35.335 -17.949 -23.287  0.00  0.00    +0.038 C 
ENDROOT
BRANCH   1  10
ATOM     10  C   UNL     1      33.343 -12.522 -23.488  0.00  0.00    +0.083 C 
ATOM     11  C   UNL     1      32.291 -12.200 -22.640  0.00  0.00    +0.022 C 
ATOM     12  C   UNL     1      34.019 -11.534 -24.192  0.00  0.00    +0.022 C 
ATOM     13  C   UNL     1      31.909 -10.867 -22.494  0.00  0.00    +0.038 C 
ATOM     14  C   UNL     1      33.636 -10.201 -24.047  0.00  0.00    +0.038 C 
ATOM     15  C   UNL     1      32.581  -9.867 -23.197  0.00  0.00    +0.134 C 
BRANCH  15  16
ATOM     16  O   UNL     1      32.208  -8.566 -23.055  0.00  0.00    -0.506 OA
ATOM     17  H   UNL     1      32.842  -7.921 -22.810  0.00  0.00    +0.292 HD
ENDBRANCH  15  16
ENDBRANCH   1  10
BRANCH   8  18
ATOM     18  O   UNL     1      34.739 -19.263 -25.206  0.00  0.00    -0.506 OA
ATOM     19  H   UNL     1      34.805 -19.287 -26.140  0.00  0.00    +0.292 HD
ENDBRANCH   8  18
BRANCH   3  20
ATOM     20  C   UNL     1      32.632 -14.219 -25.855  0.00  0.00    +0.046 C 
ATOM     21  C   UNL     1      33.503 -13.756 -27.027  0.00  0.00    +0.007 C 
ENDBRANCH   3  20
TORSDOF 4
ENDMDL
MODEL 6
REMARK VINA RESULT:      -8.5      3.123      7.286
REMARK  Name = 11149479
REMARK  4 active torsions:
REMARK  status: ('A' for Active; 'I' for Inactive)
REMARK    1  A    between atoms: N_1  and  C_10
REMARK    2  A    between atoms: C_3  and  C_20
REMARK    3  A    between atoms: C_8  and  O_18
REMARK    4  A    between atoms: C_15  and  O_16
REMARK                            x       y       z     vdW  Elec       q    Type
REMARK                         _______ _______ _______ _____ _____    ______ ____
ROOT
ATOM      1  N   UNL     1      33.431 -13.925 -23.488  0.00  0.00    -0.234 N 
ATOM      2  N   UNL     1      33.383 -14.415 -24.742  0.00  0.00    -0.165 NA
ATOM      3  C   UNL     1      33.901 -14.798 -22.552  0.00  0.00    +0.062 A 
ATOM      4  C   UNL     1      34.178 -15.937 -23.255  0.00  0.00    +0.036 A 
ATOM      5  C   UNL     1      33.844 -15.674 -24.634  0.00  0.00    +0.103 A 
ATOM      6  C   UNL     1      34.685 -17.115 -22.722  0.00  0.00    +0.039 C 
ATOM      7  C   UNL     1      34.021 -16.666 -25.615  0.00  0.00    +0.024 C 
ATOM      8  C   UNL     1      34.851 -18.090 -23.726  0.00  0.00    +0.134 C 
ATOM      9  C   UNL     1      34.536 -17.878 -25.104  0.00  0.00    +0.038 C 
ENDROOT
BRANCH   1  10
ATOM     10  C   UNL     1      33.012 -12.615 -23.250  0.00  0.00    +0.083 C 
ATOM     11  C   UNL     1      33.665 -11.563 -23.879  0.00  0.00    +0.022 C 
ATOM     12  C   UNL     1      31.950 -12.381 -22.387  0.00  0.00    +0.022 C 
ATOM     13  C   UNL     1      33.247 -10.254 -23.641  0.00  0.00    +0.038 C 
ATOM     14  C   UNL     1      31.532 -11.072 -22.149  0.00  0.00    +0.038 C 
ATOM     15  C   UNL     1      32.181 -10.008 -22.776  0.00  0.00    +0.134 C 
BRANCH  15  16
ATOM     16  O   UNL     1      31.773  -8.731 -22.544  0.00  0.00    -0.506 OA
ATOM     17  H   UNL     1      31.985  -8.053 -23.155  0.00  0.00    +0.292 HD
ENDBRANCH  15  16
ENDBRANCH   1  10
BRANCH   8  18
ATOM     18  O   UNL     1      35.345 -19.316 -23.360  0.00  0.00    -0.506 OA
ATOM     19  H   UNL     1      35.220 -19.629 -22.486  0.00  0.00    +0.292 HD
ENDBRANCH   8  18
BRANCH   3  20
ATOM     20  C   UNL     1      34.034 -14.461 -21.120  0.00  0.00    +0.046 C 
ATOM     21  C   UNL     1      32.881 -15.007 -20.270  0.00  0.00    +0.007 C 
ENDBRANCH   3  20
TORSDOF 4
ENDMDL
MODEL 7
REMARK VINA RESULT:      -8.5      5.697      8.650
REMARK  Name = 11149479
REMARK  4 active torsions:
REMARK  status: ('A' for Active; 'I' for Inactive)
REMARK    1  A    between atoms: N_1  and  C_10
REMARK    2  A    between atoms: C_3  and  C_20
REMARK    3  A    between atoms: C_8  and  O_18
REMARK    4  A    between atoms: C_15  and  O_16
REMARK                            x       y       z     vdW  Elec       q    Type
REMARK                         _______ _______ _______ _____ _____    ______ ____
ROOT
ATOM      1  N   UNL     1      35.559 -23.287 -16.188  0.00  0.00    -0.234 N 
ATOM      2  N   UNL     1      36.430 -22.627 -16.977  0.00  0.00    -0.165 NA
ATOM      3  C   UNL     1      34.262 -23.241 -16.607  0.00  0.00    +0.062 A 
ATOM      4  C   UNL     1      34.299 -22.497 -17.753  0.00  0.00    +0.036 A 
ATOM      5  C   UNL     1      35.675 -22.120 -17.968  0.00  0.00    +0.103 A 
ATOM      6  C   UNL     1      33.205 -22.176 -18.546  0.00  0.00    +0.039 C 
ATOM      7  C   UNL     1      36.038 -21.340 -19.081  0.00  0.00    +0.024 C 
ATOM      8  C   UNL     1      33.597 -21.395 -19.652  0.00  0.00    +0.134 C 
ATOM      9  C   UNL     1      34.946 -20.997 -19.909  0.00  0.00    +0.038 C 
ENDROOT
BRANCH   1  10
ATOM     10  C   UNL     1      36.029 -23.939 -15.048  0.00  0.00    +0.083 C 
ATOM     11  C   UNL     1      36.428 -25.267 -15.134  0.00  0.00    +0.022 C 
ATOM     12  C   UNL     1      36.093 -23.253 -13.842  0.00  0.00    +0.022 C 
ATOM     13  C   UNL     1      36.898 -25.919 -13.995  0.00  0.00    +0.038 C 
ATOM     14  C   UNL     1      36.562 -23.905 -12.703  0.00  0.00    +0.038 C 
ATOM     15  C   UNL     1      36.965 -25.239 -12.778  0.00  0.00    +0.134 C 
BRANCH  15  16
ATOM     16  O   UNL     1      37.423 -25.875 -11.667  0.00  0.00    -0.506 OA
ATOM     17  H   UNL     1      38.252 -25.638 -11.299  0.00  0.00    +0.292 HD
ENDBRANCH  15  16
ENDBRANCH   1  10
BRANCH   8  18
ATOM     18  O   UNL     1      32.629 -20.993 -20.535  0.00  0.00    -0.506 OA
ATOM     19  H   UNL     1      32.117 -20.230 -20.354  0.00  0.00    +0.292 HD
ENDBRANCH   8  18
BRANCH   3  20
ATOM     20  C   UNL     1      33.151 -23.897 -15.887  0.00  0.00    +0.046 C 
ATOM     21  C   UNL     1      32.450 -22.963 -14.896  0.00  0.00    +0.007 C 
ENDBRANCH   3  20
TORSDOF 4
ENDMDL
MODEL 8
REMARK VINA RESULT:      -8.4      7.927     10.756
REMARK  Name = 11149479
REMARK  4 active torsions:
REMARK  status: ('A' for Active; 'I' for Inactive)
REMARK    1  A    between atoms: N_1  and  C_10
REMARK    2  A    between atoms: C_3  and  C_20
REMARK    3  A    between atoms: C_8  and  O_18
REMARK    4  A    between atoms: C_15  and  O_16
REMARK                            x       y       z     vdW  Elec       q    Type
REMARK                         _______ _______ _______ _____ _____    ______ ____
ROOT
ATOM      1  N   UNL     1      35.311 -24.122 -15.616  0.00  0.00    -0.234 N 
ATOM      2  N   UNL     1      35.484 -25.398 -15.219  0.00  0.00    -0.165 NA
ATOM      3  C   UNL     1      36.455 -23.380 -15.667  0.00  0.00    +0.062 A 
ATOM      4  C   UNL     1      37.439 -24.242 -15.273  0.00  0.00    +0.036 A 
ATOM      5  C   UNL     1      36.806 -25.509 -14.996  0.00  0.00    +0.103 A 
ATOM      6  C   UNL     1      38.789 -23.935 -15.167  0.00  0.00    +0.039 C 
ATOM      7  C   UNL     1      37.567 -26.610 -14.565  0.00  0.00    +0.024 C 
ATOM      8  C   UNL     1      39.527 -25.055 -14.734  0.00  0.00    +0.134 C 
ATOM      9  C   UNL     1      38.947 -26.330 -14.447  0.00  0.00    +0.038 C 
ENDROOT
BRANCH   1  10
ATOM     10  C   UNL     1      34.028 -23.673 -15.932  0.00  0.00    +0.083 C 
ATOM     11  C   UNL     1      33.079 -23.548 -14.926  0.00  0.00    +0.022 C 
ATOM     12  C   UNL     1      33.717 -23.358 -17.248  0.00  0.00    +0.022 C 
ATOM     13  C   UNL     1      31.797 -23.100 -15.241  0.00  0.00    +0.038 C 
ATOM     14  C   UNL     1      32.434 -22.911 -17.564  0.00  0.00    +0.038 C 
ATOM     15  C   UNL     1      31.474 -22.782 -16.561  0.00  0.00    +0.134 C 
BRANCH  15  16
ATOM     16  O   UNL     1      30.223 -22.345 -16.869  0.00  0.00    -0.506 OA
ATOM     17  H   UNL     1      29.478 -22.881 -16.674  0.00  0.00    +0.292 HD
ENDBRANCH  15  16
ENDBRANCH   1  10
BRANCH   8  18
ATOM     18  O   UNL     1      40.882 -24.915 -14.578  0.00  0.00    -0.506 OA
ATOM     19  H   UNL     1      41.385 -25.612 -14.204  0.00  0.00    +0.292 HD
ENDBRANCH   8  18
BRANCH   3  20
ATOM     20  C   UNL     1      36.485 -21.961 -16.076  0.00  0.00    +0.046 C 
ATOM     21  C   UNL     1      36.919 -21.770 -17.533  0.00  0.00    +0.007 C 
ENDBRANCH   3  20
TORSDOF 4
ENDMDL
MODEL 9
REMARK VINA RESULT:      -8.4      4.290      6.276
REMARK  Name = 11149479
REMARK  4 active torsions:
REMARK  status: ('A' for Active; 'I' for Inactive)
REMARK    1  A    between atoms: N_1  and  C_10
REMARK    2  A    between atoms: C_3  and  C_20
REMARK    3  A    between atoms: C_8  and  O_18
REMARK    4  A    between atoms: C_15  and  O_16
REMARK                            x       y       z     vdW  Elec       q    Type
REMARK                         _______ _______ _______ _____ _____    ______ ____
ROOT
ATOM      1  N   UNL     1      33.126 -12.656 -23.611  0.00  0.00    -0.234 N 
ATOM      2  N   UNL     1      32.390 -12.606 -22.483  0.00  0.00    -0.165 NA
ATOM      3  C   UNL     1      33.454 -11.439 -24.133  0.00  0.00    +0.062 A 
ATOM      4  C   UNL     1      32.887 -10.536 -23.277  0.00  0.00    +0.036 A 
ATOM      5  C   UNL     1      32.221 -11.293 -22.244  0.00  0.00    +0.103 A 
ATOM      6  C   UNL     1      32.952  -9.155 -23.398  0.00  0.00    +0.039 C 
ATOM      7  C   UNL     1      31.537 -10.637 -21.205  0.00  0.00    +0.024 C 
ATOM      8  C   UNL     1      32.259  -8.524 -22.345  0.00  0.00    +0.134 C 
ATOM      9  C   UNL     1      31.585  -9.228 -21.299  0.00  0.00    +0.038 C 
ENDROOT
BRANCH   1  10
ATOM     10  C   UNL     1      33.482 -13.897 -24.139  0.00  0.00    +0.083 C 
ATOM     11  C   UNL     1      34.348 -14.720 -23.430  0.00  0.00    +0.022 C 
ATOM     12  C   UNL     1      32.966 -14.294 -25.366  0.00  0.00    +0.022 C 
ATOM     13  C   UNL     1      34.704 -15.960 -23.958  0.00  0.00    +0.038 C 
ATOM     14  C   UNL     1      33.323 -15.534 -25.894  0.00  0.00    +0.038 C 
ATOM     15  C   UNL     1      34.193 -16.368 -25.190  0.00  0.00    +0.134 C 
BRANCH  15  16
ATOM     16  O   UNL     1      34.540 -17.578 -25.706  0.00  0.00    -0.506 OA
ATOM     17  H   UNL     1      34.412 -18.357 -25.200  0.00  0.00    +0.292 HD
ENDBRANCH  15  16
ENDBRANCH   1  10
BRANCH   8  18
ATOM     18  O   UNL     1      32.229  -7.154 -22.321  0.00  0.00    -0.506 OA
ATOM     19  H   UNL     1      31.541  -6.708 -21.868  0.00  0.00    +0.292 HD
ENDBRANCH   8  18
BRANCH   3  20
ATOM     20  C   UNL     1      34.254 -11.271 -25.363  0.00  0.00    +0.046 C 
ATOM     21  C   UNL     1      35.403 -10.272 -25.194  0.00  0.00    +0.007 C 
ENDBRANCH   3  20
TORSDOF 4
ENDMDL
