MODEL 1
REMARK VINA RESULT:      -8.4      0.000      0.000
REMARK  Name = 2817424
REMARK  6 active torsions:
REMARK  status: ('A' for Active; 'I' for Inactive)
REMARK    1  A    between atoms: C_4  and  C_7
REMARK    2  A    between atoms: C_5  and  S_14
REMARK    3  A    between atoms: C_9  and  N_13
REMARK    4  A    between atoms: S_14  and  C_15
REMARK    5  A    between atoms: C_15  and  C_17
REMARK    6  A    between atoms: C_17  and  O_18
REMARK                            x       y       z     vdW  Elec       q    Type
REMARK                         _______ _______ _______ _____ _____    ______ ____
ROOT
ATOM      1  O   UNL     1      33.802 -23.840 -15.243  0.00  0.00    -0.408 OA
ATOM      2  N   UNL     1      33.376 -23.054 -17.294  0.00  0.00    -0.103 NA
ATOM      3  N   UNL     1      34.748 -23.145 -17.148  0.00  0.00    -0.101 NA
ATOM      4  C   UNL     1      32.868 -23.470 -16.159  0.00  0.00    +0.285 A 
ATOM      5  C   UNL     1      34.951 -23.608 -15.937  0.00  0.00    +0.279 A 
ENDROOT
BRANCH   4   7
ATOM      6  O   UNL     1      30.556 -23.062 -16.795  0.00  0.00    -0.428 OA
ATOM      7  C   UNL     1      31.473 -23.527 -15.906  0.00  0.00    +0.202 C 
ATOM      8  C   UNL     1      30.849 -24.031 -14.788  0.00  0.00    +0.047 C 
ATOM      9  C   UNL     1      29.334 -23.271 -16.239  0.00  0.00    +0.289 C 
ATOM     10  C   UNL     1      29.460 -23.866 -15.005  0.00  0.00    +0.066 C 
BRANCH   9  13
ATOM     11  O   UNL     1      27.637 -23.692 -17.743  0.00  0.00    -0.123 OA
ATOM     12  O   UNL     1      27.865 -21.651 -16.969  0.00  0.00    -0.123 OA
ATOM     13  N   UNL     1      28.245 -22.858 -17.009  0.00  0.00    +0.093 N 
ENDBRANCH   9  13
ENDBRANCH   4   7
BRANCH   5  14
ATOM     14  S   UNL     1      36.527 -23.899 -15.265  0.00  0.00    -0.043 S 
BRANCH  14  15
ATOM     15  C   UNL     1      36.331 -25.510 -14.431  0.00  0.00    +0.176 C 
BRANCH  15  17
ATOM     16  O   UNL     1      38.353 -26.807 -14.631  0.00  0.00    -0.249 OA
ATOM     17  C   UNL     1      37.245 -26.516 -15.067  0.00  0.00    +0.325 C 
BRANCH  17  18
ATOM     18  O   UNL     1      36.708 -27.086 -16.174  0.00  0.00    -0.480 OA
ATOM     19  H   UNL     1      37.012 -27.924 -16.464  0.00  0.00    +0.295 HD
ENDBRANCH  17  18
ENDBRANCH  15  17
ENDBRANCH  14  15
ENDBRANCH   5  14
TORSDOF 6
ENDMDL
MODEL 2
REMARK VINA RESULT:      -8.3      1.849      2.218
REMARK  Name = 2817424
REMARK  6 active torsions:
REMARK  status: ('A' for Active; 'I' for Inactive)
REMARK    1  A    between atoms: C_4  and  C_7
REMARK    2  A    between atoms: C_5  and  S_14
REMARK    3  A    between atoms: C_9  and  N_13
REMARK    4  A    between atoms: S_14  and  C_15
REMARK    5  A    between atoms: C_15  and  C_17
REMARK    6  A    between atoms: C_17  and  O_18
REMARK                            x       y       z     vdW  Elec       q    Type
REMARK                         _______ _______ _______ _____ _____    ______ ____
ROOT
ATOM      1  O   UNL     1      33.325 -23.586 -14.826  0.00  0.00    -0.408 OA
ATOM      2  N   UNL     1      33.222 -23.381 -17.051  0.00  0.00    -0.103 NA
ATOM      3  N   UNL     1      34.548 -23.277 -16.674  0.00  0.00    -0.101 NA
ATOM      4  C   UNL     1      32.548 -23.561 -15.940  0.00  0.00    +0.285 A 
ATOM      5  C   UNL     1      34.561 -23.402 -15.367  0.00  0.00    +0.279 A 
ENDROOT
BRANCH   4   7
ATOM      6  O   UNL     1      30.309 -22.982 -16.694  0.00  0.00    -0.428 OA
ATOM      7  C   UNL     1      31.137 -23.712 -15.902  0.00  0.00    +0.202 C 
ATOM      8  C   UNL     1      30.413 -24.571 -15.108  0.00  0.00    +0.047 C 
ATOM      9  C   UNL     1      29.042 -23.377 -16.402  0.00  0.00    +0.289 C 
ATOM     10  C   UNL     1      29.053 -24.354 -15.433  0.00  0.00    +0.066 C 
BRANCH   9  13
ATOM     11  O   UNL     1      27.625 -21.594 -16.759  0.00  0.00    -0.123 OA
ATOM     12  O   UNL     1      27.524 -23.299 -18.136  0.00  0.00    -0.123 OA
ATOM     13  N   UNL     1      28.032 -22.737 -17.121  0.00  0.00    +0.093 N 
ENDBRANCH   9  13
ENDBRANCH   4   7
BRANCH   5  14
ATOM     14  S   UNL     1      36.008 -23.338 -14.406  0.00  0.00    -0.043 S 
BRANCH  14  15
ATOM     15  C   UNL     1      35.928 -24.882 -13.435  0.00  0.00    +0.176 C 
BRANCH  15  17
ATOM     16  O   UNL     1      35.671 -25.218 -11.063  0.00  0.00    -0.249 OA
ATOM     17  C   UNL     1      35.378 -24.585 -12.071  0.00  0.00    +0.325 C 
BRANCH  17  18
ATOM     18  O   UNL     1      34.530 -23.527 -12.065  0.00  0.00    -0.480 OA
ATOM     19  H   UNL     1      34.568 -22.900 -11.370  0.00  0.00    +0.295 HD
ENDBRANCH  17  18
ENDBRANCH  15  17
ENDBRANCH  14  15
ENDBRANCH   5  14
TORSDOF 6
ENDMDL
MODEL 3
REMARK VINA RESULT:      -8.2      3.039      3.889
REMARK  Name = 2817424
REMARK  6 active torsions:
REMARK  status: ('A' for Active; 'I' for Inactive)
REMARK    1  A    between atoms: C_4  and  C_7
REMARK    2  A    between atoms: C_5  and  S_14
REMARK    3  A    between atoms: C_9  and  N_13
REMARK    4  A    between atoms: S_14  and  C_15
REMARK    5  A    between atoms: C_15  and  C_17
REMARK    6  A    between atoms: C_17  and  O_18
REMARK                            x       y       z     vdW  Elec       q    Type
REMARK                         _______ _______ _______ _____ _____    ______ ____
ROOT
ATOM      1  O   UNL     1      36.057 -24.561 -14.506  0.00  0.00    -0.408 OA
ATOM      2  N   UNL     1      34.447 -24.285 -12.978  0.00  0.00    -0.103 NA
ATOM      3  N   UNL     1      35.587 -24.712 -12.324  0.00  0.00    -0.101 NA
ATOM      4  C   UNL     1      34.770 -24.211 -14.247  0.00  0.00    +0.285 A 
ATOM      5  C   UNL     1      36.501 -24.861 -13.254  0.00  0.00    +0.279 A 
ENDROOT
BRANCH   4   7
ATOM      6  O   UNL     1      34.265 -23.522 -16.525  0.00  0.00    -0.428 OA
ATOM      7  C   UNL     1      33.860 -23.807 -15.259  0.00  0.00    +0.202 C 
ATOM      8  C   UNL     1      32.499 -23.646 -15.139  0.00  0.00    +0.047 C 
ATOM      9  C   UNL     1      33.151 -23.175 -17.220  0.00  0.00    +0.289 C 
ATOM     10  C   UNL     1      32.038 -23.235 -16.413  0.00  0.00    +0.066 C 
BRANCH   9  13
ATOM     11  O   UNL     1      33.952 -23.657 -19.328  0.00  0.00    -0.123 OA
ATOM     12  O   UNL     1      32.949 -21.731 -19.007  0.00  0.00    -0.123 OA
ATOM     13  N   UNL     1      33.358 -22.843 -18.561  0.00  0.00    +0.093 N 
ENDBRANCH   9  13
ENDBRANCH   4   7
BRANCH   5  14
ATOM     14  S   UNL     1      38.125 -25.392 -12.936  0.00  0.00    -0.043 S 
BRANCH  14  15
ATOM     15  C   UNL     1      38.673 -26.039 -14.551  0.00  0.00    +0.176 C 
BRANCH  15  17
ATOM     16  O   UNL     1      40.697 -24.813 -14.095  0.00  0.00    -0.249 OA
ATOM     17  C   UNL     1      40.063 -25.552 -14.840  0.00  0.00    +0.325 C 
BRANCH  17  18
ATOM     18  O   UNL     1      40.554 -26.029 -16.010  0.00  0.00    -0.480 OA
ATOM     19  H   UNL     1      40.767 -25.437 -16.705  0.00  0.00    +0.295 HD
ENDBRANCH  17  18
ENDBRANCH  15  17
ENDBRANCH  14  15
ENDBRANCH   5  14
TORSDOF 6
ENDMDL
MODEL 4
REMARK VINA RESULT:      -8.2      3.246      7.578
REMARK  Name = 2817424
REMARK  6 active torsions:
REMARK  status: ('A' for Active; 'I' for Inactive)
REMARK    1  A    between atoms: C_4  and  C_7
REMARK    2  A    between atoms: C_5  and  S_14
REMARK    3  A    between atoms: C_9  and  N_13
REMARK    4  A    between atoms: S_14  and  C_15
REMARK    5  A    between atoms: C_15  and  C_17
REMARK    6  A    between atoms: C_17  and  O_18
REMARK                            x       y       z     vdW  Elec       q    Type
REMARK                         _______ _______ _______ _____ _____    ______ ____
ROOT
ATOM      1  O   UNL     1      31.791 -24.577 -14.433  0.00  0.00    -0.408 OA
ATOM      2  N   UNL     1      32.934 -23.197 -15.771  0.00  0.00    -0.103 NA
ATOM      3  N   UNL     1      31.611 -23.181 -16.171  0.00  0.00    -0.101 NA
ATOM      4  C   UNL     1      32.990 -24.024 -14.755  0.00  0.00    +0.285 A 
ATOM      5  C   UNL     1      30.981 -24.001 -15.363  0.00  0.00    +0.279 A 
ENDROOT
BRANCH   4   7
ATOM      6  O   UNL     1      34.292 -24.196 -12.708  0.00  0.00    -0.428 OA
ATOM      7  C   UNL     1      34.190 -24.318 -14.057  0.00  0.00    +0.202 C 
ATOM      8  C   UNL     1      35.381 -24.751 -14.594  0.00  0.00    +0.047 C 
ATOM      9  C   UNL     1      35.560 -24.554 -12.378  0.00  0.00    +0.289 C 
ATOM     10  C   UNL     1      36.271 -24.905 -13.504  0.00  0.00    +0.066 C 
BRANCH   9  13
ATOM     11  O   UNL     1      35.158 -25.132 -10.183  0.00  0.00    -0.123 OA
ATOM     12  O   UNL     1      36.855 -23.812 -10.621  0.00  0.00    -0.123 OA
ATOM     13  N   UNL     1      35.867 -24.497 -11.018  0.00  0.00    +0.093 N 
ENDBRANCH   9  13
ENDBRANCH   4   7
BRANCH   5  14
ATOM     14  S   UNL     1      29.278 -24.333 -15.459  0.00  0.00    -0.043 S 
BRANCH  14  15
ATOM     15  C   UNL     1      28.548 -22.682 -15.725  0.00  0.00    +0.176 C 
BRANCH  15  17
ATOM     16  O   UNL     1      27.600 -23.674 -17.707  0.00  0.00    -0.249 OA
ATOM     17  C   UNL     1      27.764 -22.683 -17.005  0.00  0.00    +0.325 C 
BRANCH  17  18
ATOM     18  O   UNL     1      27.238 -21.468 -17.300  0.00  0.00    -0.480 OA
ATOM     19  H   UNL     1      27.440 -20.727 -16.762  0.00  0.00    +0.295 HD
ENDBRANCH  17  18
ENDBRANCH  15  17
ENDBRANCH  14  15
ENDBRANCH   5  14
TORSDOF 6
ENDMDL
MODEL 5
REMARK VINA RESULT:      -8.2      8.353     10.279
REMARK  Name = 2817424
REMARK  6 active torsions:
REMARK  status: ('A' for Active; 'I' for Inactive)
REMARK    1  A    between atoms: C_4  and  C_7
REMARK    2  A    between atoms: C_5  and  S_14
REMARK    3  A    between atoms: C_9  and  N_13
REMARK    4  A    between atoms: S_14  and  C_15
REMARK    5  A    between atoms: C_15  and  C_17
REMARK    6  A    between atoms: C_17  and  O_18
REMARK                            x       y       z     vdW  Elec       q    Type
REMARK                         _______ _______ _______ _____ _____    ______ ____
ROOT
ATOM      1  O   UNL     1      34.878 -18.860 -22.750  0.00  0.00    -0.408 OA
ATOM      2  N   UNL     1      35.287 -17.579 -20.962  0.00  0.00    -0.103 NA
ATOM      3  N   UNL     1      35.117 -16.748 -22.054  0.00  0.00    -0.101 NA
ATOM      4  C   UNL     1      35.138 -18.800 -21.417  0.00  0.00    +0.285 A 
ATOM      5  C   UNL     1      34.881 -17.538 -23.075  0.00  0.00    +0.279 A 
ENDROOT
BRANCH   4   7
ATOM      6  O   UNL     1      34.158 -20.701 -20.259  0.00  0.00    -0.428 OA
ATOM      7  C   UNL     1      35.241 -19.953 -20.596  0.00  0.00    +0.202 C 
ATOM      8  C   UNL     1      36.383 -20.478 -20.038  0.00  0.00    +0.047 C 
ATOM      9  C   UNL     1      34.613 -21.714 -19.477  0.00  0.00    +0.289 C 
ATOM     10  C   UNL     1      35.976 -21.622 -19.311  0.00  0.00    +0.066 C 
BRANCH   9  13
ATOM     11  O   UNL     1      33.867 -23.853 -19.042  0.00  0.00    -0.123 OA
ATOM     12  O   UNL     1      32.534 -22.169 -18.589  0.00  0.00    -0.123 OA
ATOM     13  N   UNL     1      33.640 -22.607 -19.022  0.00  0.00    +0.093 N 
ENDBRANCH   9  13
ENDBRANCH   4   7
BRANCH   5  14
ATOM     14  S   UNL     1      34.602 -16.969 -24.693  0.00  0.00    -0.043 S 
BRANCH  14  15
ATOM     15  C   UNL     1      33.672 -15.420 -24.432  0.00  0.00    +0.176 C 
BRANCH  15  17
ATOM     16  O   UNL     1      33.283 -15.394 -26.811  0.00  0.00    -0.249 OA
ATOM     17  C   UNL     1      33.394 -14.776 -25.759  0.00  0.00    +0.325 C 
BRANCH  17  18
ATOM     18  O   UNL     1      33.261 -13.429 -25.670  0.00  0.00    -0.480 OA
ATOM     19  H   UNL     1      32.794 -13.051 -24.952  0.00  0.00    +0.295 HD
ENDBRANCH  17  18
ENDBRANCH  15  17
ENDBRANCH  14  15
ENDBRANCH   5  14
TORSDOF 6
ENDMDL
MODEL 6
REMARK VINA RESULT:      -8.1      3.574      4.730
REMARK  Name = 2817424
REMARK  6 active torsions:
REMARK  status: ('A' for Active; 'I' for Inactive)
REMARK    1  A    between atoms: C_4  and  C_7
REMARK    2  A    between atoms: C_5  and  S_14
REMARK    3  A    between atoms: C_9  and  N_13
REMARK    4  A    between atoms: S_14  and  C_15
REMARK    5  A    between atoms: C_15  and  C_17
REMARK    6  A    between atoms: C_17  and  O_18
REMARK                            x       y       z     vdW  Elec       q    Type
REMARK                         _______ _______ _______ _____ _____    ______ ____
ROOT
ATOM      1  O   UNL     1      32.601 -22.319 -18.192  0.00  0.00    -0.408 OA
ATOM      2  N   UNL     1      33.338 -23.456 -16.413  0.00  0.00    -0.103 NA
ATOM      3  N   UNL     1      34.414 -23.228 -17.250  0.00  0.00    -0.101 NA
ATOM      4  C   UNL     1      32.304 -22.907 -17.003  0.00  0.00    +0.285 A 
ATOM      5  C   UNL     1      33.938 -22.563 -18.276  0.00  0.00    +0.279 A 
ENDROOT
BRANCH   4   7
ATOM      6  O   UNL     1      29.897 -22.611 -17.192  0.00  0.00    -0.428 OA
ATOM      7  C   UNL     1      30.995 -22.927 -16.456  0.00  0.00    +0.202 C 
ATOM      8  C   UNL     1      30.636 -23.251 -15.168  0.00  0.00    +0.047 C 
ATOM      9  C   UNL     1      28.826 -22.733 -16.366  0.00  0.00    +0.289 C 
ATOM     10  C   UNL     1      29.227 -23.125 -15.109  0.00  0.00    +0.066 C 
BRANCH   9  13
ATOM     11  O   UNL     1      27.298 -22.916 -18.083  0.00  0.00    -0.123 OA
ATOM     12  O   UNL     1      26.752 -21.726 -16.322  0.00  0.00    -0.123 OA
ATOM     13  N   UNL     1      27.586 -22.449 -16.942  0.00  0.00    +0.093 N 
ENDBRANCH   9  13
ENDBRANCH   4   7
BRANCH   5  14
ATOM     14  S   UNL     1      34.905 -22.038 -19.621  0.00  0.00    -0.043 S 
BRANCH  14  15
ATOM     15  C   UNL     1      33.988 -20.592 -20.252  0.00  0.00    +0.176 C 
BRANCH  15  17
ATOM     16  O   UNL     1      35.917 -19.165 -20.477  0.00  0.00    -0.249 OA
ATOM     17  C   UNL     1      34.931 -19.684 -20.986  0.00  0.00    +0.325 C 
BRANCH  17  18
ATOM     18  O   UNL     1      34.585 -19.508 -22.286  0.00  0.00    -0.480 OA
ATOM     19  H   UNL     1      34.065 -18.770 -22.536  0.00  0.00    +0.295 HD
ENDBRANCH  17  18
ENDBRANCH  15  17
ENDBRANCH  14  15
ENDBRANCH   5  14
TORSDOF 6
ENDMDL
MODEL 7
REMARK VINA RESULT:      -8.1      1.861      2.084
REMARK  Name = 2817424
REMARK  6 active torsions:
REMARK  status: ('A' for Active; 'I' for Inactive)
REMARK    1  A    between atoms: C_4  and  C_7
REMARK    2  A    between atoms: C_5  and  S_14
REMARK    3  A    between atoms: C_9  and  N_13
REMARK    4  A    between atoms: S_14  and  C_15
REMARK    5  A    between atoms: C_15  and  C_17
REMARK    6  A    between atoms: C_17  and  O_18
REMARK                            x       y       z     vdW  Elec       q    Type
REMARK                         _______ _______ _______ _____ _____    ______ ____
ROOT
ATOM      1  O   UNL     1      33.902 -24.221 -15.266  0.00  0.00    -0.408 OA
ATOM      2  N   UNL     1      33.378 -24.221 -13.091  0.00  0.00    -0.103 NA
ATOM      3  N   UNL     1      34.752 -24.117 -13.199  0.00  0.00    -0.101 NA
ATOM      4  C   UNL     1      32.927 -24.278 -14.321  0.00  0.00    +0.285 A 
ATOM      5  C   UNL     1      35.014 -24.121 -14.485  0.00  0.00    +0.279 A 
ENDROOT
BRANCH   4   7
ATOM      6  O   UNL     1      30.992 -23.739 -15.693  0.00  0.00    -0.428 OA
ATOM      7  C   UNL     1      31.548 -24.392 -14.639  0.00  0.00    +0.202 C 
ATOM      8  C   UNL     1      30.600 -25.137 -13.977  0.00  0.00    +0.047 C 
ATOM      9  C   UNL     1      29.674 -24.069 -15.704  0.00  0.00    +0.289 C 
ATOM     10  C   UNL     1      29.383 -24.928 -14.669  0.00  0.00    +0.066 C 
BRANCH   9  13
ATOM     11  O   UNL     1      29.170 -22.313 -17.110  0.00  0.00    -0.123 OA
ATOM     12  O   UNL     1      27.984 -24.152 -17.270  0.00  0.00    -0.123 OA
ATOM     13  N   UNL     1      28.918 -23.493 -16.727  0.00  0.00    +0.093 N 
ENDBRANCH   9  13
ENDBRANCH   4   7
BRANCH   5  14
ATOM     14  S   UNL     1      36.618 -24.014 -15.145  0.00  0.00    -0.043 S 
BRANCH  14  15
ATOM     15  C   UNL     1      37.660 -24.704 -13.815  0.00  0.00    +0.176 C 
BRANCH  15  17
ATOM     16  O   UNL     1      38.176 -26.913 -14.629  0.00  0.00    -0.249 OA
ATOM     17  C   UNL     1      37.570 -26.202 -13.836  0.00  0.00    +0.325 C 
BRANCH  17  18
ATOM     18  O   UNL     1      36.754 -26.692 -12.870  0.00  0.00    -0.480 OA
ATOM     19  H   UNL     1      36.286 -26.105 -12.310  0.00  0.00    +0.295 HD
ENDBRANCH  17  18
ENDBRANCH  15  17
ENDBRANCH  14  15
ENDBRANCH   5  14
TORSDOF 6
ENDMDL
MODEL 8
REMARK VINA RESULT:      -7.9      7.826      9.979
REMARK  Name = 2817424
REMARK  6 active torsions:
REMARK  status: ('A' for Active; 'I' for Inactive)
REMARK    1  A    between atoms: C_4  and  C_7
REMARK    2  A    between atoms: C_5  and  S_14
REMARK    3  A    between atoms: C_9  and  N_13
REMARK    4  A    between atoms: S_14  and  C_15
REMARK    5  A    between atoms: C_15  and  C_17
REMARK    6  A    between atoms: C_17  and  O_18
REMARK                            x       y       z     vdW  Elec       q    Type
REMARK                         _______ _______ _______ _____ _____    ______ ____
ROOT
ATOM      1  O   UNL     1      34.280 -17.501 -21.934  0.00  0.00    -0.408 OA
ATOM      2  N   UNL     1      34.914 -19.156 -23.299  0.00  0.00    -0.103 NA
ATOM      3  N   UNL     1      35.026 -17.964 -23.992  0.00  0.00    -0.101 NA
ATOM      4  C   UNL     1      34.477 -18.835 -22.105  0.00  0.00    +0.285 A 
ATOM      5  C   UNL     1      34.645 -17.026 -23.157  0.00  0.00    +0.279 A 
ENDROOT
BRANCH   4   7
ATOM      6  O   UNL     1      35.233 -20.379 -20.385  0.00  0.00    -0.428 OA
ATOM      7  C   UNL     1      34.229 -19.790 -21.085  0.00  0.00    +0.202 C 
ATOM      8  C   UNL     1      33.006 -20.252 -20.657  0.00  0.00    +0.047 C 
ATOM      9  C   UNL     1      34.646 -21.228 -19.501  0.00  0.00    +0.289 C 
ATOM     10  C   UNL     1      33.276 -21.186 -19.628  0.00  0.00    +0.066 C 
BRANCH   9  13
ATOM     11  O   UNL     1      35.068 -22.808 -17.876  0.00  0.00    -0.123 OA
ATOM     12  O   UNL     1      36.765 -21.710 -18.730  0.00  0.00    -0.123 OA
ATOM     13  N   UNL     1      35.520 -21.937 -18.676  0.00  0.00    +0.093 N 
ENDBRANCH   9  13
ENDBRANCH   4   7
BRANCH   5  14
ATOM     14  S   UNL     1      34.600 -15.336 -23.559  0.00  0.00    -0.043 S 
BRANCH  14  15
ATOM     15  C   UNL     1      34.207 -14.541 -21.964  0.00  0.00    +0.176 C 
BRANCH  15  17
ATOM     16  O   UNL     1      32.112 -13.371 -22.180  0.00  0.00    -0.249 OA
ATOM     17  C   UNL     1      32.720 -14.378 -21.840  0.00  0.00    +0.325 C 
BRANCH  17  18
ATOM     18  O   UNL     1      32.113 -15.476 -21.325  0.00  0.00    -0.480 OA
ATOM     19  H   UNL     1      31.355 -15.833 -21.744  0.00  0.00    +0.295 HD
ENDBRANCH  17  18
ENDBRANCH  15  17
ENDBRANCH  14  15
ENDBRANCH   5  14
TORSDOF 6
ENDMDL
MODEL 9
REMARK VINA RESULT:      -7.9      4.710      7.296
REMARK  Name = 2817424
REMARK  6 active torsions:
REMARK  status: ('A' for Active; 'I' for Inactive)
REMARK    1  A    between atoms: C_4  and  C_7
REMARK    2  A    between atoms: C_5  and  S_14
REMARK    3  A    between atoms: C_9  and  N_13
REMARK    4  A    between atoms: S_14  and  C_15
REMARK    5  A    between atoms: C_15  and  C_17
REMARK    6  A    between atoms: C_17  and  O_18
REMARK                            x       y       z     vdW  Elec       q    Type
REMARK                         _______ _______ _______ _____ _____    ______ ____
ROOT
ATOM      1  O   UNL     1      32.378 -22.142 -18.013  0.00  0.00    -0.408 OA
ATOM      2  N   UNL     1      34.465 -22.902 -18.278  0.00  0.00    -0.103 NA
ATOM      3  N   UNL     1      33.853 -23.666 -17.302  0.00  0.00    -0.101 NA
ATOM      4  C   UNL     1      33.566 -22.028 -18.663  0.00  0.00    +0.285 A 
ATOM      5  C   UNL     1      32.637 -23.187 -17.180  0.00  0.00    +0.279 A 
ENDROOT
BRANCH   4   7
ATOM      6  O   UNL     1      35.050 -20.547 -19.895  0.00  0.00    -0.428 OA
ATOM      7  C   UNL     1      33.810 -21.051 -19.663  0.00  0.00    +0.202 C 
ATOM      8  C   UNL     1      32.891 -20.484 -20.515  0.00  0.00    +0.047 C 
ATOM      9  C   UNL     1      34.922 -19.648 -20.906  0.00  0.00    +0.289 C 
ATOM     10  C   UNL     1      33.613 -19.573 -21.322  0.00  0.00    +0.066 C 
BRANCH   9  13
ATOM     11  O   UNL     1      36.072 -18.133 -22.210  0.00  0.00    -0.123 OA
ATOM     12  O   UNL     1      37.198 -19.314 -20.742  0.00  0.00    -0.123 OA
ATOM     13  N   UNL     1      36.101 -19.012 -21.299  0.00  0.00    +0.093 N 
ENDBRANCH   9  13
ENDBRANCH   4   7
BRANCH   5  14
ATOM     14  S   UNL     1      31.460 -23.812 -16.064  0.00  0.00    -0.043 S 
BRANCH  14  15
ATOM     15  C   UNL     1      29.923 -22.967 -16.568  0.00  0.00    +0.176 C 
BRANCH  15  17
ATOM     16  O   UNL     1      28.562 -24.476 -15.271  0.00  0.00    -0.249 OA
ATOM     17  C   UNL     1      28.751 -23.873 -16.321  0.00  0.00    +0.325 C 
BRANCH  17  18
ATOM     18  O   UNL     1      27.909 -23.942 -17.382  0.00  0.00    -0.480 OA
ATOM     19  H   UNL     1      27.088 -24.385 -17.299  0.00  0.00    +0.295 HD
ENDBRANCH  17  18
ENDBRANCH  15  17
ENDBRANCH  14  15
ENDBRANCH   5  14
TORSDOF 6
ENDMDL
