MODEL 1
REMARK VINA RESULT:     -10.4      0.000      0.000
REMARK  Name = 5311356
REMARK  5 active torsions:
REMARK  status: ('A' for Active; 'I' for Inactive)
REMARK    1  A    between atoms: C_12  and  O_21
REMARK    2  A    between atoms: C_18  and  O_23
REMARK    3  A    between atoms: O_23  and  C_24
REMARK    4  A    between atoms: C_24  and  C_25
REMARK    5  A    between atoms: C_25  and  N_27
REMARK                            x       y       z     vdW  Elec       q    Type
REMARK                         _______ _______ _______ _____ _____    ______ ____
ROOT
ATOM      1  O   UNL     1      31.589 -11.238 -22.803  0.00  0.00    -0.473 OA
ATOM      2  N   UNL     1      31.574  -6.034 -23.466  0.00  0.00    +0.387 N 
ATOM      3  C   UNL     1      31.488  -8.811 -22.624  0.00  0.00    +0.061 C 
ATOM      4  C   UNL     1      31.877  -7.670 -21.674  0.00  0.00    +0.010 C 
ATOM      5  C   UNL     1      32.594  -6.583 -22.539  0.00  0.00    -0.049 C 
ATOM      6  C   UNL     1      31.025 -10.147 -21.995  0.00  0.00    +0.200 C 
ATOM      7  C   UNL     1      30.504  -8.279 -23.685  0.00  0.00    -0.015 C 
ATOM      8  C   UNL     1      32.728  -9.320 -23.282  0.00  0.00    +0.014 C 
ATOM      9  C   UNL     1      33.893  -7.121 -23.232  0.00  0.00    +0.006 C 
ATOM     10  C   UNL     1      31.026  -7.022 -24.401  0.00  0.00    -0.077 C 
ATOM     11  C   UNL     1      33.835  -8.569 -23.638  0.00  0.00    -0.025 C 
ATOM     12  C   UNL     1      31.398 -10.313 -20.499  0.00  0.00    +0.172 C 
ATOM     13  C   UNL     1      32.683  -8.173 -20.503  0.00  0.00    -0.030 C 
ATOM     14  C   UNL     1      32.690 -10.691 -23.404  0.00  0.00    +0.168 C 
ATOM     15  C   UNL     1      32.471  -9.391 -19.985  0.00  0.00    +0.002 C 
ATOM     16  C   UNL     1      34.890  -9.244 -24.255  0.00  0.00    -0.001 C 
ATOM     17  C   UNL     1      32.011  -4.828 -24.161  0.00  0.00    -0.101 C 
ATOM     18  C   UNL     1      33.715 -11.376 -24.017  0.00  0.00    +0.172 C 
ATOM     19  C   UNL     1      34.817 -10.636 -24.460  0.00  0.00    +0.040 C 
ATOM     20  H   UNL     1      30.805  -5.763 -22.853  0.00  0.00    -0.080 HD
ENDROOT
BRANCH  12  21
ATOM     21  O   UNL     1      31.740 -11.670 -20.232  0.00  0.00    -0.377 OA
ATOM     22  H   UNL     1      31.008 -12.247 -20.500  0.00  0.00    +0.211 HD
ENDBRANCH  12  21
BRANCH  18  23
ATOM     23  O   UNL     1      33.681 -12.724 -24.160  0.00  0.00    -0.475 OA
BRANCH  23  24
ATOM     24  C   UNL     1      34.118 -13.510 -23.048  0.00  0.00    +0.183 C 
BRANCH  24  25
ATOM     25  C   UNL     1      33.054 -14.551 -22.738  0.00  0.00    -0.029 C 
BRANCH  25  27
ATOM     26  O   UNL     1      35.898 -17.616 -22.368  0.00  0.00    -0.358 OA
ATOM     27  N   UNL     1      33.657 -15.872 -22.572  0.00  0.00    +0.393 N 
ATOM     28  C   UNL     1      34.464 -16.229 -23.747  0.00  0.00    -0.044 C 
ATOM     29  C   UNL     1      34.488 -15.918 -21.360  0.00  0.00    -0.044 C 
ATOM     30  C   UNL     1      35.091 -17.605 -23.547  0.00  0.00    +0.119 C 
ATOM     31  C   UNL     1      35.116 -17.302 -21.215  0.00  0.00    +0.119 C 
ATOM     32  H   UNL     1      32.903 -16.551 -22.476  0.00  0.00    -0.079 HD
ENDBRANCH  25  27
ENDBRANCH  24  25
ENDBRANCH  23  24
ENDBRANCH  18  23
TORSDOF 5
ENDMDL
MODEL 2
REMARK VINA RESULT:      -7.5     13.850     16.900
REMARK  Name = 5311356
REMARK  5 active torsions:
REMARK  status: ('A' for Active; 'I' for Inactive)
REMARK    1  A    between atoms: C_12  and  O_21
REMARK    2  A    between atoms: C_18  and  O_23
REMARK    3  A    between atoms: O_23  and  C_24
REMARK    4  A    between atoms: C_24  and  C_25
REMARK    5  A    between atoms: C_25  and  N_27
REMARK                            x       y       z     vdW  Elec       q    Type
REMARK                         _______ _______ _______ _____ _____    ______ ____
ROOT
ATOM      1  O   UNL     1      34.119 -24.585 -15.201  0.00  0.00    -0.473 OA
ATOM      2  N   UNL     1      39.176 -25.838 -14.586  0.00  0.00    +0.387 N 
ATOM      3  C   UNL     1      36.538 -24.857 -15.296  0.00  0.00    +0.061 C 
ATOM      4  C   UNL     1      37.818 -24.049 -15.552  0.00  0.00    +0.010 C 
ATOM      5  C   UNL     1      38.819 -24.410 -14.407  0.00  0.00    -0.049 C 
ATOM      6  C   UNL     1      35.274 -24.481 -16.105  0.00  0.00    +0.200 C 
ATOM      7  C   UNL     1      36.863 -26.363 -15.363  0.00  0.00    -0.015 C 
ATOM      8  C   UNL     1      36.020 -24.503 -13.941  0.00  0.00    +0.014 C 
ATOM      9  C   UNL     1      38.272 -24.040 -12.985  0.00  0.00    +0.006 C 
ATOM     10  C   UNL     1      38.041 -26.757 -14.456  0.00  0.00    -0.077 C 
ATOM     11  C   UNL     1      36.781 -24.181 -12.831  0.00  0.00    -0.025 C 
ATOM     12  C   UNL     1      35.333 -23.081 -16.771  0.00  0.00    +0.172 C 
ATOM     13  C   UNL     1      37.527 -22.576 -15.690  0.00  0.00    -0.030 C 
ATOM     14  C   UNL     1      34.646 -24.424 -13.947  0.00  0.00    +0.168 C 
ATOM     15  C   UNL     1      36.379 -22.142 -16.231  0.00  0.00    +0.002 C 
ATOM     16  C   UNL     1      36.094 -23.888 -11.651  0.00  0.00    -0.001 C 
ATOM     17  C   UNL     1      40.302 -26.263 -13.761  0.00  0.00    -0.101 C 
ATOM     18  C   UNL     1      33.946 -24.147 -12.794  0.00  0.00    +0.172 C 
ATOM     19  C   UNL     1      34.685 -23.893 -11.632  0.00  0.00    +0.040 C 
ATOM     20  H   UNL     1      39.482 -25.895 -15.557  0.00  0.00    -0.080 HD
ENDROOT
BRANCH  12  21
ATOM     21  O   UNL     1      34.047 -22.469 -16.729  0.00  0.00    -0.377 OA
ATOM     22  H   UNL     1      33.428 -23.050 -16.261  0.00  0.00    +0.211 HD
ENDBRANCH  12  21
BRANCH  18  23
ATOM     23  O   UNL     1      32.592 -24.086 -12.783  0.00  0.00    -0.475 OA
BRANCH  23  24
ATOM     24  C   UNL     1      31.885 -25.092 -13.513  0.00  0.00    +0.183 C 
BRANCH  24  25
ATOM     25  C   UNL     1      30.444 -24.644 -13.692  0.00  0.00    -0.029 C 
BRANCH  25  27
ATOM     26  O   UNL     1      29.128 -22.478 -17.038  0.00  0.00    -0.358 OA
ATOM     27  N   UNL     1      30.197 -24.241 -15.075  0.00  0.00    +0.393 N 
ATOM     28  C   UNL     1      28.755 -24.181 -15.352  0.00  0.00    -0.044 C 
ATOM     29  C   UNL     1      30.817 -22.940 -15.359  0.00  0.00    -0.044 C 
ATOM     30  C   UNL     1      28.521 -23.748 -16.795  0.00  0.00    +0.119 C 
ATOM     31  C   UNL     1      30.535 -22.535 -16.803  0.00  0.00    +0.119 C 
ATOM     32  H   UNL     1      30.616 -24.943 -15.685  0.00  0.00    -0.079 HD
ENDBRANCH  25  27
ENDBRANCH  24  25
ENDBRANCH  23  24
ENDBRANCH  18  23
TORSDOF 5
ENDMDL
