MODEL 1
REMARK VINA RESULT:      -6.4      0.000      0.000
REMARK  Name = 23342
REMARK  6 active torsions:
REMARK  status: ('A' for Active; 'I' for Inactive)
REMARK    1  A    between atoms: C_1  and  N_2
REMARK    2  A    between atoms: C_1  and  C_10
REMARK    3  A    between atoms: C_10  and  O_11
REMARK    4  A    between atoms: O_11  and  P_12
REMARK    5  A    between atoms: P_12  and  O_14
REMARK    6  A    between atoms: P_12  and  O_16
REMARK                            x       y       z     vdW  Elec       q    Type
REMARK                         _______ _______ _______ _____ _____    ______ ____
ROOT
ATOM      1  C   UNL     1      37.517 -24.356 -14.385  0.00  0.00    +0.137 C 
ENDROOT
BRANCH   1   2
ATOM      2  N   UNL     1      36.850 -24.164 -13.098  0.00  0.00    -0.316 N 
ATOM      3  N   UNL     1      36.760 -23.600 -10.807  0.00  0.00    -0.370 N 
ATOM      4  N   UNL     1      38.812 -23.525 -11.869  0.00  0.00    -0.269 NA
ATOM      5  C   UNL     1      35.408 -24.404 -13.087  0.00  0.00    +0.128 C 
ATOM      6  C   UNL     1      37.527 -23.759 -11.940  0.00  0.00    +0.192 C 
ATOM      7  H   UNL     1      35.791 -23.770 -10.840  0.00  0.00    +0.159 HD
ATOM      8  H   UNL     1      37.182 -23.315  -9.965  0.00  0.00    +0.159 HD
ATOM      9  H   UNL     1      39.377 -23.633 -12.668  0.00  0.00    +0.190 HD
ENDBRANCH   1   2
BRANCH   1  10
ATOM     10  C   UNL     1      37.832 -25.820 -14.636  0.00  0.00    +0.178 C 
BRANCH  10  11
ATOM     11  O   UNL     1      38.987 -26.189 -13.894  0.00  0.00    -0.271 OA
BRANCH  11  12
ATOM     12  P   UNL     1      40.437 -25.764 -14.469  0.00  0.00    +0.473 P 
ATOM     13  O   UNL     1      40.945 -24.435 -13.994  0.00  0.00    -0.227 OA
BRANCH  12  14
ATOM     14  O   UNL     1      40.273 -25.910 -16.071  0.00  0.00    -0.303 OA
ATOM     15  H   UNL     1      39.331 -25.911 -16.302  0.00  0.00    +0.222 HD
ENDBRANCH  12  14
BRANCH  12  16
ATOM     16  O   UNL     1      41.363 -27.030 -14.073  0.00  0.00    -0.303 OA
ATOM     17  H   UNL     1      42.255 -26.721 -13.848  0.00  0.00    +0.222 HD
ENDBRANCH  12  16
ENDBRANCH  11  12
ENDBRANCH  10  11
ENDBRANCH   1  10
TORSDOF 6
ENDMDL
MODEL 2
REMARK VINA RESULT:      -6.2      2.228      2.344
REMARK  Name = 23342
REMARK  6 active torsions:
REMARK  status: ('A' for Active; 'I' for Inactive)
REMARK    1  A    between atoms: C_1  and  N_2
REMARK    2  A    between atoms: C_1  and  C_10
REMARK    3  A    between atoms: C_10  and  O_11
REMARK    4  A    between atoms: O_11  and  P_12
REMARK    5  A    between atoms: P_12  and  O_14
REMARK    6  A    between atoms: P_12  and  O_16
REMARK                            x       y       z     vdW  Elec       q    Type
REMARK                         _______ _______ _______ _____ _____    ______ ____
ROOT
ATOM      1  C   UNL     1      36.770 -26.020 -15.187  0.00  0.00    +0.137 C 
ENDROOT
BRANCH   1   2
ATOM      2  N   UNL     1      36.180 -24.684 -15.116  0.00  0.00    -0.316 N 
ATOM      3  N   UNL     1      36.190 -22.335 -15.353  0.00  0.00    -0.370 N 
ATOM      4  N   UNL     1      38.134 -23.487 -15.837  0.00  0.00    -0.269 NA
ATOM      5  C   UNL     1      34.783 -24.628 -14.691  0.00  0.00    +0.128 C 
ATOM      6  C   UNL     1      36.885 -23.519 -15.448  0.00  0.00    +0.192 C 
ATOM      7  H   UNL     1      35.248 -22.338 -15.064  0.00  0.00    +0.159 HD
ATOM      8  H   UNL     1      36.633 -21.485 -15.576  0.00  0.00    +0.159 HD
ATOM      9  H   UNL     1      38.649 -24.324 -15.911  0.00  0.00    +0.190 HD
ENDBRANCH   1   2
BRANCH   1  10
ATOM     10  C   UNL     1      37.619 -26.319 -13.964  0.00  0.00    +0.178 C 
BRANCH  10  11
ATOM     11  O   UNL     1      38.857 -26.884 -14.376  0.00  0.00    -0.271 OA
BRANCH  11  12
ATOM     12  P   UNL     1      40.142 -25.911 -14.501  0.00  0.00    +0.473 P 
ATOM     13  O   UNL     1      40.027 -24.609 -13.766  0.00  0.00    -0.227 OA
BRANCH  12  14
ATOM     14  O   UNL     1      40.376 -25.787 -16.097  0.00  0.00    -0.303 OA
ATOM     15  H   UNL     1      39.630 -25.314 -16.498  0.00  0.00    +0.222 HD
ENDBRANCH  12  14
BRANCH  12  16
ATOM     16  O   UNL     1      41.359 -26.863 -14.020  0.00  0.00    -0.303 OA
ATOM     17  H   UNL     1      41.334 -27.695 -14.517  0.00  0.00    +0.222 HD
ENDBRANCH  12  16
ENDBRANCH  11  12
ENDBRANCH  10  11
ENDBRANCH   1  10
TORSDOF 6
ENDMDL
MODEL 3
REMARK VINA RESULT:      -6.1      1.027      1.716
REMARK  Name = 23342
REMARK  6 active torsions:
REMARK  status: ('A' for Active; 'I' for Inactive)
REMARK    1  A    between atoms: C_1  and  N_2
REMARK    2  A    between atoms: C_1  and  C_10
REMARK    3  A    between atoms: C_10  and  O_11
REMARK    4  A    between atoms: O_11  and  P_12
REMARK    5  A    between atoms: P_12  and  O_14
REMARK    6  A    between atoms: P_12  and  O_16
REMARK                            x       y       z     vdW  Elec       q    Type
REMARK                         _______ _______ _______ _____ _____    ______ ____
ROOT
ATOM      1  C   UNL     1      36.563 -23.193 -14.324  0.00  0.00    +0.137 C 
ENDROOT
BRANCH   1   2
ATOM      2  N   UNL     1      36.261 -23.519 -12.931  0.00  0.00    -0.316 N 
ATOM      3  N   UNL     1      36.696 -23.569 -10.611  0.00  0.00    -0.370 N 
ATOM      4  N   UNL     1      38.292 -22.638 -12.000  0.00  0.00    -0.269 NA
ATOM      5  C   UNL     1      34.974 -24.172 -12.696  0.00  0.00    +0.128 C 
ATOM      6  C   UNL     1      37.127 -23.219 -11.871  0.00  0.00    +0.192 C 
ATOM      7  H   UNL     1      35.822 -24.007 -10.493  0.00  0.00    +0.159 HD
ATOM      8  H   UNL     1      37.263 -23.381  -9.828  0.00  0.00    +0.159 HD
ATOM      9  H   UNL     1      38.618 -22.380 -12.893  0.00  0.00    +0.190 HD
ENDBRANCH   1   2
BRANCH   1  10
ATOM     10  C   UNL     1      37.273 -24.337 -15.023  0.00  0.00    +0.178 C 
BRANCH  10  11
ATOM     11  O   UNL     1      38.676 -24.106 -15.002  0.00  0.00    -0.271 OA
BRANCH  11  12
ATOM     12  P   UNL     1      39.654 -25.348 -14.666  0.00  0.00    +0.473 P 
ATOM     13  O   UNL     1      39.035 -26.443 -13.848  0.00  0.00    -0.227 OA
BRANCH  12  14
ATOM     14  O   UNL     1      40.956 -24.647 -14.011  0.00  0.00    -0.303 OA
ATOM     15  H   UNL     1      41.319 -25.221 -13.319  0.00  0.00    +0.222 HD
ENDBRANCH  12  14
BRANCH  12  16
ATOM     16  O   UNL     1      40.173 -25.800 -16.131  0.00  0.00    -0.303 OA
ATOM     17  H   UNL     1      40.648 -26.643 -16.059  0.00  0.00    +0.222 HD
ENDBRANCH  12  16
ENDBRANCH  11  12
ENDBRANCH  10  11
ENDBRANCH   1  10
TORSDOF 6
ENDMDL
MODEL 4
REMARK VINA RESULT:      -5.9      3.886      4.717
REMARK  Name = 23342
REMARK  6 active torsions:
REMARK  status: ('A' for Active; 'I' for Inactive)
REMARK    1  A    between atoms: C_1  and  N_2
REMARK    2  A    between atoms: C_1  and  C_10
REMARK    3  A    between atoms: C_10  and  O_11
REMARK    4  A    between atoms: O_11  and  P_12
REMARK    5  A    between atoms: P_12  and  O_14
REMARK    6  A    between atoms: P_12  and  O_16
REMARK                            x       y       z     vdW  Elec       q    Type
REMARK                         _______ _______ _______ _____ _____    ______ ____
ROOT
ATOM      1  C   UNL     1      37.034 -25.959 -14.013  0.00  0.00    +0.137 C 
ENDROOT
BRANCH   1   2
ATOM      2  N   UNL     1      36.915 -24.755 -14.834  0.00  0.00    -0.316 N 
ATOM      3  N   UNL     1      37.754 -22.967 -16.128  0.00  0.00    -0.370 N 
ATOM      4  N   UNL     1      39.271 -24.416 -15.158  0.00  0.00    -0.269 NA
ATOM      5  C   UNL     1      35.552 -24.301 -15.104  0.00  0.00    +0.128 C 
ATOM      6  C   UNL     1      38.024 -24.074 -15.354  0.00  0.00    +0.192 C 
ATOM      7  H   UNL     1      36.822 -22.693 -16.288  0.00  0.00    +0.159 HD
ATOM      8  H   UNL     1      38.494 -22.450 -16.521  0.00  0.00    +0.159 HD
ATOM      9  H   UNL     1      39.485 -25.205 -14.608  0.00  0.00    +0.190 HD
ENDBRANCH   1   2
BRANCH   1  10
ATOM     10  C   UNL     1      37.481 -25.628 -12.600  0.00  0.00    +0.178 C 
BRANCH  10  11
ATOM     11  O   UNL     1      36.343 -25.543 -11.753  0.00  0.00    -0.271 OA
BRANCH  11  12
ATOM     12  P   UNL     1      36.009 -24.123 -11.055  0.00  0.00    +0.473 P 
ATOM     13  O   UNL     1      37.166 -23.173 -10.963  0.00  0.00    -0.227 OA
BRANCH  12  14
ATOM     14  O   UNL     1      35.338 -24.536  -9.644  0.00  0.00    -0.303 OA
ATOM     15  H   UNL     1      35.989 -25.009  -9.102  0.00  0.00    +0.222 HD
ENDBRANCH  12  14
BRANCH  12  16
ATOM     16  O   UNL     1      34.753 -23.586 -11.922  0.00  0.00    -0.303 OA
ATOM     17  H   UNL     1      34.601 -22.648 -11.725  0.00  0.00    +0.222 HD
ENDBRANCH  12  16
ENDBRANCH  11  12
ENDBRANCH  10  11
ENDBRANCH   1  10
TORSDOF 6
ENDMDL
MODEL 5
REMARK VINA RESULT:      -5.9      2.019      2.661
REMARK  Name = 23342
REMARK  6 active torsions:
REMARK  status: ('A' for Active; 'I' for Inactive)
REMARK    1  A    between atoms: C_1  and  N_2
REMARK    2  A    between atoms: C_1  and  C_10
REMARK    3  A    between atoms: C_10  and  O_11
REMARK    4  A    between atoms: O_11  and  P_12
REMARK    5  A    between atoms: P_12  and  O_14
REMARK    6  A    between atoms: P_12  and  O_16
REMARK                            x       y       z     vdW  Elec       q    Type
REMARK                         _______ _______ _______ _____ _____    ______ ____
ROOT
ATOM      1  C   UNL     1      36.541 -25.929 -15.015  0.00  0.00    +0.137 C 
ENDROOT
BRANCH   1   2
ATOM      2  N   UNL     1      35.836 -24.795 -14.419  0.00  0.00    -0.316 N 
ATOM      3  N   UNL     1      34.430 -22.899 -14.462  0.00  0.00    -0.370 N 
ATOM      4  N   UNL     1      34.873 -23.973 -16.460  0.00  0.00    -0.269 NA
ATOM      5  C   UNL     1      35.981 -24.646 -12.972  0.00  0.00    +0.128 C 
ATOM      6  C   UNL     1      35.051 -23.906 -15.166  0.00  0.00    +0.192 C 
ATOM      7  H   UNL     1      34.551 -22.832 -13.487  0.00  0.00    +0.159 HD
ATOM      8  H   UNL     1      33.865 -22.246 -14.934  0.00  0.00    +0.159 HD
ATOM      9  H   UNL     1      35.308 -24.686 -16.981  0.00  0.00    +0.190 HD
ENDBRANCH   1   2
BRANCH   1  10
ATOM     10  C   UNL     1      37.445 -26.616 -14.008  0.00  0.00    +0.178 C 
BRANCH  10  11
ATOM     11  O   UNL     1      38.680 -26.947 -14.629  0.00  0.00    -0.271 OA
BRANCH  11  12
ATOM     12  P   UNL     1      39.882 -25.867 -14.574  0.00  0.00    +0.473 P 
ATOM     13  O   UNL     1      39.545 -24.575 -13.889  0.00  0.00    -0.227 OA
BRANCH  12  14
ATOM     14  O   UNL     1      40.348 -25.731 -16.116  0.00  0.00    -0.303 OA
ATOM     15  H   UNL     1      40.270 -26.593 -16.555  0.00  0.00    +0.222 HD
ENDBRANCH  12  14
BRANCH  12  16
ATOM     16  O   UNL     1      41.086 -26.707 -13.894  0.00  0.00    -0.303 OA
ATOM     17  H   UNL     1      41.351 -27.428 -14.486  0.00  0.00    +0.222 HD
ENDBRANCH  12  16
ENDBRANCH  11  12
ENDBRANCH  10  11
ENDBRANCH   1  10
TORSDOF 6
ENDMDL
MODEL 6
REMARK VINA RESULT:      -5.9      2.794      3.702
REMARK  Name = 23342
REMARK  6 active torsions:
REMARK  status: ('A' for Active; 'I' for Inactive)
REMARK    1  A    between atoms: C_1  and  N_2
REMARK    2  A    between atoms: C_1  and  C_10
REMARK    3  A    between atoms: C_10  and  O_11
REMARK    4  A    between atoms: O_11  and  P_12
REMARK    5  A    between atoms: P_12  and  O_14
REMARK    6  A    between atoms: P_12  and  O_16
REMARK                            x       y       z     vdW  Elec       q    Type
REMARK                         _______ _______ _______ _____ _____    ______ ____
ROOT
ATOM      1  C   UNL     1      35.678 -23.087 -14.702  0.00  0.00    +0.137 C 
ENDROOT
BRANCH   1   2
ATOM      2  N   UNL     1      34.351 -23.699 -14.669  0.00  0.00    -0.316 N 
ATOM      3  N   UNL     1      32.593 -24.923 -13.675  0.00  0.00    -0.370 N 
ATOM      4  N   UNL     1      34.545 -24.646 -12.469  0.00  0.00    -0.269 NA
ATOM      5  C   UNL     1      33.527 -23.499 -15.860  0.00  0.00    +0.128 C 
ATOM      6  C   UNL     1      33.871 -24.423 -13.568  0.00  0.00    +0.192 C 
ATOM      7  H   UNL     1      32.069 -24.765 -14.494  0.00  0.00    +0.159 HD
ATOM      8  H   UNL     1      32.202 -25.437 -12.932  0.00  0.00    +0.159 HD
ATOM      9  H   UNL     1      35.461 -24.296 -12.374  0.00  0.00    +0.190 HD
ENDBRANCH   1   2
BRANCH   1  10
ATOM     10  C   UNL     1      36.714 -24.033 -15.282  0.00  0.00    +0.178 C 
BRANCH  10  11
ATOM     11  O   UNL     1      37.336 -24.755 -14.227  0.00  0.00    -0.271 OA
BRANCH  11  12
ATOM     12  P   UNL     1      37.303 -26.371 -14.278  0.00  0.00    +0.473 P 
ATOM     13  O   UNL     1      38.582 -27.020 -14.718  0.00  0.00    -0.227 OA
BRANCH  12  14
ATOM     14  O   UNL     1      36.010 -26.700 -15.192  0.00  0.00    -0.303 OA
ATOM     15  H   UNL     1      35.567 -25.872 -15.437  0.00  0.00    +0.222 HD
ENDBRANCH  12  14
BRANCH  12  16
ATOM     16  O   UNL     1      36.814 -26.766 -12.787  0.00  0.00    -0.303 OA
ATOM     17  H   UNL     1      37.462 -27.364 -12.383  0.00  0.00    +0.222 HD
ENDBRANCH  12  16
ENDBRANCH  11  12
ENDBRANCH  10  11
ENDBRANCH   1  10
TORSDOF 6
ENDMDL
MODEL 7
REMARK VINA RESULT:      -5.8      3.769      4.706
REMARK  Name = 23342
REMARK  6 active torsions:
REMARK  status: ('A' for Active; 'I' for Inactive)
REMARK    1  A    between atoms: C_1  and  N_2
REMARK    2  A    between atoms: C_1  and  C_10
REMARK    3  A    between atoms: C_10  and  O_11
REMARK    4  A    between atoms: O_11  and  P_12
REMARK    5  A    between atoms: P_12  and  O_14
REMARK    6  A    between atoms: P_12  and  O_16
REMARK                            x       y       z     vdW  Elec       q    Type
REMARK                         _______ _______ _______ _____ _____    ______ ____
ROOT
ATOM      1  C   UNL     1      37.554 -23.817 -14.591  0.00  0.00    +0.137 C 
ENDROOT
BRANCH   1   2
ATOM      2  N   UNL     1      36.712 -24.949 -14.973  0.00  0.00    -0.316 N 
ATOM      3  N   UNL     1      36.262 -27.233 -15.366  0.00  0.00    -0.370 N 
ATOM      4  N   UNL     1      38.401 -26.639 -14.723  0.00  0.00    -0.269 NA
ATOM      5  C   UNL     1      35.325 -24.627 -15.307  0.00  0.00    +0.128 C 
ATOM      6  C   UNL     1      37.178 -26.270 -15.007  0.00  0.00    +0.192 C 
ATOM      7  H   UNL     1      35.336 -26.977 -15.583  0.00  0.00    +0.159 HD
ATOM      8  H   UNL     1      36.533 -28.179 -15.405  0.00  0.00    +0.159 HD
ATOM      9  H   UNL     1      39.071 -25.965 -14.464  0.00  0.00    +0.190 HD
ENDBRANCH   1   2
BRANCH   1  10
ATOM     10  C   UNL     1      36.920 -23.001 -13.479  0.00  0.00    +0.178 C 
BRANCH  10  11
ATOM     11  O   UNL     1      37.294 -23.546 -12.220  0.00  0.00    -0.271 OA
BRANCH  11  12
ATOM     12  P   UNL     1      36.143 -24.206 -11.296  0.00  0.00    +0.473 P 
ATOM     13  O   UNL     1      36.287 -23.953  -9.824  0.00  0.00    -0.227 OA
BRANCH  12  14
ATOM     14  O   UNL     1      36.143 -25.762 -11.734  0.00  0.00    -0.303 OA
ATOM     15  H   UNL     1      35.278 -25.994 -12.107  0.00  0.00    +0.222 HD
ENDBRANCH  12  14
BRANCH  12  16
ATOM     16  O   UNL     1      34.782 -23.633 -11.958  0.00  0.00    -0.303 OA
ATOM     17  H   UNL     1      34.044 -23.761 -11.341  0.00  0.00    +0.222 HD
ENDBRANCH  12  16
ENDBRANCH  11  12
ENDBRANCH  10  11
ENDBRANCH   1  10
TORSDOF 6
ENDMDL
MODEL 8
REMARK VINA RESULT:      -5.7      3.813      4.653
REMARK  Name = 23342
REMARK  6 active torsions:
REMARK  status: ('A' for Active; 'I' for Inactive)
REMARK    1  A    between atoms: C_1  and  N_2
REMARK    2  A    between atoms: C_1  and  C_10
REMARK    3  A    between atoms: C_10  and  O_11
REMARK    4  A    between atoms: O_11  and  P_12
REMARK    5  A    between atoms: P_12  and  O_14
REMARK    6  A    between atoms: P_12  and  O_16
REMARK                            x       y       z     vdW  Elec       q    Type
REMARK                         _______ _______ _______ _____ _____    ______ ____
ROOT
ATOM      1  C   UNL     1      35.664 -24.998 -14.608  0.00  0.00    +0.137 C 
ENDROOT
BRANCH   1   2
ATOM      2  N   UNL     1      37.055 -24.710 -14.950  0.00  0.00    -0.316 N 
ATOM      3  N   UNL     1      39.335 -25.252 -15.242  0.00  0.00    -0.370 N 
ATOM      4  N   UNL     1      37.913 -26.900 -14.462  0.00  0.00    -0.269 NA
ATOM      5  C   UNL     1      37.328 -23.350 -15.412  0.00  0.00    +0.128 C 
ATOM      6  C   UNL     1      38.077 -25.666 -14.865  0.00  0.00    +0.192 C 
ATOM      7  H   UNL     1      39.478 -24.328 -15.548  0.00  0.00    +0.159 HD
ATOM      8  H   UNL     1      40.091 -25.882 -15.205  0.00  0.00    +0.159 HD
ATOM      9  H   UNL     1      37.021 -27.215 -14.189  0.00  0.00    +0.190 HD
ENDBRANCH   1   2
BRANCH   1  10
ATOM     10  C   UNL     1      35.080 -23.931 -13.700  0.00  0.00    +0.178 C 
BRANCH  10  11
ATOM     11  O   UNL     1      34.757 -24.506 -12.441  0.00  0.00    -0.271 OA
BRANCH  11  12
ATOM     12  P   UNL     1      35.888 -24.509 -11.285  0.00  0.00    +0.473 P 
ATOM     13  O   UNL     1      35.362 -24.470  -9.881  0.00  0.00    -0.227 OA
BRANCH  12  14
ATOM     14  O   UNL     1      36.859 -23.283 -11.695  0.00  0.00    -0.303 OA
ATOM     15  H   UNL     1      36.923 -22.659 -10.954  0.00  0.00    +0.222 HD
ENDBRANCH  12  14
BRANCH  12  16
ATOM     16  O   UNL     1      36.767 -25.817 -11.649  0.00  0.00    -0.303 OA
ATOM     17  H   UNL     1      36.645 -26.491 -10.962  0.00  0.00    +0.222 HD
ENDBRANCH  12  16
ENDBRANCH  11  12
ENDBRANCH  10  11
ENDBRANCH   1  10
TORSDOF 6
ENDMDL
MODEL 9
REMARK VINA RESULT:      -5.6      3.874      5.081
REMARK  Name = 23342
REMARK  6 active torsions:
REMARK  status: ('A' for Active; 'I' for Inactive)
REMARK    1  A    between atoms: C_1  and  N_2
REMARK    2  A    between atoms: C_1  and  C_10
REMARK    3  A    between atoms: C_10  and  O_11
REMARK    4  A    between atoms: O_11  and  P_12
REMARK    5  A    between atoms: P_12  and  O_14
REMARK    6  A    between atoms: P_12  and  O_16
REMARK                            x       y       z     vdW  Elec       q    Type
REMARK                         _______ _______ _______ _____ _____    ______ ____
ROOT
ATOM      1  C   UNL     1      38.104 -24.534 -13.533  0.00  0.00    +0.137 C 
ENDROOT
BRANCH   1   2
ATOM      2  N   UNL     1      37.918 -25.612 -14.502  0.00  0.00    -0.316 N 
ATOM      3  N   UNL     1      36.641 -27.041 -15.881  0.00  0.00    -0.370 N 
ATOM      4  N   UNL     1      35.518 -25.520 -14.552  0.00  0.00    -0.269 NA
ATOM      5  C   UNL     1      39.142 -26.236 -15.002  0.00  0.00    +0.128 C 
ATOM      6  C   UNL     1      36.657 -26.027 -14.950  0.00  0.00    +0.192 C 
ATOM      7  H   UNL     1      37.488 -27.435 -16.195  0.00  0.00    +0.159 HD
ATOM      8  H   UNL     1      35.784 -27.372 -16.234  0.00  0.00    +0.159 HD
ATOM      9  H   UNL     1      35.508 -24.794 -13.887  0.00  0.00    +0.190 HD
ENDBRANCH   1   2
BRANCH   1  10
ATOM     10  C   UNL     1      38.116 -25.060 -12.109  0.00  0.00    +0.178 C 
BRANCH  10  11
ATOM     11  O   UNL     1      36.779 -25.209 -11.649  0.00  0.00    -0.271 OA
BRANCH  11  12
ATOM     12  P   UNL     1      36.046 -23.927 -10.991  0.00  0.00    +0.473 P 
ATOM     13  O   UNL     1      36.935 -22.746 -10.738  0.00  0.00    -0.227 OA
BRANCH  12  14
ATOM     14  O   UNL     1      35.312 -24.534  -9.684  0.00  0.00    -0.303 OA
ATOM     15  H   UNL     1      35.408 -25.499  -9.676  0.00  0.00    +0.222 HD
ENDBRANCH  12  14
BRANCH  12  16
ATOM     16  O   UNL     1      34.821 -23.654 -12.012  0.00  0.00    -0.303 OA
ATOM     17  H   UNL     1      33.979 -23.805 -11.554  0.00  0.00    +0.222 HD
ENDBRANCH  12  16
ENDBRANCH  11  12
ENDBRANCH  10  11
ENDBRANCH   1  10
TORSDOF 6
ENDMDL
