MODEL 1
REMARK VINA RESULT:      -8.5      0.000      0.000
REMARK  Name = 10893439
REMARK  17 active torsions:
REMARK  status: ('A' for Active; 'I' for Inactive)
REMARK    1  A    between atoms: C_2  and  O_7
REMARK    2  A    between atoms: C_3  and  O_9
REMARK    3  A    between atoms: C_4  and  O_11
REMARK    4  A    between atoms: C_5  and  C_26
REMARK    5  A    between atoms: C_6  and  O_13
REMARK    6  A    between atoms: O_13  and  C_14
REMARK    7  A    between atoms: C_14  and  C_15
REMARK    8  A    between atoms: C_15  and  C_16
REMARK    9  A    between atoms: C_16  and  C_17
REMARK   10  A    between atoms: C_17  and  C_18
REMARK   11  A    between atoms: C_18  and  C_19
REMARK   12  A    between atoms: C_19  and  C_20
REMARK   13  A    between atoms: C_20  and  C_21
REMARK   14  A    between atoms: C_21  and  C_22
REMARK   15  A    between atoms: C_22  and  C_23
REMARK   16  A    between atoms: C_23  and  C_24
REMARK   17  A    between atoms: C_26  and  O_27
REMARK                            x       y       z     vdW  Elec       q    Type
REMARK                         _______ _______ _______ _____ _____    ______ ____
ROOT
ATOM      1  O   UNL     1      37.975 -23.510 -13.876  0.00  0.00    -0.326 OA
ATOM      2  C   UNL     1      36.720 -26.103 -13.678  0.00  0.00    +0.172 C 
ATOM      3  C   UNL     1      36.902 -25.190 -12.463  0.00  0.00    +0.169 C 
ATOM      4  C   UNL     1      37.738 -25.760 -14.764  0.00  0.00    +0.196 C 
ATOM      5  C   UNL     1      36.964 -23.715 -12.882  0.00  0.00    +0.176 C 
ATOM      6  C   UNL     1      37.754 -24.262 -15.071  0.00  0.00    +0.266 C 
ENDROOT
BRANCH   2   7
ATOM      7  O   UNL     1      36.921 -27.454 -13.258  0.00  0.00    -0.379 OA
ATOM      8  H   UNL     1      37.009 -28.025 -14.037  0.00  0.00    +0.211 HD
ENDBRANCH   2   7
BRANCH   3   9
ATOM      9  O   UNL     1      35.804 -25.408 -11.580  0.00  0.00    -0.379 OA
ATOM     10  H   UNL     1      35.307 -24.581 -11.472  0.00  0.00    +0.211 HD
ENDBRANCH   3   9
BRANCH   4  11
ATOM     11  O   UNL     1      37.438 -26.502 -15.941  0.00  0.00    -0.378 OA
ATOM     12  H   UNL     1      37.992 -26.186 -16.673  0.00  0.00    +0.211 HD
ENDBRANCH   4  11
BRANCH   6  13
ATOM     13  O   UNL     1      36.586 -23.834 -15.771  0.00  0.00    -0.329 OA
BRANCH  13  14
ATOM     14  C   UNL     1      36.761 -22.542 -16.336  0.00  0.00    +0.145 C 
BRANCH  14  15
ATOM     15  C   UNL     1      35.724 -22.307 -17.427  0.00  0.00    +0.032 C 
BRANCH  15  16
ATOM     16  C   UNL     1      36.286 -21.485 -18.592  0.00  0.00    +0.003 C 
BRANCH  16  17
ATOM     17  C   UNL     1      35.475 -21.711 -19.870  0.00  0.00    +0.000 C 
BRANCH  17  18
ATOM     18  C   UNL     1      34.039 -21.182 -19.779  0.00  0.00    +0.000 C 
BRANCH  18  19
ATOM     19  C   UNL     1      33.778 -19.982 -20.692  0.00  0.00    +0.000 C 
BRANCH  19  20
ATOM     20  C   UNL     1      35.013 -19.548 -21.490  0.00  0.00    +0.000 C 
BRANCH  20  21
ATOM     21  C   UNL     1      34.753 -18.587 -22.656  0.00  0.00    +0.000 C 
BRANCH  21  22
ATOM     22  C   UNL     1      35.153 -17.141 -22.354  0.00  0.00    +0.000 C 
BRANCH  22  23
ATOM     23  C   UNL     1      34.909 -16.736 -20.896  0.00  0.00    +0.000 C 
BRANCH  23  24
ATOM     24  C   UNL     1      34.368 -15.313 -20.741  0.00  0.00    +0.000 C 
ATOM     25  C   UNL     1      32.847 -15.297 -20.742  0.00  0.00    +0.000 C 
ENDBRANCH  23  24
ENDBRANCH  22  23
ENDBRANCH  21  22
ENDBRANCH  20  21
ENDBRANCH  19  20
ENDBRANCH  18  19
ENDBRANCH  17  18
ENDBRANCH  16  17
ENDBRANCH  15  16
ENDBRANCH  14  15
ENDBRANCH  13  14
ENDBRANCH   6  13
BRANCH   5  26
ATOM     26  C   UNL     1      37.303 -22.800 -11.708  0.00  0.00    +0.169 C 
BRANCH  26  27
ATOM     27  O   UNL     1      38.710 -22.773 -11.550  0.00  0.00    -0.379 OA
ATOM     28  H   UNL     1      39.114 -22.373 -12.335  0.00  0.00    +0.211 HD
ENDBRANCH  26  27
ENDBRANCH   5  26
TORSDOF 17
ENDMDL
MODEL 2
REMARK VINA RESULT:      -8.3      1.394      2.478
REMARK  Name = 10893439
REMARK  17 active torsions:
REMARK  status: ('A' for Active; 'I' for Inactive)
REMARK    1  A    between atoms: C_2  and  O_7
REMARK    2  A    between atoms: C_3  and  O_9
REMARK    3  A    between atoms: C_4  and  O_11
REMARK    4  A    between atoms: C_5  and  C_26
REMARK    5  A    between atoms: C_6  and  O_13
REMARK    6  A    between atoms: O_13  and  C_14
REMARK    7  A    between atoms: C_14  and  C_15
REMARK    8  A    between atoms: C_15  and  C_16
REMARK    9  A    between atoms: C_16  and  C_17
REMARK   10  A    between atoms: C_17  and  C_18
REMARK   11  A    between atoms: C_18  and  C_19
REMARK   12  A    between atoms: C_19  and  C_20
REMARK   13  A    between atoms: C_20  and  C_21
REMARK   14  A    between atoms: C_21  and  C_22
REMARK   15  A    between atoms: C_22  and  C_23
REMARK   16  A    between atoms: C_23  and  C_24
REMARK   17  A    between atoms: C_26  and  O_27
REMARK                            x       y       z     vdW  Elec       q    Type
REMARK                         _______ _______ _______ _____ _____    ______ ____
ROOT
ATOM      1  O   UNL     1      36.554 -25.129 -14.656  0.00  0.00    -0.326 OA
ATOM      2  C   UNL     1      35.851 -24.397 -11.952  0.00  0.00    +0.172 C 
ATOM      3  C   UNL     1      37.128 -25.173 -12.281  0.00  0.00    +0.169 C 
ATOM      4  C   UNL     1      34.808 -24.590 -13.052  0.00  0.00    +0.196 C 
ATOM      5  C   UNL     1      37.602 -24.881 -13.711  0.00  0.00    +0.176 C 
ATOM      6  C   UNL     1      35.394 -24.322 -14.439  0.00  0.00    +0.266 C 
ENDROOT
BRANCH   2   7
ATOM      7  O   UNL     1      35.327 -24.897 -10.720  0.00  0.00    -0.379 OA
ATOM      8  H   UNL     1      34.696 -24.258 -10.353  0.00  0.00    +0.211 HD
ENDBRANCH   2   7
BRANCH   3   9
ATOM      9  O   UNL     1      38.130 -24.791 -11.341  0.00  0.00    -0.379 OA
ATOM     10  H   UNL     1      39.007 -25.001 -11.699  0.00  0.00    +0.211 HD
ENDBRANCH   3   9
BRANCH   4  11
ATOM     11  O   UNL     1      33.702 -23.728 -12.809  0.00  0.00    -0.378 OA
ATOM     12  H   UNL     1      32.878 -24.189 -13.031  0.00  0.00    +0.211 HD
ENDBRANCH   4  11
BRANCH   6  13
ATOM     13  O   UNL     1      35.651 -22.937 -14.668  0.00  0.00    -0.329 OA
BRANCH  13  14
ATOM     14  C   UNL     1      35.529 -22.604 -16.044  0.00  0.00    +0.145 C 
BRANCH  14  15
ATOM     15  C   UNL     1      36.880 -22.161 -16.592  0.00  0.00    +0.032 C 
BRANCH  15  16
ATOM     16  C   UNL     1      36.774 -21.615 -18.020  0.00  0.00    +0.003 C 
BRANCH  16  17
ATOM     17  C   UNL     1      35.414 -21.947 -18.640  0.00  0.00    +0.000 C 
BRANCH  17  18
ATOM     18  C   UNL     1      35.130 -21.173 -19.932  0.00  0.00    +0.000 C 
BRANCH  18  19
ATOM     19  C   UNL     1      33.675 -20.716 -20.055  0.00  0.00    +0.000 C 
BRANCH  19  20
ATOM     20  C   UNL     1      33.498 -19.495 -20.965  0.00  0.00    +0.000 C 
BRANCH  20  21
ATOM     21  C   UNL     1      34.455 -19.407 -22.160  0.00  0.00    +0.000 C 
BRANCH  21  22
ATOM     22  C   UNL     1      35.267 -18.109 -22.194  0.00  0.00    +0.000 C 
BRANCH  22  23
ATOM     23  C   UNL     1      34.908 -17.138 -21.064  0.00  0.00    +0.000 C 
BRANCH  23  24
ATOM     24  C   UNL     1      34.486 -15.754 -21.560  0.00  0.00    +0.000 C 
ATOM     25  C   UNL     1      33.637 -15.031 -20.526  0.00  0.00    +0.000 C 
ENDBRANCH  23  24
ENDBRANCH  22  23
ENDBRANCH  21  22
ENDBRANCH  20  21
ENDBRANCH  19  20
ENDBRANCH  18  19
ENDBRANCH  17  18
ENDBRANCH  16  17
ENDBRANCH  15  16
ENDBRANCH  14  15
ENDBRANCH  13  14
ENDBRANCH   6  13
BRANCH   5  26
ATOM     26  C   UNL     1      38.782 -25.762 -14.114  0.00  0.00    +0.169 C 
BRANCH  26  27
ATOM     27  O   UNL     1      38.279 -26.992 -14.603  0.00  0.00    -0.379 OA
ATOM     28  H   UNL     1      38.998 -27.640 -14.645  0.00  0.00    +0.211 HD
ENDBRANCH  26  27
ENDBRANCH   5  26
TORSDOF 17
ENDMDL
MODEL 3
REMARK VINA RESULT:      -8.2      1.727      2.281
REMARK  Name = 10893439
REMARK  17 active torsions:
REMARK  status: ('A' for Active; 'I' for Inactive)
REMARK    1  A    between atoms: C_2  and  O_7
REMARK    2  A    between atoms: C_3  and  O_9
REMARK    3  A    between atoms: C_4  and  O_11
REMARK    4  A    between atoms: C_5  and  C_26
REMARK    5  A    between atoms: C_6  and  O_13
REMARK    6  A    between atoms: O_13  and  C_14
REMARK    7  A    between atoms: C_14  and  C_15
REMARK    8  A    between atoms: C_15  and  C_16
REMARK    9  A    between atoms: C_16  and  C_17
REMARK   10  A    between atoms: C_17  and  C_18
REMARK   11  A    between atoms: C_18  and  C_19
REMARK   12  A    between atoms: C_19  and  C_20
REMARK   13  A    between atoms: C_20  and  C_21
REMARK   14  A    between atoms: C_21  and  C_22
REMARK   15  A    between atoms: C_22  and  C_23
REMARK   16  A    between atoms: C_23  and  C_24
REMARK   17  A    between atoms: C_26  and  O_27
REMARK                            x       y       z     vdW  Elec       q    Type
REMARK                         _______ _______ _______ _____ _____    ______ ____
ROOT
ATOM      1  O   UNL     1      36.506 -23.167 -13.457  0.00  0.00    -0.326 OA
ATOM      2  C   UNL     1      38.149 -25.518 -13.797  0.00  0.00    +0.172 C 
ATOM      3  C   UNL     1      37.315 -25.281 -12.536  0.00  0.00    +0.169 C 
ATOM      4  C   UNL     1      38.447 -24.194 -14.499  0.00  0.00    +0.196 C 
ATOM      5  C   UNL     1      36.101 -24.391 -12.833  0.00  0.00    +0.176 C 
ATOM      6  C   UNL     1      37.180 -23.364 -14.703  0.00  0.00    +0.266 C 
ENDROOT
BRANCH   2   7
ATOM      7  O   UNL     1      39.381 -26.131 -13.412  0.00  0.00    -0.379 OA
ATOM      8  H   UNL     1      40.122 -25.569 -13.688  0.00  0.00    +0.211 HD
ENDBRANCH   2   7
BRANCH   3   9
ATOM      9  O   UNL     1      36.890 -26.550 -12.044  0.00  0.00    -0.379 OA
ATOM     10  H   UNL     1      36.462 -26.435 -11.181  0.00  0.00    +0.211 HD
ENDBRANCH   3   9
BRANCH   4  11
ATOM     11  O   UNL     1      39.072 -24.455 -15.751  0.00  0.00    -0.378 OA
ATOM     12  H   UNL     1      39.399 -25.369 -15.766  0.00  0.00    +0.211 HD
ENDBRANCH   4  11
BRANCH   6  13
ATOM     13  O   UNL     1      36.319 -23.912 -15.701  0.00  0.00    -0.329 OA
BRANCH  13  14
ATOM     14  C   UNL     1      35.419 -22.937 -16.207  0.00  0.00    +0.145 C 
BRANCH  14  15
ATOM     15  C   UNL     1      34.042 -23.556 -16.409  0.00  0.00    +0.032 C 
BRANCH  15  16
ATOM     16  C   UNL     1      33.277 -22.901 -17.565  0.00  0.00    +0.003 C 
BRANCH  16  17
ATOM     17  C   UNL     1      34.115 -22.889 -18.846  0.00  0.00    +0.000 C 
BRANCH  17  18
ATOM     18  C   UNL     1      34.382 -21.478 -19.382  0.00  0.00    +0.000 C 
BRANCH  18  19
ATOM     19  C   UNL     1      33.117 -20.767 -19.868  0.00  0.00    +0.000 C 
BRANCH  19  20
ATOM     20  C   UNL     1      33.387 -19.737 -20.971  0.00  0.00    +0.000 C 
BRANCH  20  21
ATOM     21  C   UNL     1      34.838 -19.641 -21.457  0.00  0.00    +0.000 C 
BRANCH  21  22
ATOM     22  C   UNL     1      35.439 -18.241 -21.304  0.00  0.00    +0.000 C 
BRANCH  22  23
ATOM     23  C   UNL     1      35.334 -17.392 -22.575  0.00  0.00    +0.000 C 
BRANCH  23  24
ATOM     24  C   UNL     1      35.190 -18.221 -23.853  0.00  0.00    +0.000 C 
ATOM     25  C   UNL     1      34.650 -17.381 -25.000  0.00  0.00    +0.000 C 
ENDBRANCH  23  24
ENDBRANCH  22  23
ENDBRANCH  21  22
ENDBRANCH  20  21
ENDBRANCH  19  20
ENDBRANCH  18  19
ENDBRANCH  17  18
ENDBRANCH  16  17
ENDBRANCH  15  16
ENDBRANCH  14  15
ENDBRANCH  13  14
ENDBRANCH   6  13
BRANCH   5  26
ATOM     26  C   UNL     1      35.344 -24.013 -11.562  0.00  0.00    +0.169 C 
BRANCH  26  27
ATOM     27  O   UNL     1      36.189 -24.247 -10.450  0.00  0.00    -0.379 OA
ATOM     28  H   UNL     1      37.114 -24.147 -10.721  0.00  0.00    +0.211 HD
ENDBRANCH  26  27
ENDBRANCH   5  26
TORSDOF 17
ENDMDL
MODEL 4
REMARK VINA RESULT:      -8.2      4.548      5.636
REMARK  Name = 10893439
REMARK  17 active torsions:
REMARK  status: ('A' for Active; 'I' for Inactive)
REMARK    1  A    between atoms: C_2  and  O_7
REMARK    2  A    between atoms: C_3  and  O_9
REMARK    3  A    between atoms: C_4  and  O_11
REMARK    4  A    between atoms: C_5  and  C_26
REMARK    5  A    between atoms: C_6  and  O_13
REMARK    6  A    between atoms: O_13  and  C_14
REMARK    7  A    between atoms: C_14  and  C_15
REMARK    8  A    between atoms: C_15  and  C_16
REMARK    9  A    between atoms: C_16  and  C_17
REMARK   10  A    between atoms: C_17  and  C_18
REMARK   11  A    between atoms: C_18  and  C_19
REMARK   12  A    between atoms: C_19  and  C_20
REMARK   13  A    between atoms: C_20  and  C_21
REMARK   14  A    between atoms: C_21  and  C_22
REMARK   15  A    between atoms: C_22  and  C_23
REMARK   16  A    between atoms: C_23  and  C_24
REMARK   17  A    between atoms: C_26  and  O_27
REMARK                            x       y       z     vdW  Elec       q    Type
REMARK                         _______ _______ _______ _____ _____    ______ ____
ROOT
ATOM      1  O   UNL     1      30.415 -22.807 -16.083  0.00  0.00    -0.326 OA
ATOM      2  C   UNL     1      30.729 -24.530 -13.787  0.00  0.00    +0.172 C 
ATOM      3  C   UNL     1      29.415 -24.441 -14.566  0.00  0.00    +0.169 C 
ATOM      4  C   UNL     1      31.558 -23.263 -13.986  0.00  0.00    +0.196 C 
ATOM      5  C   UNL     1      29.661 -24.023 -16.022  0.00  0.00    +0.176 C 
ATOM      6  C   UNL     1      31.701 -22.908 -15.467  0.00  0.00    +0.266 C 
ENDROOT
BRANCH   2   7
ATOM      7  O   UNL     1      30.418 -24.672 -12.399  0.00  0.00    -0.379 OA
ATOM      8  H   UNL     1      31.240 -24.715 -11.886  0.00  0.00    +0.211 HD
ENDBRANCH   2   7
BRANCH   3   9
ATOM      9  O   UNL     1      28.785 -25.719 -14.518  0.00  0.00    -0.379 OA
ATOM     10  H   UNL     1      29.451 -26.412 -14.653  0.00  0.00    +0.211 HD
ENDBRANCH   3   9
BRANCH   4  11
ATOM     11  O   UNL     1      32.840 -23.441 -13.395  0.00  0.00    -0.378 OA
ATOM     12  H   UNL     1      32.776 -24.080 -12.668  0.00  0.00    +0.211 HD
ENDBRANCH   4  11
BRANCH   6  13
ATOM     13  O   UNL     1      32.565 -23.806 -16.164  0.00  0.00    -0.329 OA
BRANCH  13  14
ATOM     14  C   UNL     1      33.618 -23.113 -16.819  0.00  0.00    +0.145 C 
BRANCH  14  15
ATOM     15  C   UNL     1      33.172 -22.687 -18.212  0.00  0.00    +0.032 C 
BRANCH  15  16
ATOM     16  C   UNL     1      34.334 -22.668 -19.212  0.00  0.00    +0.003 C 
BRANCH  16  17
ATOM     17  C   UNL     1      34.630 -21.243 -19.687  0.00  0.00    +0.000 C 
BRANCH  17  18
ATOM     18  C   UNL     1      33.404 -20.528 -20.263  0.00  0.00    +0.000 C 
BRANCH  18  19
ATOM     19  C   UNL     1      33.753 -19.248 -21.027  0.00  0.00    +0.000 C 
BRANCH  19  20
ATOM     20  C   UNL     1      35.262 -19.007 -21.146  0.00  0.00    +0.000 C 
BRANCH  20  21
ATOM     21  C   UNL     1      35.755 -18.509 -22.510  0.00  0.00    +0.000 C 
BRANCH  21  22
ATOM     22  C   UNL     1      34.760 -17.585 -23.216  0.00  0.00    +0.000 C 
BRANCH  22  23
ATOM     23  C   UNL     1      35.063 -16.097 -23.013  0.00  0.00    +0.000 C 
BRANCH  23  24
ATOM     24  C   UNL     1      34.062 -15.388 -22.099  0.00  0.00    +0.000 C 
ATOM     25  C   UNL     1      34.510 -15.435 -20.646  0.00  0.00    +0.000 C 
ENDBRANCH  23  24
ENDBRANCH  22  23
ENDBRANCH  21  22
ENDBRANCH  20  21
ENDBRANCH  19  20
ENDBRANCH  18  19
ENDBRANCH  17  18
ENDBRANCH  16  17
ENDBRANCH  15  16
ENDBRANCH  14  15
ENDBRANCH  13  14
ENDBRANCH   6  13
BRANCH   5  26
ATOM     26  C   UNL     1      28.355 -23.774 -16.774  0.00  0.00    +0.169 C 
BRANCH  26  27
ATOM     27  O   UNL     1      27.414 -23.222 -15.872  0.00  0.00    -0.379 OA
ATOM     28  H   UNL     1      27.755 -22.384 -15.524  0.00  0.00    +0.211 HD
ENDBRANCH  26  27
ENDBRANCH   5  26
TORSDOF 17
ENDMDL
MODEL 5
REMARK VINA RESULT:      -7.9      9.211     13.048
REMARK  Name = 10893439
REMARK  17 active torsions:
REMARK  status: ('A' for Active; 'I' for Inactive)
REMARK    1  A    between atoms: C_2  and  O_7
REMARK    2  A    between atoms: C_3  and  O_9
REMARK    3  A    between atoms: C_4  and  O_11
REMARK    4  A    between atoms: C_5  and  C_26
REMARK    5  A    between atoms: C_6  and  O_13
REMARK    6  A    between atoms: O_13  and  C_14
REMARK    7  A    between atoms: C_14  and  C_15
REMARK    8  A    between atoms: C_15  and  C_16
REMARK    9  A    between atoms: C_16  and  C_17
REMARK   10  A    between atoms: C_17  and  C_18
REMARK   11  A    between atoms: C_18  and  C_19
REMARK   12  A    between atoms: C_19  and  C_20
REMARK   13  A    between atoms: C_20  and  C_21
REMARK   14  A    between atoms: C_21  and  C_22
REMARK   15  A    between atoms: C_22  and  C_23
REMARK   16  A    between atoms: C_23  and  C_24
REMARK   17  A    between atoms: C_26  and  O_27
REMARK                            x       y       z     vdW  Elec       q    Type
REMARK                         _______ _______ _______ _____ _____    ______ ____
ROOT
ATOM      1  O   UNL     1      33.590 -15.192 -23.930  0.00  0.00    -0.326 OA
ATOM      2  C   UNL     1      33.366 -14.661 -21.099  0.00  0.00    +0.172 C 
ATOM      3  C   UNL     1      33.972 -15.958 -21.640  0.00  0.00    +0.169 C 
ATOM      4  C   UNL     1      32.433 -14.033 -22.133  0.00  0.00    +0.196 C 
ATOM      5  C   UNL     1      34.564 -15.751 -23.041  0.00  0.00    +0.176 C 
ATOM      6  C   UNL     1      33.101 -13.918 -23.503  0.00  0.00    +0.266 C 
ENDROOT
BRANCH   2   7
ATOM      7  O   UNL     1      32.619 -14.972 -19.922  0.00  0.00    -0.379 OA
ATOM      8  H   UNL     1      33.205 -14.948 -19.150  0.00  0.00    +0.211 HD
ENDBRANCH   2   7
BRANCH   3   9
ATOM      9  O   UNL     1      34.986 -16.383 -20.733  0.00  0.00    -0.379 OA
ATOM     10  H   UNL     1      35.835 -16.438 -21.199  0.00  0.00    +0.211 HD
ENDBRANCH   3   9
BRANCH   4  11
ATOM     11  O   UNL     1      32.019 -12.750 -21.676  0.00  0.00    -0.378 OA
ATOM     12  H   UNL     1      32.799 -12.192 -21.529  0.00  0.00    +0.211 HD
ENDBRANCH   4  11
BRANCH   6  13
ATOM     13  O   UNL     1      34.115 -12.913 -23.535  0.00  0.00    -0.329 OA
BRANCH  13  14
ATOM     14  C   UNL     1      33.893 -11.982 -24.585  0.00  0.00    +0.145 C 
BRANCH  14  15
ATOM     15  C   UNL     1      33.641 -10.596 -24.006  0.00  0.00    +0.032 C 
BRANCH  15  16
ATOM     16  C   UNL     1      34.698  -9.580 -24.453  0.00  0.00    +0.003 C 
BRANCH  16  17
ATOM     17  C   UNL     1      34.631  -8.306 -23.608  0.00  0.00    +0.000 C 
BRANCH  17  18
ATOM     18  C   UNL     1      34.471  -7.031 -24.445  0.00  0.00    +0.000 C 
BRANCH  18  19
ATOM     19  C   UNL     1      33.108  -6.358 -24.267  0.00  0.00    +0.000 C 
BRANCH  19  20
ATOM     20  C   UNL     1      31.999  -7.335 -23.860  0.00  0.00    +0.000 C 
BRANCH  20  21
ATOM     21  C   UNL     1      31.277  -7.019 -22.544  0.00  0.00    +0.000 C 
BRANCH  21  22
ATOM     22  C   UNL     1      32.220  -6.560 -21.429  0.00  0.00    +0.000 C 
BRANCH  22  23
ATOM     23  C   UNL     1      32.755  -7.713 -20.573  0.00  0.00    +0.000 C 
BRANCH  23  24
ATOM     24  C   UNL     1      32.006  -9.030 -20.785  0.00  0.00    +0.000 C 
ATOM     25  C   UNL     1      31.891  -9.816 -19.488  0.00  0.00    +0.000 C 
ENDBRANCH  23  24
ENDBRANCH  22  23
ENDBRANCH  21  22
ENDBRANCH  20  21
ENDBRANCH  19  20
ENDBRANCH  18  19
ENDBRANCH  17  18
ENDBRANCH  16  17
ENDBRANCH  15  16
ENDBRANCH  14  15
ENDBRANCH  13  14
ENDBRANCH   6  13
BRANCH   5  26
ATOM     26  C   UNL     1      35.032 -17.064 -23.664  0.00  0.00    +0.169 C 
BRANCH  26  27
ATOM     27  O   UNL     1      36.198 -17.493 -22.986  0.00  0.00    -0.379 OA
ATOM     28  H   UNL     1      35.991 -17.638 -22.049  0.00  0.00    +0.211 HD
ENDBRANCH  26  27
ENDBRANCH   5  26
TORSDOF 17
ENDMDL
MODEL 6
REMARK VINA RESULT:      -7.9      7.556     11.883
REMARK  Name = 10893439
REMARK  17 active torsions:
REMARK  status: ('A' for Active; 'I' for Inactive)
REMARK    1  A    between atoms: C_2  and  O_7
REMARK    2  A    between atoms: C_3  and  O_9
REMARK    3  A    between atoms: C_4  and  O_11
REMARK    4  A    between atoms: C_5  and  C_26
REMARK    5  A    between atoms: C_6  and  O_13
REMARK    6  A    between atoms: O_13  and  C_14
REMARK    7  A    between atoms: C_14  and  C_15
REMARK    8  A    between atoms: C_15  and  C_16
REMARK    9  A    between atoms: C_16  and  C_17
REMARK   10  A    between atoms: C_17  and  C_18
REMARK   11  A    between atoms: C_18  and  C_19
REMARK   12  A    between atoms: C_19  and  C_20
REMARK   13  A    between atoms: C_20  and  C_21
REMARK   14  A    between atoms: C_21  and  C_22
REMARK   15  A    between atoms: C_22  and  C_23
REMARK   16  A    between atoms: C_23  and  C_24
REMARK   17  A    between atoms: C_26  and  O_27
REMARK                            x       y       z     vdW  Elec       q    Type
REMARK                         _______ _______ _______ _____ _____    ______ ____
ROOT
ATOM      1  O   UNL     1      35.059 -15.935 -21.831  0.00  0.00    -0.326 OA
ATOM      2  C   UNL     1      34.171 -16.511 -24.518  0.00  0.00    +0.172 C 
ATOM      3  C   UNL     1      34.967 -17.521 -23.688  0.00  0.00    +0.169 C 
ATOM      4  C   UNL     1      34.424 -15.089 -24.020  0.00  0.00    +0.196 C 
ATOM      5  C   UNL     1      34.759 -17.290 -22.185  0.00  0.00    +0.176 C 
ATOM      6  C   UNL     1      34.238 -14.979 -22.507  0.00  0.00    +0.266 C 
ENDROOT
BRANCH   2   7
ATOM      7  O   UNL     1      34.598 -16.613 -25.878  0.00  0.00    -0.379 OA
ATOM      8  H   UNL     1      34.592 -17.544 -26.150  0.00  0.00    +0.211 HD
ENDBRANCH   2   7
BRANCH   3   9
ATOM      9  O   UNL     1      34.534 -18.830 -24.052  0.00  0.00    -0.379 OA
ATOM     10  H   UNL     1      33.982 -19.196 -23.343  0.00  0.00    +0.211 HD
ENDBRANCH   3   9
BRANCH   4  11
ATOM     11  O   UNL     1      33.547 -14.192 -24.692  0.00  0.00    -0.378 OA
ATOM     12  H   UNL     1      32.627 -14.457 -24.532  0.00  0.00    +0.211 HD
ENDBRANCH   4  11
BRANCH   6  13
ATOM     13  O   UNL     1      32.869 -15.071 -22.114  0.00  0.00    -0.329 OA
BRANCH  13  14
ATOM     14  C   UNL     1      32.547 -14.115 -21.114  0.00  0.00    +0.145 C 
BRANCH  14  15
ATOM     15  C   UNL     1      32.027 -12.839 -21.763  0.00  0.00    +0.032 C 
BRANCH  15  16
ATOM     16  C   UNL     1      31.657 -11.771 -20.727  0.00  0.00    +0.003 C 
BRANCH  16  17
ATOM     17  C   UNL     1      31.755 -10.365 -21.324  0.00  0.00    +0.000 C 
BRANCH  17  18
ATOM     18  C   UNL     1      32.061  -9.284 -20.282  0.00  0.00    +0.000 C 
BRANCH  18  19
ATOM     19  C   UNL     1      32.678  -8.020 -20.886  0.00  0.00    +0.000 C 
BRANCH  19  20
ATOM     20  C   UNL     1      32.833  -8.090 -22.409  0.00  0.00    +0.000 C 
BRANCH  20  21
ATOM     21  C   UNL     1      34.200  -7.673 -22.964  0.00  0.00    +0.000 C 
BRANCH  21  22
ATOM     22  C   UNL     1      34.784  -8.677 -23.961  0.00  0.00    +0.000 C 
BRANCH  22  23
ATOM     23  C   UNL     1      33.973  -9.974 -24.062  0.00  0.00    +0.000 C 
BRANCH  23  24
ATOM     24  C   UNL     1      34.491 -10.936 -25.132  0.00  0.00    +0.000 C 
ATOM     25  C   UNL     1      35.612 -10.308 -25.945  0.00  0.00    +0.000 C 
ENDBRANCH  23  24
ENDBRANCH  22  23
ENDBRANCH  21  22
ENDBRANCH  20  21
ENDBRANCH  19  20
ENDBRANCH  18  19
ENDBRANCH  17  18
ENDBRANCH  16  17
ENDBRANCH  15  16
ENDBRANCH  14  15
ENDBRANCH  13  14
ENDBRANCH   6  13
BRANCH   5  26
ATOM     26  C   UNL     1      35.664 -18.181 -21.338  0.00  0.00    +0.169 C 
BRANCH  26  27
ATOM     27  O   UNL     1      34.850 -19.074 -20.599  0.00  0.00    -0.379 OA
ATOM     28  H   UNL     1      35.401 -19.780 -20.227  0.00  0.00    +0.211 HD
ENDBRANCH  26  27
ENDBRANCH   5  26
TORSDOF 17
ENDMDL
MODEL 7
REMARK VINA RESULT:      -7.9      1.738      2.825
REMARK  Name = 10893439
REMARK  17 active torsions:
REMARK  status: ('A' for Active; 'I' for Inactive)
REMARK    1  A    between atoms: C_2  and  O_7
REMARK    2  A    between atoms: C_3  and  O_9
REMARK    3  A    between atoms: C_4  and  O_11
REMARK    4  A    between atoms: C_5  and  C_26
REMARK    5  A    between atoms: C_6  and  O_13
REMARK    6  A    between atoms: O_13  and  C_14
REMARK    7  A    between atoms: C_14  and  C_15
REMARK    8  A    between atoms: C_15  and  C_16
REMARK    9  A    between atoms: C_16  and  C_17
REMARK   10  A    between atoms: C_17  and  C_18
REMARK   11  A    between atoms: C_18  and  C_19
REMARK   12  A    between atoms: C_19  and  C_20
REMARK   13  A    between atoms: C_20  and  C_21
REMARK   14  A    between atoms: C_21  and  C_22
REMARK   15  A    between atoms: C_22  and  C_23
REMARK   16  A    between atoms: C_23  and  C_24
REMARK   17  A    between atoms: C_26  and  O_27
REMARK                            x       y       z     vdW  Elec       q    Type
REMARK                         _______ _______ _______ _____ _____    ______ ____
ROOT
ATOM      1  O   UNL     1      34.670 -22.691 -14.994  0.00  0.00    -0.326 OA
ATOM      2  C   UNL     1      37.169 -24.136 -15.088  0.00  0.00    +0.172 C 
ATOM      3  C   UNL     1      36.104 -24.418 -14.026  0.00  0.00    +0.169 C 
ATOM      4  C   UNL     1      37.013 -22.722 -15.643  0.00  0.00    +0.196 C 
ATOM      5  C   UNL     1      34.704 -24.047 -14.533  0.00  0.00    +0.176 C 
ATOM      6  C   UNL     1      35.573 -22.439 -16.073  0.00  0.00    +0.266 C 
ENDROOT
BRANCH   2   7
ATOM      7  O   UNL     1      38.455 -24.259 -14.476  0.00  0.00    -0.379 OA
ATOM      8  H   UNL     1      39.134 -24.335 -15.164  0.00  0.00    +0.211 HD
ENDBRANCH   2   7
BRANCH   3   9
ATOM      9  O   UNL     1      36.161 -25.804 -13.700  0.00  0.00    -0.379 OA
ATOM     10  H   UNL     1      36.969 -26.191 -14.072  0.00  0.00    +0.211 HD
ENDBRANCH   3   9
BRANCH   4  11
ATOM     11  O   UNL     1      37.900 -22.546 -16.742  0.00  0.00    -0.378 OA
ATOM     12  H   UNL     1      37.968 -23.377 -17.239  0.00  0.00    +0.211 HD
ENDBRANCH   4  11
BRANCH   6  13
ATOM     13  O   UNL     1      35.207 -23.144 -17.259  0.00  0.00    -0.329 OA
BRANCH  13  14
ATOM     14  C   UNL     1      33.881 -22.833 -17.663  0.00  0.00    +0.145 C 
BRANCH  14  15
ATOM     15  C   UNL     1      33.827 -22.655 -19.174  0.00  0.00    +0.032 C 
BRANCH  15  16
ATOM     16  C   UNL     1      33.440 -21.227 -19.575  0.00  0.00    +0.003 C 
BRANCH  16  17
ATOM     17  C   UNL     1      34.611 -20.504 -20.244  0.00  0.00    +0.000 C 
BRANCH  17  18
ATOM     18  C   UNL     1      34.173 -19.502 -21.318  0.00  0.00    +0.000 C 
BRANCH  18  19
ATOM     19  C   UNL     1      35.340 -18.944 -22.137  0.00  0.00    +0.000 C 
BRANCH  19  20
ATOM     20  C   UNL     1      35.049 -18.879 -23.640  0.00  0.00    +0.000 C 
BRANCH  20  21
ATOM     21  C   UNL     1      34.693 -17.494 -24.194  0.00  0.00    +0.000 C 
BRANCH  21  22
ATOM     22  C   UNL     1      35.106 -16.346 -23.271  0.00  0.00    +0.000 C 
BRANCH  22  23
ATOM     23  C   UNL     1      34.036 -15.256 -23.140  0.00  0.00    +0.000 C 
BRANCH  23  24
ATOM     24  C   UNL     1      33.446 -15.145 -21.734  0.00  0.00    +0.000 C 
ATOM     25  C   UNL     1      34.432 -15.627 -20.680  0.00  0.00    +0.000 C 
ENDBRANCH  23  24
ENDBRANCH  22  23
ENDBRANCH  21  22
ENDBRANCH  20  21
ENDBRANCH  19  20
ENDBRANCH  18  19
ENDBRANCH  17  18
ENDBRANCH  16  17
ENDBRANCH  15  16
ENDBRANCH  14  15
ENDBRANCH  13  14
ENDBRANCH   6  13
BRANCH   5  26
ATOM     26  C   UNL     1      33.647 -24.170 -13.438  0.00  0.00    +0.169 C 
BRANCH  26  27
ATOM     27  O   UNL     1      34.229 -23.785 -12.206  0.00  0.00    -0.379 OA
ATOM     28  H   UNL     1      33.564 -23.842 -11.503  0.00  0.00    +0.211 HD
ENDBRANCH  26  27
ENDBRANCH   5  26
TORSDOF 17
ENDMDL
MODEL 8
REMARK VINA RESULT:      -7.8      7.360     11.616
REMARK  Name = 10893439
REMARK  17 active torsions:
REMARK  status: ('A' for Active; 'I' for Inactive)
REMARK    1  A    between atoms: C_2  and  O_7
REMARK    2  A    between atoms: C_3  and  O_9
REMARK    3  A    between atoms: C_4  and  O_11
REMARK    4  A    between atoms: C_5  and  C_26
REMARK    5  A    between atoms: C_6  and  O_13
REMARK    6  A    between atoms: O_13  and  C_14
REMARK    7  A    between atoms: C_14  and  C_15
REMARK    8  A    between atoms: C_15  and  C_16
REMARK    9  A    between atoms: C_16  and  C_17
REMARK   10  A    between atoms: C_17  and  C_18
REMARK   11  A    between atoms: C_18  and  C_19
REMARK   12  A    between atoms: C_19  and  C_20
REMARK   13  A    between atoms: C_20  and  C_21
REMARK   14  A    between atoms: C_21  and  C_22
REMARK   15  A    between atoms: C_22  and  C_23
REMARK   16  A    between atoms: C_23  and  C_24
REMARK   17  A    between atoms: C_26  and  O_27
REMARK                            x       y       z     vdW  Elec       q    Type
REMARK                         _______ _______ _______ _____ _____    ______ ____
ROOT
ATOM      1  O   UNL     1      35.128 -16.797 -21.705  0.00  0.00    -0.326 OA
ATOM      2  C   UNL     1      34.390 -16.747 -24.497  0.00  0.00    +0.172 C 
ATOM      3  C   UNL     1      35.066 -17.960 -23.854  0.00  0.00    +0.169 C 
ATOM      4  C   UNL     1      34.693 -15.479 -23.700  0.00  0.00    +0.196 C 
ATOM      5  C   UNL     1      34.772 -18.026 -22.349  0.00  0.00    +0.176 C 
ATOM      6  C   UNL     1      34.412 -15.667 -22.209  0.00  0.00    +0.266 C 
ENDROOT
BRANCH   2   7
ATOM      7  O   UNL     1      34.901 -16.599 -25.823  0.00  0.00    -0.379 OA
ATOM      8  H   UNL     1      35.733 -16.102 -25.796  0.00  0.00    +0.211 HD
ENDBRANCH   2   7
BRANCH   3   9
ATOM      9  O   UNL     1      34.582 -19.132 -24.505  0.00  0.00    -0.379 OA
ATOM     10  H   UNL     1      35.303 -19.775 -24.592  0.00  0.00    +0.211 HD
ENDBRANCH   3   9
BRANCH   4  11
ATOM     11  O   UNL     1      33.919 -14.402 -24.216  0.00  0.00    -0.378 OA
ATOM     12  H   UNL     1      33.560 -13.879 -23.481  0.00  0.00    +0.211 HD
ENDBRANCH   4  11
BRANCH   6  13
ATOM     13  O   UNL     1      33.017 -15.738 -21.919  0.00  0.00    -0.329 OA
BRANCH  13  14
ATOM     14  C   UNL     1      32.714 -15.142 -20.665  0.00  0.00    +0.145 C 
BRANCH  14  15
ATOM     15  C   UNL     1      32.886 -13.631 -20.753  0.00  0.00    +0.032 C 
BRANCH  15  16
ATOM     16  C   UNL     1      31.914 -12.994 -21.752  0.00  0.00    +0.003 C 
BRANCH  16  17
ATOM     17  C   UNL     1      31.324 -11.695 -21.197  0.00  0.00    +0.000 C 
BRANCH  17  18
ATOM     18  C   UNL     1      31.620 -11.482 -19.708  0.00  0.00    +0.000 C 
BRANCH  18  19
ATOM     19  C   UNL     1      32.013 -10.042 -19.371  0.00  0.00    +0.000 C 
BRANCH  19  20
ATOM     20  C   UNL     1      31.979  -9.104 -20.583  0.00  0.00    +0.000 C 
BRANCH  20  21
ATOM     21  C   UNL     1      32.611  -7.722 -20.378  0.00  0.00    +0.000 C 
BRANCH  21  22
ATOM     22  C   UNL     1      32.290  -6.735 -21.504  0.00  0.00    +0.000 C 
BRANCH  22  23
ATOM     23  C   UNL     1      32.361  -7.362 -22.900  0.00  0.00    +0.000 C 
BRANCH  23  24
ATOM     24  C   UNL     1      33.543  -6.865 -23.734  0.00  0.00    +0.000 C 
ATOM     25  C   UNL     1      34.798  -7.676 -23.453  0.00  0.00    +0.000 C 
ENDBRANCH  23  24
ENDBRANCH  22  23
ENDBRANCH  21  22
ENDBRANCH  20  21
ENDBRANCH  19  20
ENDBRANCH  18  19
ENDBRANCH  17  18
ENDBRANCH  16  17
ENDBRANCH  15  16
ENDBRANCH  14  15
ENDBRANCH  13  14
ENDBRANCH   6  13
BRANCH   5  26
ATOM     26  C   UNL     1      35.563 -19.135 -21.659  0.00  0.00    +0.169 C 
BRANCH  26  27
ATOM     27  O   UNL     1      36.060 -18.635 -20.431  0.00  0.00    -0.379 OA
ATOM     28  H   UNL     1      36.830 -19.158 -20.159  0.00  0.00    +0.211 HD
ENDBRANCH  26  27
ENDBRANCH   5  26
TORSDOF 17
ENDMDL
MODEL 9
REMARK VINA RESULT:      -7.8     10.574     14.907
REMARK  Name = 10893439
REMARK  17 active torsions:
REMARK  status: ('A' for Active; 'I' for Inactive)
REMARK    1  A    between atoms: C_2  and  O_7
REMARK    2  A    between atoms: C_3  and  O_9
REMARK    3  A    between atoms: C_4  and  O_11
REMARK    4  A    between atoms: C_5  and  C_26
REMARK    5  A    between atoms: C_6  and  O_13
REMARK    6  A    between atoms: O_13  and  C_14
REMARK    7  A    between atoms: C_14  and  C_15
REMARK    8  A    between atoms: C_15  and  C_16
REMARK    9  A    between atoms: C_16  and  C_17
REMARK   10  A    between atoms: C_17  and  C_18
REMARK   11  A    between atoms: C_18  and  C_19
REMARK   12  A    between atoms: C_19  and  C_20
REMARK   13  A    between atoms: C_20  and  C_21
REMARK   14  A    between atoms: C_21  and  C_22
REMARK   15  A    between atoms: C_22  and  C_23
REMARK   16  A    between atoms: C_23  and  C_24
REMARK   17  A    between atoms: C_26  and  O_27
REMARK                            x       y       z     vdW  Elec       q    Type
REMARK                         _______ _______ _______ _____ _____    ______ ____
ROOT
ATOM      1  O   UNL     1      31.366  -9.349 -21.983  0.00  0.00    -0.326 OA
ATOM      2  C   UNL     1      32.418  -6.670 -21.734  0.00  0.00    +0.172 C 
ATOM      3  C   UNL     1      32.135  -7.552 -20.516  0.00  0.00    +0.169 C 
ATOM      4  C   UNL     1      31.576  -7.118 -22.927  0.00  0.00    +0.196 C 
ATOM      5  C   UNL     1      32.221  -9.041 -20.877  0.00  0.00    +0.176 C 
ATOM      6  C   UNL     1      31.695  -8.623 -23.171  0.00  0.00    +0.266 C 
ENDROOT
BRANCH   2   7
ATOM      7  O   UNL     1      32.078  -5.323 -21.401  0.00  0.00    -0.379 OA
ATOM      8  H   UNL     1      31.138  -5.275 -21.166  0.00  0.00    +0.211 HD
ENDBRANCH   2   7
BRANCH   3   9
ATOM      9  O   UNL     1      33.090  -7.231 -19.507  0.00  0.00    -0.379 OA
ATOM     10  H   UNL     1      33.981  -7.236 -19.892  0.00  0.00    +0.211 HD
ENDBRANCH   3   9
BRANCH   4  11
ATOM     11  O   UNL     1      31.980  -6.398 -24.086  0.00  0.00    -0.378 OA
ATOM     12  H   UNL     1      31.680  -5.477 -24.017  0.00  0.00    +0.211 HD
ENDBRANCH   4  11
BRANCH   6  13
ATOM     13  O   UNL     1      32.969  -8.995 -23.694  0.00  0.00    -0.329 OA
BRANCH  13  14
ATOM     14  C   UNL     1      33.127 -10.406 -23.730  0.00  0.00    +0.145 C 
BRANCH  14  15
ATOM     15  C   UNL     1      34.192 -10.784 -24.752  0.00  0.00    +0.032 C 
BRANCH  15  16
ATOM     16  C   UNL     1      33.927 -12.155 -25.384  0.00  0.00    +0.003 C 
BRANCH  16  17
ATOM     17  C   UNL     1      33.853 -13.250 -24.317  0.00  0.00    +0.000 C 
BRANCH  17  18
ATOM     18  C   UNL     1      33.115 -14.508 -24.789  0.00  0.00    +0.000 C 
BRANCH  18  19
ATOM     19  C   UNL     1      33.914 -15.795 -24.571  0.00  0.00    +0.000 C 
BRANCH  19  20
ATOM     20  C   UNL     1      34.867 -15.722 -23.373  0.00  0.00    +0.000 C 
BRANCH  20  21
ATOM     21  C   UNL     1      34.782 -16.886 -22.378  0.00  0.00    +0.000 C 
BRANCH  21  22
ATOM     22  C   UNL     1      34.847 -16.441 -20.914  0.00  0.00    +0.000 C 
BRANCH  22  23
ATOM     23  C   UNL     1      34.371 -15.001 -20.696  0.00  0.00    +0.000 C 
BRANCH  23  24
ATOM     24  C   UNL     1      32.856 -14.878 -20.530  0.00  0.00    +0.000 C 
ATOM     25  C   UNL     1      32.366 -13.494 -20.930  0.00  0.00    +0.000 C 
ENDBRANCH  23  24
ENDBRANCH  22  23
ENDBRANCH  21  22
ENDBRANCH  20  21
ENDBRANCH  19  20
ENDBRANCH  18  19
ENDBRANCH  17  18
ENDBRANCH  16  17
ENDBRANCH  15  16
ENDBRANCH  14  15
ENDBRANCH  13  14
ENDBRANCH   6  13
BRANCH   5  26
ATOM     26  C   UNL     1      31.789  -9.937 -19.718  0.00  0.00    +0.169 C 
BRANCH  26  27
ATOM     27  O   UNL     1      32.775  -9.867 -18.704  0.00  0.00    -0.379 OA
ATOM     28  H   UNL     1      33.636 -10.113 -19.075  0.00  0.00    +0.211 HD
ENDBRANCH  26  27
ENDBRANCH   5  26
TORSDOF 17
ENDMDL
