MODEL 1
REMARK VINA RESULT:      -6.7      0.000      0.000
REMARK  Name = 5917
REMARK  0 active torsions:
REMARK  status: ('A' for Active; 'I' for Inactive)
REMARK                            x       y       z     vdW  Elec       q    Type
REMARK                         _______ _______ _______ _____ _____    ______ ____
ROOT
ATOM      1  N   UNL     1      28.900 -22.850 -15.986  0.00  0.00    -0.217 N 
ATOM      2  N   UNL     1      28.440 -22.209 -17.071  0.00  0.00    -0.043 NA
ATOM      3  N   UNL     1      27.887 -24.366 -17.158  0.00  0.00    -0.113 NA
ATOM      4  N   UNL     1      27.822 -23.141 -17.782  0.00  0.00    -0.023 NA
ATOM      5  C   UNL     1      31.005 -24.094 -13.974  0.00  0.00    +0.003 C 
ATOM      6  C   UNL     1      31.024 -22.755 -14.718  0.00  0.00    +0.026 C 
ATOM      7  C   UNL     1      30.417 -25.265 -14.765  0.00  0.00    +0.008 C 
ATOM      8  C   UNL     1      29.640 -22.160 -14.961  0.00  0.00    +0.131 C 
ATOM      9  C   UNL     1      28.910 -25.166 -15.003  0.00  0.00    +0.067 C 
ATOM     10  C   UNL     1      28.559 -24.170 -16.042  0.00  0.00    +0.161 A 
ENDROOT
TORSDOF 0
ENDMDL
MODEL 2
REMARK VINA RESULT:      -6.4     10.706     11.639
REMARK  Name = 5917
REMARK  0 active torsions:
REMARK  status: ('A' for Active; 'I' for Inactive)
REMARK                            x       y       z     vdW  Elec       q    Type
REMARK                         _______ _______ _______ _____ _____    ______ ____
ROOT
ATOM      1  N   UNL     1      34.788 -17.505 -24.333  0.00  0.00    -0.217 N 
ATOM      2  N   UNL     1      34.435 -17.539 -25.626  0.00  0.00    -0.043 NA
ATOM      3  N   UNL     1      33.962 -15.545 -24.750  0.00  0.00    -0.113 NA
ATOM      4  N   UNL     1      33.931 -16.338 -25.874  0.00  0.00    -0.023 NA
ATOM      5  C   UNL     1      34.725 -18.204 -21.245  0.00  0.00    +0.003 C 
ATOM      6  C   UNL     1      34.594 -19.120 -22.466  0.00  0.00    +0.026 C 
ATOM      7  C   UNL     1      34.065 -16.831 -21.392  0.00  0.00    +0.008 C 
ATOM      8  C   UNL     1      35.382 -18.646 -23.684  0.00  0.00    +0.131 C 
ATOM      9  C   UNL     1      34.761 -15.906 -22.390  0.00  0.00    +0.067 C 
ATOM     10  C   UNL     1      34.498 -16.283 -23.799  0.00  0.00    +0.161 A 
ENDROOT
TORSDOF 0
ENDMDL
MODEL 3
REMARK VINA RESULT:      -6.4      7.447      8.317
REMARK  Name = 5917
REMARK  0 active torsions:
REMARK  status: ('A' for Active; 'I' for Inactive)
REMARK                            x       y       z     vdW  Elec       q    Type
REMARK                         _______ _______ _______ _____ _____    ______ ____
ROOT
ATOM      1  N   UNL     1      34.314 -19.540 -20.792  0.00  0.00    -0.217 N 
ATOM      2  N   UNL     1      34.281 -18.226 -21.057  0.00  0.00    -0.043 NA
ATOM      3  N   UNL     1      36.375 -18.882 -20.671  0.00  0.00    -0.113 NA
ATOM      4  N   UNL     1      35.544 -17.830 -20.982  0.00  0.00    -0.023 NA
ATOM      5  C   UNL     1      33.819 -22.238 -19.210  0.00  0.00    +0.003 C 
ATOM      6  C   UNL     1      32.883 -21.050 -19.449  0.00  0.00    +0.026 C 
ATOM      7  C   UNL     1      35.289 -21.869 -18.989  0.00  0.00    +0.008 C 
ATOM      8  C   UNL     1      33.113 -20.337 -20.779  0.00  0.00    +0.131 C 
ATOM      9  C   UNL     1      35.992 -21.331 -20.234  0.00  0.00    +0.067 C 
ATOM     10  C   UNL     1      35.598 -19.939 -20.557  0.00  0.00    +0.161 A 
ENDROOT
TORSDOF 0
ENDMDL
MODEL 4
REMARK VINA RESULT:      -6.4      7.406      8.392
REMARK  Name = 5917
REMARK  0 active torsions:
REMARK  status: ('A' for Active; 'I' for Inactive)
REMARK                            x       y       z     vdW  Elec       q    Type
REMARK                         _______ _______ _______ _____ _____    ______ ____
ROOT
ATOM      1  N   UNL     1      36.250 -25.646 -14.443  0.00  0.00    -0.217 N 
ATOM      2  N   UNL     1      36.002 -26.192 -15.642  0.00  0.00    -0.043 NA
ATOM      3  N   UNL     1      37.784 -27.154 -14.712  0.00  0.00    -0.113 NA
ATOM      4  N   UNL     1      36.943 -27.113 -15.800  0.00  0.00    -0.023 NA
ATOM      5  C   UNL     1      37.088 -23.444 -12.327  0.00  0.00    +0.003 C 
ATOM      6  C   UNL     1      36.217 -23.324 -13.582  0.00  0.00    +0.026 C 
ATOM      7  C   UNL     1      38.278 -24.398 -12.454  0.00  0.00    +0.008 C 
ATOM      8  C   UNL     1      35.428 -24.589 -13.912  0.00  0.00    +0.131 C 
ATOM      9  C   UNL     1      37.889 -25.873 -12.547  0.00  0.00    +0.067 C 
ATOM     10  C   UNL     1      37.341 -26.237 -13.875  0.00  0.00    +0.161 A 
ENDROOT
TORSDOF 0
ENDMDL
MODEL 5
REMARK VINA RESULT:      -6.3     10.721     11.613
REMARK  Name = 5917
REMARK  0 active torsions:
REMARK  status: ('A' for Active; 'I' for Inactive)
REMARK                            x       y       z     vdW  Elec       q    Type
REMARK                         _______ _______ _______ _____ _____    ______ ____
ROOT
ATOM      1  N   UNL     1      35.030 -16.226 -22.451  0.00  0.00    -0.217 N 
ATOM      2  N   UNL     1      34.736 -15.505 -21.359  0.00  0.00    -0.043 NA
ATOM      3  N   UNL     1      35.323 -17.574 -20.779  0.00  0.00    -0.113 NA
ATOM      4  N   UNL     1      34.917 -16.335 -20.342  0.00  0.00    -0.023 NA
ATOM      5  C   UNL     1      34.559 -17.772 -25.173  0.00  0.00    +0.003 C 
ATOM      6  C   UNL     1      34.005 -16.427 -24.696  0.00  0.00    +0.026 C 
ATOM      7  C   UNL     1      34.691 -18.841 -24.085  0.00  0.00    +0.008 C 
ATOM      8  C   UNL     1      34.949 -15.660 -23.773  0.00  0.00    +0.131 C 
ATOM      9  C   UNL     1      35.780 -18.551 -23.053  0.00  0.00    +0.067 C 
ATOM     10  C   UNL     1      35.391 -17.493 -22.092  0.00  0.00    +0.161 A 
ENDROOT
TORSDOF 0
ENDMDL
MODEL 6
REMARK VINA RESULT:      -6.3      6.757      7.597
REMARK  Name = 5917
REMARK  0 active torsions:
REMARK  status: ('A' for Active; 'I' for Inactive)
REMARK                            x       y       z     vdW  Elec       q    Type
REMARK                         _______ _______ _______ _____ _____    ______ ____
ROOT
ATOM      1  N   UNL     1      34.726 -21.882 -19.422  0.00  0.00    -0.217 N 
ATOM      2  N   UNL     1      34.751 -22.684 -18.347  0.00  0.00    -0.043 NA
ATOM      3  N   UNL     1      32.678 -21.956 -18.716  0.00  0.00    -0.113 NA
ATOM      4  N   UNL     1      33.497 -22.725 -17.921  0.00  0.00    -0.023 NA
ATOM      5  C   UNL     1      35.292 -19.325 -21.201  0.00  0.00    +0.003 C 
ATOM      6  C   UNL     1      36.221 -20.093 -20.256  0.00  0.00    +0.026 C 
ATOM      7  C   UNL     1      33.839 -19.213 -20.732  0.00  0.00    +0.008 C 
ATOM      8  C   UNL     1      35.921 -21.587 -20.171  0.00  0.00    +0.131 C 
ATOM      9  C   UNL     1      33.071 -20.534 -20.755  0.00  0.00    +0.067 C 
ATOM     10  C   UNL     1      33.454 -21.439 -19.646  0.00  0.00    +0.161 A 
ENDROOT
TORSDOF 0
ENDMDL
MODEL 7
REMARK VINA RESULT:      -6.1      7.090      7.950
REMARK  Name = 5917
REMARK  0 active torsions:
REMARK  status: ('A' for Active; 'I' for Inactive)
REMARK                            x       y       z     vdW  Elec       q    Type
REMARK                         _______ _______ _______ _____ _____    ______ ____
ROOT
ATOM      1  N   UNL     1      33.869 -21.205 -19.831  0.00  0.00    -0.217 N 
ATOM      2  N   UNL     1      32.989 -22.212 -19.729  0.00  0.00    -0.043 NA
ATOM      3  N   UNL     1      34.962 -22.827 -18.897  0.00  0.00    -0.113 NA
ATOM      4  N   UNL     1      33.663 -23.199 -19.158  0.00  0.00    -0.023 NA
ATOM      5  C   UNL     1      35.789 -19.102 -21.216  0.00  0.00    +0.003 C 
ATOM      6  C   UNL     1      34.377 -19.551 -21.603  0.00  0.00    +0.026 C 
ATOM      7  C   UNL     1      36.689 -20.207 -20.656  0.00  0.00    +0.008 C 
ATOM      8  C   UNL     1      33.502 -19.939 -20.413  0.00  0.00    +0.131 C 
ATOM      9  C   UNL     1      36.273 -20.711 -19.275  0.00  0.00    +0.067 C 
ATOM     10  C   UNL     1      35.077 -21.584 -19.320  0.00  0.00    +0.161 A 
ENDROOT
TORSDOF 0
ENDMDL
MODEL 8
REMARK VINA RESULT:      -6.1     10.851     11.621
REMARK  Name = 5917
REMARK  0 active torsions:
REMARK  status: ('A' for Active; 'I' for Inactive)
REMARK                            x       y       z     vdW  Elec       q    Type
REMARK                         _______ _______ _______ _____ _____    ______ ____
ROOT
ATOM      1  N   UNL     1      34.008 -16.300 -23.805  0.00  0.00    -0.217 N 
ATOM      2  N   UNL     1      33.818 -15.426 -24.803  0.00  0.00    -0.043 NA
ATOM      3  N   UNL     1      34.661 -17.329 -25.598  0.00  0.00    -0.113 NA
ATOM      4  N   UNL     1      34.219 -16.060 -25.896  0.00  0.00    -0.023 NA
ATOM      5  C   UNL     1      35.268 -17.543 -21.180  0.00  0.00    +0.003 C 
ATOM      6  C   UNL     1      34.877 -16.097 -21.496  0.00  0.00    +0.026 C 
ATOM      7  C   UNL     1      35.858 -18.325 -22.356  0.00  0.00    +0.008 C 
ATOM      8  C   UNL     1      33.685 -15.969 -22.441  0.00  0.00    +0.131 C 
ATOM      9  C   UNL     1      34.853 -18.646 -23.461  0.00  0.00    +0.067 C 
ATOM     10  C   UNL     1      34.523 -17.466 -24.295  0.00  0.00    +0.161 A 
ENDROOT
TORSDOF 0
ENDMDL
MODEL 9
REMARK VINA RESULT:      -6.1      8.994     10.149
REMARK  Name = 5917
REMARK  0 active torsions:
REMARK  status: ('A' for Active; 'I' for Inactive)
REMARK                            x       y       z     vdW  Elec       q    Type
REMARK                         _______ _______ _______ _____ _____    ______ ____
ROOT
ATOM      1  N   UNL     1      38.825 -26.082 -14.298  0.00  0.00    -0.217 N 
ATOM      2  N   UNL     1      39.908 -26.487 -14.976  0.00  0.00    -0.043 NA
ATOM      3  N   UNL     1      40.431 -24.782 -13.641  0.00  0.00    -0.113 NA
ATOM      4  N   UNL     1      40.886 -25.689 -14.570  0.00  0.00    -0.023 NA
ATOM      5  C   UNL     1      35.969 -24.808 -13.800  0.00  0.00    +0.003 C 
ATOM      6  C   UNL     1      36.450 -25.747 -14.910  0.00  0.00    +0.026 C 
ATOM      7  C   UNL     1      36.994 -23.765 -13.345  0.00  0.00    +0.008 C 
ATOM      8  C   UNL     1      37.544 -26.717 -14.473  0.00  0.00    +0.131 C 
ATOM      9  C   UNL     1      38.186 -24.349 -12.588  0.00  0.00    +0.067 C 
ATOM     10  C   UNL     1      39.149 -25.038 -13.480  0.00  0.00    +0.161 A 
ENDROOT
TORSDOF 0
ENDMDL
