MODEL 1
REMARK VINA RESULT:     -11.8      0.000      0.000
REMARK  Name = 46937054
REMARK  4 active torsions:
REMARK  status: ('A' for Active; 'I' for Inactive)
REMARK    1  A    between atoms: C_5  and  C_18
REMARK    2  A    between atoms: C_11  and  O_19
REMARK    3  A    between atoms: O_19  and  C_20
REMARK    4  A    between atoms: C_20  and  C_22
REMARK                            x       y       z     vdW  Elec       q    Type
REMARK                         _______ _______ _______ _____ _____    ______ ____
ROOT
ATOM      1 CL   UNL     1      30.080 -23.474 -15.811  0.00  0.00    -0.047 Cl
ATOM      2  O   UNL     1      35.532 -22.796 -17.450  0.00  0.00    -0.263 OA
ATOM      3  N   UNL     1      34.049 -23.470 -15.779  0.00  0.00    -0.240 N 
ATOM      4  N   UNL     1      31.973 -22.947 -17.566  0.00  0.00    -0.351 NA
ATOM      5  C   UNL     1      34.950 -23.765 -14.664  0.00  0.00    +0.161 C 
ATOM      6  C   UNL     1      33.973 -24.058 -13.562  0.00  0.00    +0.057 C 
ATOM      7  C   UNL     1      32.731 -23.594 -15.396  0.00  0.00    +0.091 C 
ATOM      8  C   UNL     1      32.711 -23.971 -14.007  0.00  0.00    -0.005 C 
ATOM      9  C   UNL     1      34.408 -23.013 -17.025  0.00  0.00    +0.320 C 
ATOM     10  C   UNL     1      31.745 -23.341 -16.267  0.00  0.00    +0.206 C 
ATOM     11  C   UNL     1      33.209 -22.789 -17.916  0.00  0.00    +0.335 C 
ENDROOT
BRANCH   5  18
ATOM     12  O   UNL     1      35.222 -25.906 -15.670  0.00  0.00    -0.273 OA
ATOM     13  N   UNL     1      36.973 -25.113 -14.388  0.00  0.00    -0.278 N 
ATOM     14  C   UNL     1      37.617 -24.110 -13.546  0.00  0.00    +0.094 C 
ATOM     15  C   UNL     1      37.836 -26.270 -14.575  0.00  0.00    +0.094 C 
ATOM     16  C   UNL     1      38.835 -24.821 -12.973  0.00  0.00    +0.023 C 
ATOM     17  C   UNL     1      39.196 -25.817 -14.068  0.00  0.00    +0.023 C 
ATOM     18  C   UNL     1      35.717 -25.028 -14.963  0.00  0.00    +0.244 C 
ENDBRANCH   5  18
BRANCH  11  19
ATOM     19  O   UNL     1      33.549 -22.403 -19.155  0.00  0.00    -0.444 OA
BRANCH  19  20
ATOM     20  C   UNL     1      33.006 -21.145 -19.539  0.00  0.00    +0.235 C 
BRANCH  20  22
ATOM     21  F   UNL     1      36.949 -18.200 -22.271  0.00  0.00    -0.204 F 
ATOM     22  C   UNL     1      34.057 -20.360 -20.267  0.00  0.00    +0.021 C 
ATOM     23  C   UNL     1      33.684 -19.359 -21.164  0.00  0.00    +0.002 C 
ATOM     24  C   UNL     1      35.407 -20.632 -20.048  0.00  0.00    +0.002 C 
ATOM     25  C   UNL     1      34.660 -18.629 -21.841  0.00  0.00    +0.029 C 
ATOM     26  C   UNL     1      36.385 -19.901 -20.725  0.00  0.00    +0.029 C 
ATOM     27  C   UNL     1      36.011 -18.900 -21.622  0.00  0.00    +0.140 C 
ENDBRANCH  20  22
ENDBRANCH  19  20
ENDBRANCH  11  19
TORSDOF 4
ENDMDL
MODEL 2
REMARK VINA RESULT:     -11.1      2.539      5.056
REMARK  Name = 46937054
REMARK  4 active torsions:
REMARK  status: ('A' for Active; 'I' for Inactive)
REMARK    1  A    between atoms: C_5  and  C_18
REMARK    2  A    between atoms: C_11  and  O_19
REMARK    3  A    between atoms: O_19  and  C_20
REMARK    4  A    between atoms: C_20  and  C_22
REMARK                            x       y       z     vdW  Elec       q    Type
REMARK                         _______ _______ _______ _____ _____    ______ ____
ROOT
ATOM      1 CL   UNL     1      37.208 -23.104 -14.448  0.00  0.00    -0.047 Cl
ATOM      2  O   UNL     1      32.643 -23.364 -17.906  0.00  0.00    -0.263 OA
ATOM      3  N   UNL     1      33.495 -23.626 -15.750  0.00  0.00    -0.240 N 
ATOM      4  N   UNL     1      35.946 -22.726 -16.730  0.00  0.00    -0.351 NA
ATOM      5  C   UNL     1      32.343 -24.164 -15.024  0.00  0.00    +0.161 C 
ATOM      6  C   UNL     1      32.950 -24.459 -13.682  0.00  0.00    +0.057 C 
ATOM      7  C   UNL     1      34.613 -23.588 -14.945  0.00  0.00    +0.091 C 
ATOM      8  C   UNL     1      34.244 -24.106 -13.654  0.00  0.00    -0.005 C 
ATOM      9  C   UNL     1      33.543 -23.300 -17.085  0.00  0.00    +0.320 C 
ATOM     10  C   UNL     1      35.783 -23.151 -15.431  0.00  0.00    +0.206 C 
ATOM     11  C   UNL     1      34.907 -22.801 -17.499  0.00  0.00    +0.335 C 
ENDROOT
BRANCH   5  18
ATOM     12  O   UNL     1      31.565 -22.084 -14.167  0.00  0.00    -0.273 OA
ATOM     13  N   UNL     1      30.105 -23.293 -15.488  0.00  0.00    -0.278 N 
ATOM     14  C   UNL     1      29.745 -24.444 -16.310  0.00  0.00    +0.094 C 
ATOM     15  C   UNL     1      29.006 -22.342 -15.411  0.00  0.00    +0.094 C 
ATOM     16  C   UNL     1      28.245 -24.304 -16.523  0.00  0.00    +0.023 C 
ATOM     17  C   UNL     1      28.034 -22.795 -16.489  0.00  0.00    +0.023 C 
ATOM     18  C   UNL     1      31.313 -23.078 -14.848  0.00  0.00    +0.244 C 
ENDBRANCH   5  18
BRANCH  11  19
ATOM     19  O   UNL     1      34.951 -22.420 -18.784  0.00  0.00    -0.444 OA
BRANCH  19  20
ATOM     20  C   UNL     1      36.068 -21.601 -19.108  0.00  0.00    +0.235 C 
BRANCH  20  22
ATOM     21  F   UNL     1      34.403 -17.536 -22.629  0.00  0.00    -0.204 F 
ATOM     22  C   UNL     1      35.624 -20.517 -20.047  0.00  0.00    +0.021 C 
ATOM     23  C   UNL     1      36.561 -19.637 -20.589  0.00  0.00    +0.002 C 
ATOM     24  C   UNL     1      34.275 -20.390 -20.377  0.00  0.00    +0.002 C 
ATOM     25  C   UNL     1      36.149 -18.630 -21.461  0.00  0.00    +0.029 C 
ATOM     26  C   UNL     1      33.862 -19.383 -21.250  0.00  0.00    +0.029 C 
ATOM     27  C   UNL     1      34.800 -18.503 -21.792  0.00  0.00    +0.140 C 
ENDBRANCH  20  22
ENDBRANCH  19  20
ENDBRANCH  11  19
TORSDOF 4
ENDMDL
MODEL 3
REMARK VINA RESULT:     -10.3      6.696      9.773
REMARK  Name = 46937054
REMARK  4 active torsions:
REMARK  status: ('A' for Active; 'I' for Inactive)
REMARK    1  A    between atoms: C_5  and  C_18
REMARK    2  A    between atoms: C_11  and  O_19
REMARK    3  A    between atoms: O_19  and  C_20
REMARK    4  A    between atoms: C_20  and  C_22
REMARK                            x       y       z     vdW  Elec       q    Type
REMARK                         _______ _______ _______ _____ _____    ______ ____
ROOT
ATOM      1 CL   UNL     1      33.974 -15.004 -26.102  0.00  0.00    -0.047 Cl
ATOM      2  O   UNL     1      33.814 -16.592 -20.596  0.00  0.00    -0.263 OA
ATOM      3  N   UNL     1      34.231 -17.203 -22.808  0.00  0.00    -0.240 N 
ATOM      4  N   UNL     1      33.738 -14.552 -23.517  0.00  0.00    -0.351 NA
ATOM      5  C   UNL     1      34.481 -18.641 -22.692  0.00  0.00    +0.161 C 
ATOM      6  C   UNL     1      34.605 -19.039 -24.135  0.00  0.00    +0.057 C 
ATOM      7  C   UNL     1      34.232 -16.807 -24.129  0.00  0.00    +0.091 C 
ATOM      8  C   UNL     1      34.476 -17.972 -24.937  0.00  0.00    -0.005 C 
ATOM      9  C   UNL     1      33.916 -16.340 -21.785  0.00  0.00    +0.320 C 
ATOM     10  C   UNL     1      33.995 -15.528 -24.452  0.00  0.00    +0.206 C 
ATOM     11  C   UNL     1      33.696 -14.930 -22.279  0.00  0.00    +0.335 C 
ENDROOT
BRANCH   5  18
ATOM     12  O   UNL     1      36.813 -18.252 -22.406  0.00  0.00    -0.273 OA
ATOM     13  N   UNL     1      35.818 -19.784 -20.992  0.00  0.00    -0.278 N 
ATOM     14  C   UNL     1      34.673 -20.538 -20.490  0.00  0.00    +0.094 C 
ATOM     15  C   UNL     1      37.026 -20.115 -20.251  0.00  0.00    +0.094 C 
ATOM     16  C   UNL     1      35.282 -21.583 -19.566  0.00  0.00    +0.023 C 
ATOM     17  C   UNL     1      36.530 -20.887 -19.038  0.00  0.00    +0.023 C 
ATOM     18  C   UNL     1      35.814 -18.864 -22.024  0.00  0.00    +0.244 C 
ENDBRANCH   5  18
BRANCH  11  19
ATOM     19  O   UNL     1      33.448 -14.065 -21.285  0.00  0.00    -0.444 OA
BRANCH  19  20
ATOM     20  C   UNL     1      32.077 -13.711 -21.152  0.00  0.00    +0.235 C 
BRANCH  20  22
ATOM     21  F   UNL     1      31.636  -8.101 -21.009  0.00  0.00    -0.204 F 
ATOM     22  C   UNL     1      31.959 -12.216 -21.114  0.00  0.00    +0.021 C 
ATOM     23  C   UNL     1      31.716 -11.566 -19.904  0.00  0.00    +0.002 C 
ATOM     24  C   UNL     1      32.092 -11.476 -22.288  0.00  0.00    +0.002 C 
ATOM     25  C   UNL     1      31.607 -10.176 -19.868  0.00  0.00    +0.029 C 
ATOM     26  C   UNL     1      31.983 -10.085 -22.253  0.00  0.00    +0.029 C 
ATOM     27  C   UNL     1      31.740  -9.435 -21.042  0.00  0.00    +0.140 C 
ENDBRANCH  20  22
ENDBRANCH  19  20
ENDBRANCH  11  19
TORSDOF 4
ENDMDL
MODEL 4
REMARK VINA RESULT:     -10.0      7.818     11.215
REMARK  Name = 46937054
REMARK  4 active torsions:
REMARK  status: ('A' for Active; 'I' for Inactive)
REMARK    1  A    between atoms: C_5  and  C_18
REMARK    2  A    between atoms: C_11  and  O_19
REMARK    3  A    between atoms: O_19  and  C_20
REMARK    4  A    between atoms: C_20  and  C_22
REMARK                            x       y       z     vdW  Elec       q    Type
REMARK                         _______ _______ _______ _____ _____    ______ ____
ROOT
ATOM      1 CL   UNL     1      33.352 -12.968 -26.357  0.00  0.00    -0.047 Cl
ATOM      2  O   UNL     1      32.863 -15.449 -21.212  0.00  0.00    -0.263 OA
ATOM      3  N   UNL     1      33.540 -15.649 -23.436  0.00  0.00    -0.240 N 
ATOM      4  N   UNL     1      32.838 -12.971 -23.773  0.00  0.00    -0.351 NA
ATOM      5  C   UNL     1      33.927 -17.058 -23.518  0.00  0.00    +0.161 C 
ATOM      6  C   UNL     1      34.222 -17.200 -24.984  0.00  0.00    +0.057 C 
ATOM      7  C   UNL     1      33.618 -15.042 -24.671  0.00  0.00    +0.091 C 
ATOM      8  C   UNL     1      34.055 -16.031 -25.620  0.00  0.00    -0.005 C 
ATOM      9  C   UNL     1      33.045 -14.997 -22.331  0.00  0.00    +0.320 C 
ATOM     10  C   UNL     1      33.278 -13.754 -24.816  0.00  0.00    +0.206 C 
ATOM     11  C   UNL     1      32.724 -13.550 -22.620  0.00  0.00    +0.335 C 
ENDROOT
BRANCH   5  18
ATOM     12  O   UNL     1      36.128 -16.451 -22.842  0.00  0.00    -0.273 OA
ATOM     13  N   UNL     1      35.268 -18.417 -21.987  0.00  0.00    -0.278 N 
ATOM     14  C   UNL     1      34.218 -19.420 -21.839  0.00  0.00    +0.094 C 
ATOM     15  C   UNL     1      36.439 -18.766 -21.198  0.00  0.00    +0.094 C 
ATOM     16  C   UNL     1      34.899 -20.580 -21.126  0.00  0.00    +0.023 C 
ATOM     17  C   UNL     1      35.963 -19.886 -20.285  0.00  0.00    +0.023 C 
ATOM     18  C   UNL     1      35.211 -17.268 -22.756  0.00  0.00    +0.244 C 
ENDBRANCH   5  18
BRANCH  11  19
ATOM     19  O   UNL     1      32.299 -12.887 -21.535  0.00  0.00    -0.444 OA
BRANCH  19  20
ATOM     20  C   UNL     1      31.250 -11.961 -21.795  0.00  0.00    +0.235 C 
BRANCH  20  22
ATOM     21  F   UNL     1      32.716  -6.913 -19.783  0.00  0.00    -0.204 F 
ATOM     22  C   UNL     1      31.641 -10.615 -21.259  0.00  0.00    +0.021 C 
ATOM     23  C   UNL     1      32.041  -9.605 -22.133  0.00  0.00    +0.002 C 
ATOM     24  C   UNL     1      31.605 -10.375 -19.886  0.00  0.00    +0.002 C 
ATOM     25  C   UNL     1      32.404  -8.354 -21.635  0.00  0.00    +0.029 C 
ATOM     26  C   UNL     1      31.968  -9.123 -19.387  0.00  0.00    +0.029 C 
ATOM     27  C   UNL     1      32.368  -8.113 -20.262  0.00  0.00    +0.140 C 
ENDBRANCH  20  22
ENDBRANCH  19  20
ENDBRANCH  11  19
TORSDOF 4
ENDMDL
MODEL 5
REMARK VINA RESULT:      -9.9     10.413     13.783
REMARK  Name = 46937054
REMARK  4 active torsions:
REMARK  status: ('A' for Active; 'I' for Inactive)
REMARK    1  A    between atoms: C_5  and  C_18
REMARK    2  A    between atoms: C_11  and  O_19
REMARK    3  A    between atoms: O_19  and  C_20
REMARK    4  A    between atoms: C_20  and  C_22
REMARK                            x       y       z     vdW  Elec       q    Type
REMARK                         _______ _______ _______ _____ _____    ______ ____
ROOT
ATOM      1 CL   UNL     1      30.392 -11.122 -20.545  0.00  0.00    -0.047 Cl
ATOM      2  O   UNL     1      34.465 -11.514 -24.561  0.00  0.00    -0.263 OA
ATOM      3  N   UNL     1      33.221 -12.594 -22.909  0.00  0.00    -0.240 N 
ATOM      4  N   UNL     1      31.813 -10.211 -22.569  0.00  0.00    -0.351 NA
ATOM      5  C   UNL     1      33.841 -13.919 -22.869  0.00  0.00    +0.161 C 
ATOM      6  C   UNL     1      33.126 -14.547 -21.707  0.00  0.00    +0.057 C 
ATOM      7  C   UNL     1      32.261 -12.467 -21.927  0.00  0.00    +0.091 C 
ATOM      8  C   UNL     1      32.215 -13.705 -21.195  0.00  0.00    -0.005 C 
ATOM      9  C   UNL     1      33.587 -11.541 -23.714  0.00  0.00    +0.320 C 
ATOM     10  C   UNL     1      31.593 -11.315 -21.778  0.00  0.00    +0.206 C 
ATOM     11  C   UNL     1      32.743 -10.314 -23.464  0.00  0.00    +0.335 C 
ENDROOT
BRANCH   5  18
ATOM     12  O   UNL     1      32.710 -14.185 -24.947  0.00  0.00    -0.273 OA
ATOM     13  N   UNL     1      34.041 -15.936 -24.239  0.00  0.00    -0.278 N 
ATOM     14  C   UNL     1      34.952 -16.577 -23.297  0.00  0.00    +0.094 C 
ATOM     15  C   UNL     1      33.781 -16.798 -25.382  0.00  0.00    +0.094 C 
ATOM     16  C   UNL     1      35.037 -18.020 -23.773  0.00  0.00    +0.023 C 
ATOM     17  C   UNL     1      34.826 -17.897 -25.276  0.00  0.00    +0.023 C 
ATOM     18  C   UNL     1      33.474 -14.680 -24.117  0.00  0.00    +0.244 C 
ENDBRANCH   5  18
BRANCH  11  19
ATOM     19  O   UNL     1      33.048  -9.299 -24.286  0.00  0.00    -0.444 OA
BRANCH  19  20
ATOM     20  C   UNL     1      33.846  -8.286 -23.685  0.00  0.00    +0.235 C 
BRANCH  20  22
ATOM     21  F   UNL     1      30.594  -3.846 -22.502  0.00  0.00    -0.204 F 
ATOM     22  C   UNL     1      32.979  -7.103 -23.370  0.00  0.00    +0.021 C 
ATOM     23  C   UNL     1      32.678  -6.792 -22.044  0.00  0.00    +0.002 C 
ATOM     24  C   UNL     1      32.474  -6.313 -24.403  0.00  0.00    +0.002 C 
ATOM     25  C   UNL     1      31.872  -5.692 -21.750  0.00  0.00    +0.029 C 
ATOM     26  C   UNL     1      31.668  -5.212 -24.110  0.00  0.00    +0.029 C 
ATOM     27  C   UNL     1      31.367  -4.902 -22.783  0.00  0.00    +0.140 C 
ENDBRANCH  20  22
ENDBRANCH  19  20
ENDBRANCH  11  19
TORSDOF 4
ENDMDL
MODEL 6
REMARK VINA RESULT:      -9.4     10.672     15.143
REMARK  Name = 46937054
REMARK  4 active torsions:
REMARK  status: ('A' for Active; 'I' for Inactive)
REMARK    1  A    between atoms: C_5  and  C_18
REMARK    2  A    between atoms: C_11  and  O_19
REMARK    3  A    between atoms: O_19  and  C_20
REMARK    4  A    between atoms: C_20  and  C_22
REMARK                            x       y       z     vdW  Elec       q    Type
REMARK                         _______ _______ _______ _____ _____    ______ ____
ROOT
ATOM      1 CL   UNL     1      31.691 -10.445 -18.145  0.00  0.00    -0.047 Cl
ATOM      2  O   UNL     1      31.983 -10.321 -23.869  0.00  0.00    -0.263 OA
ATOM      3  N   UNL     1      32.061  -9.122 -21.869  0.00  0.00    -0.240 N 
ATOM      4  N   UNL     1      31.817 -11.557 -20.531  0.00  0.00    -0.351 NA
ATOM      5  C   UNL     1      32.145  -7.738 -22.339  0.00  0.00    +0.161 C 
ATOM      6  C   UNL     1      32.049  -6.980 -21.046  0.00  0.00    +0.057 C 
ATOM      7  C   UNL     1      31.955  -9.172 -20.495  0.00  0.00    +0.091 C 
ATOM      8  C   UNL     1      31.959  -7.820 -20.004  0.00  0.00    -0.005 C 
ATOM      9  C   UNL     1      31.975 -10.250 -22.651  0.00  0.00    +0.320 C 
ATOM     10  C   UNL     1      31.840 -10.351 -19.868  0.00  0.00    +0.206 C 
ATOM     11  C   UNL     1      31.873 -11.509 -21.823  0.00  0.00    +0.335 C 
ENDROOT
BRANCH   5  18
ATOM     12  O   UNL     1      34.515  -7.957 -22.391  0.00  0.00    -0.273 OA
ATOM     13  N   UNL     1      33.532  -6.728 -24.082  0.00  0.00    -0.278 N 
ATOM     14  C   UNL     1      32.381  -6.154 -24.771  0.00  0.00    +0.094 C 
ATOM     15  C   UNL     1      34.771  -6.397 -24.771  0.00  0.00    +0.094 C 
ATOM     16  C   UNL     1      32.985  -5.197 -25.789  0.00  0.00    +0.023 C 
ATOM     17  C   UNL     1      34.324  -5.848 -26.116  0.00  0.00    +0.023 C 
ATOM     18  C   UNL     1      33.509  -7.494 -22.930  0.00  0.00    +0.244 C 
ENDBRANCH   5  18
BRANCH  11  19
ATOM     19  O   UNL     1      31.852 -12.621 -22.572  0.00  0.00    -0.444 OA
BRANCH  19  20
ATOM     20  C   UNL     1      32.365 -13.773 -21.915  0.00  0.00    +0.235 C 
BRANCH  20  22
ATOM     21  F   UNL     1      35.098 -16.962 -25.663  0.00  0.00    -0.204 F 
ATOM     22  C   UNL     1      33.093 -14.623 -22.914  0.00  0.00    +0.021 C 
ATOM     23  C   UNL     1      32.921 -14.398 -24.279  0.00  0.00    +0.002 C 
ATOM     24  C   UNL     1      33.943 -15.640 -22.478  0.00  0.00    +0.002 C 
ATOM     25  C   UNL     1      33.598 -15.188 -25.209  0.00  0.00    +0.029 C 
ATOM     26  C   UNL     1      34.620 -16.430 -23.407  0.00  0.00    +0.029 C 
ATOM     27  C   UNL     1      34.448 -16.204 -24.773  0.00  0.00    +0.140 C 
ENDBRANCH  20  22
ENDBRANCH  19  20
ENDBRANCH  11  19
TORSDOF 4
ENDMDL
MODEL 7
REMARK VINA RESULT:      -9.2      3.261      5.077
REMARK  Name = 46937054
REMARK  4 active torsions:
REMARK  status: ('A' for Active; 'I' for Inactive)
REMARK    1  A    between atoms: C_5  and  C_18
REMARK    2  A    between atoms: C_11  and  O_19
REMARK    3  A    between atoms: O_19  and  C_20
REMARK    4  A    between atoms: C_20  and  C_22
REMARK                            x       y       z     vdW  Elec       q    Type
REMARK                         _______ _______ _______ _____ _____    ______ ____
ROOT
ATOM      1 CL   UNL     1      37.555 -21.446 -16.505  0.00  0.00    -0.047 Cl
ATOM      2  O   UNL     1      33.204 -22.335 -20.132  0.00  0.00    -0.263 OA
ATOM      3  N   UNL     1      34.096 -22.688 -18.005  0.00  0.00    -0.240 N 
ATOM      4  N   UNL     1      36.237 -21.067 -18.755  0.00  0.00    -0.351 NA
ATOM      5  C   UNL     1      33.119 -23.599 -17.405  0.00  0.00    +0.161 C 
ATOM      6  C   UNL     1      33.781 -23.925 -16.097  0.00  0.00    +0.057 C 
ATOM      7  C   UNL     1      35.168 -22.488 -17.161  0.00  0.00    +0.091 C 
ATOM      8  C   UNL     1      34.943 -23.266 -15.972  0.00  0.00    -0.005 C 
ATOM      9  C   UNL     1      34.059 -22.168 -19.277  0.00  0.00    +0.320 C 
ATOM     10  C   UNL     1      36.188 -21.705 -17.537  0.00  0.00    +0.206 C 
ATOM     11  C   UNL     1      35.251 -21.287 -19.565  0.00  0.00    +0.335 C 
ENDROOT
BRANCH   5  18
ATOM     12  O   UNL     1      31.629 -21.758 -17.653  0.00  0.00    -0.273 OA
ATOM     13  N   UNL     1      30.983 -23.452 -16.222  0.00  0.00    -0.278 N 
ATOM     14  C   UNL     1      31.179 -24.736 -15.555  0.00  0.00    +0.094 C 
ATOM     15  C   UNL     1      29.716 -22.850 -15.833  0.00  0.00    +0.094 C 
ATOM     16  C   UNL     1      30.086 -24.784 -14.496  0.00  0.00    +0.023 C 
ATOM     17  C   UNL     1      28.965 -23.966 -15.125  0.00  0.00    +0.023 C 
ATOM     18  C   UNL     1      31.846 -22.845 -17.115  0.00  0.00    +0.244 C 
ENDBRANCH   5  18
BRANCH  11  19
ATOM     19  O   UNL     1      35.197 -20.723 -20.781  0.00  0.00    -0.444 OA
BRANCH  19  20
ATOM     20  C   UNL     1      35.860 -19.468 -20.869  0.00  0.00    +0.235 C 
BRANCH  20  22
ATOM     21  F   UNL     1      34.207 -16.842 -25.565  0.00  0.00    -0.204 F 
ATOM     22  C   UNL     1      35.419 -18.768 -22.120  0.00  0.00    +0.021 C 
ATOM     23  C   UNL     1      35.448 -17.375 -22.188  0.00  0.00    +0.002 C 
ATOM     24  C   UNL     1      34.979 -19.510 -23.216  0.00  0.00    +0.002 C 
ATOM     25  C   UNL     1      35.039 -16.724 -23.351  0.00  0.00    +0.029 C 
ATOM     26  C   UNL     1      34.570 -18.859 -24.381  0.00  0.00    +0.029 C 
ATOM     27  C   UNL     1      34.600 -17.466 -24.448  0.00  0.00    +0.140 C 
ENDBRANCH  20  22
ENDBRANCH  19  20
ENDBRANCH  11  19
TORSDOF 4
ENDMDL
MODEL 8
REMARK VINA RESULT:      -9.2      8.235     13.074
REMARK  Name = 46937054
REMARK  4 active torsions:
REMARK  status: ('A' for Active; 'I' for Inactive)
REMARK    1  A    between atoms: C_5  and  C_18
REMARK    2  A    between atoms: C_11  and  O_19
REMARK    3  A    between atoms: O_19  and  C_20
REMARK    4  A    between atoms: C_20  and  C_22
REMARK                            x       y       z     vdW  Elec       q    Type
REMARK                         _______ _______ _______ _____ _____    ______ ____
ROOT
ATOM      1 CL   UNL     1      32.323 -14.896 -19.863  0.00  0.00    -0.047 Cl
ATOM      2  O   UNL     1      33.156 -13.248 -25.290  0.00  0.00    -0.263 OA
ATOM      3  N   UNL     1      32.550 -12.640 -23.121  0.00  0.00    -0.240 N 
ATOM      4  N   UNL     1      33.122 -15.258 -22.348  0.00  0.00    -0.351 NA
ATOM      5  C   UNL     1      32.144 -11.244 -23.291  0.00  0.00    +0.161 C 
ATOM      6  C   UNL     1      31.626 -10.917 -21.920  0.00  0.00    +0.057 C 
ATOM      7  C   UNL     1      32.326 -13.066 -21.829  0.00  0.00    +0.091 C 
ATOM      8  C   UNL     1      31.755 -11.968 -21.096  0.00  0.00    -0.005 C 
ATOM      9  C   UNL     1      32.991 -13.492 -24.106  0.00  0.00    +0.320 C 
ATOM     10  C   UNL     1      32.608 -14.327 -21.474  0.00  0.00    +0.206 C 
ATOM     11  C   UNL     1      33.295 -14.871 -23.571  0.00  0.00    +0.335 C 
ENDROOT
BRANCH   5  18
ATOM     12  O   UNL     1      34.474 -10.919 -23.655  0.00  0.00    -0.273 OA
ATOM     13  N   UNL     1      33.136  -9.036 -23.646  0.00  0.00    -0.278 N 
ATOM     14  C   UNL     1      31.848  -8.357 -23.534  0.00  0.00    +0.094 C 
ATOM     15  C   UNL     1      34.209  -8.083 -23.887  0.00  0.00    +0.094 C 
ATOM     16  C   UNL     1      32.205  -6.880 -23.437  0.00  0.00    +0.023 C 
ATOM     17  C   UNL     1      33.496  -6.788 -24.240  0.00  0.00    +0.023 C 
ATOM     18  C   UNL     1      33.364 -10.397 -23.549  0.00  0.00    +0.244 C 
ENDBRANCH   5  18
BRANCH  11  19
ATOM     19  O   UNL     1      33.784 -15.695 -24.510  0.00  0.00    -0.444 OA
BRANCH  19  20
ATOM     20  C   UNL     1      35.133 -16.088 -24.290  0.00  0.00    +0.235 C 
BRANCH  20  22
ATOM     21  F   UNL     1      35.204 -20.635 -20.973  0.00  0.00    -0.204 F 
ATOM     22  C   UNL     1      35.152 -17.300 -23.406  0.00  0.00    +0.021 C 
ATOM     23  C   UNL     1      35.662 -17.211 -22.111  0.00  0.00    +0.002 C 
ATOM     24  C   UNL     1      34.659 -18.516 -23.879  0.00  0.00    +0.002 C 
ATOM     25  C   UNL     1      35.680 -18.338 -21.289  0.00  0.00    +0.029 C 
ATOM     26  C   UNL     1      34.676 -19.643 -23.057  0.00  0.00    +0.029 C 
ATOM     27  C   UNL     1      35.187 -19.554 -21.762  0.00  0.00    +0.140 C 
ENDBRANCH  20  22
ENDBRANCH  19  20
ENDBRANCH  11  19
TORSDOF 4
ENDMDL
MODEL 9
REMARK VINA RESULT:      -8.8      4.144      8.812
REMARK  Name = 46937054
REMARK  4 active torsions:
REMARK  status: ('A' for Active; 'I' for Inactive)
REMARK    1  A    between atoms: C_5  and  C_18
REMARK    2  A    between atoms: C_11  and  O_19
REMARK    3  A    between atoms: O_19  and  C_20
REMARK    4  A    between atoms: C_20  and  C_22
REMARK                            x       y       z     vdW  Elec       q    Type
REMARK                         _______ _______ _______ _____ _____    ______ ____
ROOT
ATOM      1 CL   UNL     1      37.577 -22.033 -18.271  0.00  0.00    -0.047 Cl
ATOM      2  O   UNL     1      32.592 -20.196 -20.426  0.00  0.00    -0.263 OA
ATOM      3  N   UNL     1      34.916 -19.995 -20.397  0.00  0.00    -0.240 N 
ATOM      4  N   UNL     1      34.969 -22.153 -18.632  0.00  0.00    -0.351 NA
ATOM      5  C   UNL     1      35.138 -18.834 -21.261  0.00  0.00    +0.161 C 
ATOM      6  C   UNL     1      36.620 -18.635 -21.116  0.00  0.00    +0.057 C 
ATOM      7  C   UNL     1      36.100 -20.431 -19.841  0.00  0.00    +0.091 C 
ATOM      8  C   UNL     1      37.151 -19.569 -20.313  0.00  0.00    -0.005 C 
ATOM      9  C   UNL     1      33.702 -20.543 -20.057  0.00  0.00    +0.320 C 
ATOM     10  C   UNL     1      36.108 -21.471 -18.996  0.00  0.00    +0.206 C 
ATOM     11  C   UNL     1      33.852 -21.718 -19.120  0.00  0.00    +0.335 C 
ENDROOT
BRANCH   5  18
ATOM     12  O   UNL     1      34.815 -20.399 -23.027  0.00  0.00    -0.273 OA
ATOM     13  N   UNL     1      34.648 -18.157 -23.561  0.00  0.00    -0.278 N 
ATOM     14  C   UNL     1      34.673 -16.736 -23.227  0.00  0.00    +0.094 C 
ATOM     15  C   UNL     1      34.366 -18.357 -24.974  0.00  0.00    +0.094 C 
ATOM     16  C   UNL     1      34.670 -16.030 -24.576  0.00  0.00    +0.023 C 
ATOM     17  C   UNL     1      33.898 -16.996 -25.465  0.00  0.00    +0.023 C 
ATOM     18  C   UNL     1      34.851 -19.214 -22.691  0.00  0.00    +0.244 C 
ENDBRANCH   5  18
BRANCH  11  19
ATOM     19  O   UNL     1      32.679 -22.301 -18.829  0.00  0.00    -0.444 OA
BRANCH  19  20
ATOM     20  C   UNL     1      32.803 -23.543 -18.146  0.00  0.00    +0.235 C 
BRANCH  20  22
ATOM     21  F   UNL     1      31.181 -22.866 -12.799  0.00  0.00    -0.204 F 
ATOM     22  C   UNL     1      32.371 -23.362 -16.721  0.00  0.00    +0.021 C 
ATOM     23  C   UNL     1      33.285 -23.553 -15.685  0.00  0.00    +0.002 C 
ATOM     24  C   UNL     1      31.055 -23.004 -16.431  0.00  0.00    +0.002 C 
ATOM     25  C   UNL     1      32.884 -23.386 -14.360  0.00  0.00    +0.029 C 
ATOM     26  C   UNL     1      30.652 -22.836 -15.106  0.00  0.00    +0.029 C 
ATOM     27  C   UNL     1      31.567 -23.027 -14.070  0.00  0.00    +0.140 C 
ENDBRANCH  20  22
ENDBRANCH  19  20
ENDBRANCH  11  19
TORSDOF 4
ENDMDL
