MODEL 1
REMARK VINA RESULT:      -9.2      0.000      0.000
REMARK  Name = 64715
REMARK  8 active torsions:
REMARK  status: ('A' for Active; 'I' for Inactive)
REMARK    1  A    between atoms: C_1  and  C_19
REMARK    2  A    between atoms: C_4  and  O_12
REMARK    3  A    between atoms: O_12  and  C_14
REMARK    4  A    between atoms: C_14  and  C_15
REMARK    5  A    between atoms: C_15  and  C_17
REMARK    6  A    between atoms: C_19  and  C_20
REMARK    7  A    between atoms: C_20  and  C_23
REMARK    8  A    between atoms: C_25  and  O_28
REMARK                            x       y       z     vdW  Elec       q    Type
REMARK                         _______ _______ _______ _____ _____    ______ ____
ROOT
ATOM      1  C   UNL     1      33.369 -14.699 -23.772  0.00  0.00    +0.012 C 
ATOM      2  C   UNL     1      34.473 -15.712 -24.197  0.00  0.00    +0.062 C 
ATOM      3  C   UNL     1      32.876 -13.860 -24.988  0.00  0.00    +0.022 C 
ATOM      4  C   UNL     1      35.018 -16.557 -23.021  0.00  0.00    +0.173 C 
ATOM      5  C   UNL     1      33.979 -16.591 -25.345  0.00  0.00    -0.024 C 
ATOM      6  C   UNL     1      35.950 -17.660 -23.529  0.00  0.00    +0.049 C 
ATOM      7  C   UNL     1      32.599 -14.742 -26.179  0.00  0.00    -0.027 C 
ATOM      8  C   UNL     1      35.240 -18.597 -24.506  0.00  0.00    +0.029 C 
ATOM      9  C   UNL     1      33.092 -15.980 -26.317  0.00  0.00    -0.009 C 
ATOM     10  C   UNL     1      34.334 -17.884 -25.463  0.00  0.00    -0.030 C 
ATOM     11  C   UNL     1      33.824 -12.735 -25.416  0.00  0.00    +0.005 C 
ENDROOT
BRANCH   4  12
ATOM     12  O   UNL     1      33.965 -17.181 -22.288  0.00  0.00    -0.452 OA
BRANCH  12  14
ATOM     13  O   UNL     1      34.892 -17.362 -20.184  0.00  0.00    -0.250 OA
ATOM     14  C   UNL     1      34.347 -17.856 -21.162  0.00  0.00    +0.316 C 
BRANCH  14  15
ATOM     15  C   UNL     1      34.020 -19.332 -21.314  0.00  0.00    +0.099 C 
ATOM     16  C   UNL     1      35.233 -20.142 -20.864  0.00  0.00    +0.012 C 
BRANCH  15  17
ATOM     17  C   UNL     1      32.772 -19.716 -20.506  0.00  0.00    +0.011 C 
ATOM     18  C   UNL     1      32.995 -20.947 -19.636  0.00  0.00    +0.001 C 
ENDBRANCH  15  17
ENDBRANCH  14  15
ENDBRANCH  12  14
ENDBRANCH   4  12
BRANCH   1  19
ATOM     19  C   UNL     1      33.809 -13.792 -22.614  0.00  0.00    +0.004 C 
BRANCH  19  20
ATOM     20  C   UNL     1      32.811 -13.850 -21.467  0.00  0.00    +0.044 C 
BRANCH  20  23
ATOM     21  O   UNL     1      31.860 -12.204 -20.014  0.00  0.00    -0.452 OA
ATOM     22  O   UNL     1      31.097 -10.741 -18.486  0.00  0.00    -0.250 OA
ATOM     23  C   UNL     1      31.975 -12.579 -21.405  0.00  0.00    +0.171 C 
ATOM     24  C   UNL     1      32.587 -11.475 -22.253  0.00  0.00    +0.073 C 
ATOM     25  C   UNL     1      31.810 -10.189 -22.041  0.00  0.00    +0.125 C 
ATOM     26  C   UNL     1      31.806  -9.817 -20.571  0.00  0.00    +0.139 C 
ATOM     27  C   UNL     1      31.519 -10.956 -19.621  0.00  0.00    +0.319 C 
BRANCH  25  28
ATOM     28  O   UNL     1      30.465 -10.334 -22.486  0.00  0.00    -0.384 OA
ATOM     29  H   UNL     1      29.997 -10.953 -21.904  0.00  0.00    +0.210 HD
ENDBRANCH  25  28
ENDBRANCH  20  23
ENDBRANCH  19  20
ENDBRANCH   1  19
TORSDOF 8
ENDMDL
MODEL 2
REMARK VINA RESULT:      -9.2      2.342      7.803
REMARK  Name = 64715
REMARK  8 active torsions:
REMARK  status: ('A' for Active; 'I' for Inactive)
REMARK    1  A    between atoms: C_1  and  C_19
REMARK    2  A    between atoms: C_4  and  O_12
REMARK    3  A    between atoms: O_12  and  C_14
REMARK    4  A    between atoms: C_14  and  C_15
REMARK    5  A    between atoms: C_15  and  C_17
REMARK    6  A    between atoms: C_19  and  C_20
REMARK    7  A    between atoms: C_20  and  C_23
REMARK    8  A    between atoms: C_25  and  O_28
REMARK                            x       y       z     vdW  Elec       q    Type
REMARK                         _______ _______ _______ _____ _____    ______ ____
ROOT
ATOM      1  C   UNL     1      33.435 -11.383 -23.881  0.00  0.00    +0.012 C 
ATOM      2  C   UNL     1      32.729 -10.009 -24.075  0.00  0.00    +0.062 C 
ATOM      3  C   UNL     1      34.524 -11.615 -24.968  0.00  0.00    +0.022 C 
ATOM      4  C   UNL     1      31.617  -9.735 -23.033  0.00  0.00    +0.173 C 
ATOM      5  C   UNL     1      33.758  -8.880 -24.112  0.00  0.00    -0.024 C 
ATOM      6  C   UNL     1      31.100  -8.301 -23.152  0.00  0.00    +0.049 C 
ATOM      7  C   UNL     1      35.395 -10.395 -25.132  0.00  0.00    -0.027 C 
ATOM      8  C   UNL     1      32.215  -7.276 -22.945  0.00  0.00    +0.029 C 
ATOM      9  C   UNL     1      35.041  -9.169 -24.726  0.00  0.00    -0.009 C 
ATOM     10  C   UNL     1      33.507  -7.661 -23.598  0.00  0.00    -0.030 C 
ATOM     11  C   UNL     1      33.981 -12.023 -26.342  0.00  0.00    +0.005 C 
ENDROOT
BRANCH   4  12
ATOM     12  O   UNL     1      32.088  -9.918 -21.699  0.00  0.00    -0.452 OA
BRANCH  12  14
ATOM     13  O   UNL     1      30.397 -11.364 -21.090  0.00  0.00    -0.250 OA
ATOM     14  C   UNL     1      31.194 -10.473 -20.826  0.00  0.00    +0.316 C 
BRANCH  14  15
ATOM     15  C   UNL     1      31.313  -9.796 -19.471  0.00  0.00    +0.099 C 
ATOM     16  C   UNL     1      31.451 -10.878 -18.404  0.00  0.00    +0.012 C 
BRANCH  15  17
ATOM     17  C   UNL     1      32.505  -8.828 -19.430  0.00  0.00    +0.011 C 
ATOM     18  C   UNL     1      32.084  -7.375 -19.611  0.00  0.00    +0.001 C 
ENDBRANCH  15  17
ENDBRANCH  14  15
ENDBRANCH  12  14
ENDBRANCH   4  12
BRANCH   1  19
ATOM     19  C   UNL     1      32.446 -12.556 -23.827  0.00  0.00    +0.004 C 
BRANCH  19  20
ATOM     20  C   UNL     1      32.685 -13.415 -22.593  0.00  0.00    +0.044 C 
BRANCH  20  23
ATOM     21  O   UNL     1      33.136 -14.892 -24.421  0.00  0.00    -0.452 OA
ATOM     22  O   UNL     1      33.537 -16.102 -26.273  0.00  0.00    -0.250 OA
ATOM     23  C   UNL     1      33.185 -14.800 -22.979  0.00  0.00    +0.171 C 
ATOM     24  C   UNL     1      34.581 -15.055 -22.431  0.00  0.00    +0.073 C 
ATOM     25  C   UNL     1      35.098 -16.377 -22.966  0.00  0.00    +0.125 C 
ATOM     26  C   UNL     1      35.093 -16.365 -24.482  0.00  0.00    +0.139 C 
ATOM     27  C   UNL     1      33.840 -15.812 -25.118  0.00  0.00    +0.319 C 
BRANCH  25  28
ATOM     28  O   UNL     1      34.287 -17.455 -22.509  0.00  0.00    -0.384 OA
ATOM     29  H   UNL     1      34.282 -18.162 -23.174  0.00  0.00    +0.210 HD
ENDBRANCH  25  28
ENDBRANCH  20  23
ENDBRANCH  19  20
ENDBRANCH   1  19
TORSDOF 8
ENDMDL
MODEL 3
REMARK VINA RESULT:      -9.1      2.640      6.807
REMARK  Name = 64715
REMARK  8 active torsions:
REMARK  status: ('A' for Active; 'I' for Inactive)
REMARK    1  A    between atoms: C_1  and  C_19
REMARK    2  A    between atoms: C_4  and  O_12
REMARK    3  A    between atoms: O_12  and  C_14
REMARK    4  A    between atoms: C_14  and  C_15
REMARK    5  A    between atoms: C_15  and  C_17
REMARK    6  A    between atoms: C_19  and  C_20
REMARK    7  A    between atoms: C_20  and  C_23
REMARK    8  A    between atoms: C_25  and  O_28
REMARK                            x       y       z     vdW  Elec       q    Type
REMARK                         _______ _______ _______ _____ _____    ______ ____
ROOT
ATOM      1  C   UNL     1      33.180  -9.659 -22.830  0.00  0.00    +0.012 C 
ATOM      2  C   UNL     1      31.910  -9.782 -21.937  0.00  0.00    +0.062 C 
ATOM      3  C   UNL     1      33.587  -8.170 -23.028  0.00  0.00    +0.022 C 
ATOM      4  C   UNL     1      31.445 -11.244 -21.726  0.00  0.00    +0.173 C 
ATOM      5  C   UNL     1      32.118  -9.059 -20.608  0.00  0.00    -0.024 C 
ATOM      6  C   UNL     1      30.321 -11.314 -20.691  0.00  0.00    +0.049 C 
ATOM      7  C   UNL     1      33.575  -7.426 -21.716  0.00  0.00    -0.027 C 
ATOM      8  C   UNL     1      30.759 -10.750 -19.339  0.00  0.00    +0.029 C 
ATOM      9  C   UNL     1      32.920  -7.849 -20.628  0.00  0.00    -0.009 C 
ATOM     10  C   UNL     1      31.594  -9.511 -19.453  0.00  0.00    -0.030 C 
ATOM     11  C   UNL     1      32.731  -7.401 -24.040  0.00  0.00    +0.005 C 
ENDROOT
BRANCH   4  12
ATOM     12  O   UNL     1      32.511 -12.075 -21.269  0.00  0.00    -0.452 OA
BRANCH  12  14
ATOM     13  O   UNL     1      31.828 -13.866 -22.553  0.00  0.00    -0.250 OA
ATOM     14  C   UNL     1      32.398 -13.403 -21.573  0.00  0.00    +0.316 C 
BRANCH  14  15
ATOM     15  C   UNL     1      33.065 -14.235 -20.491  0.00  0.00    +0.099 C 
ATOM     16  C   UNL     1      32.211 -15.475 -20.243  0.00  0.00    +0.012 C 
BRANCH  15  17
ATOM     17  C   UNL     1      34.497 -14.624 -20.885  0.00  0.00    +0.011 C 
ATOM     18  C   UNL     1      34.705 -16.133 -20.921  0.00  0.00    +0.001 C 
ENDBRANCH  15  17
ENDBRANCH  14  15
ENDBRANCH  12  14
ENDBRANCH   4  12
BRANCH   1  19
ATOM     19  C   UNL     1      33.030 -10.377 -24.179  0.00  0.00    +0.004 C 
BRANCH  19  20
ATOM     20  C   UNL     1      34.388 -10.777 -24.737  0.00  0.00    +0.044 C 
BRANCH  20  23
ATOM     21  O   UNL     1      34.165 -13.155 -24.601  0.00  0.00    -0.452 OA
ATOM     22  O   UNL     1      33.905 -15.362 -24.257  0.00  0.00    -0.250 OA
ATOM     23  C   UNL     1      34.290 -12.066 -25.542  0.00  0.00    +0.171 C 
ATOM     24  C   UNL     1      33.129 -12.015 -26.524  0.00  0.00    +0.073 C 
ATOM     25  C   UNL     1      32.976 -13.369 -27.192  0.00  0.00    +0.125 C 
ATOM     26  C   UNL     1      32.767 -14.447 -26.145  0.00  0.00    +0.139 C 
ATOM     27  C   UNL     1      33.689 -14.371 -24.951  0.00  0.00    +0.319 C 
BRANCH  25  28
ATOM     28  O   UNL     1      34.134 -13.686 -27.958  0.00  0.00    -0.384 OA
ATOM     29  H   UNL     1      34.882 -13.150 -27.651  0.00  0.00    +0.210 HD
ENDBRANCH  25  28
ENDBRANCH  20  23
ENDBRANCH  19  20
ENDBRANCH   1  19
TORSDOF 8
ENDMDL
MODEL 4
REMARK VINA RESULT:      -8.8      0.891      1.634
REMARK  Name = 64715
REMARK  8 active torsions:
REMARK  status: ('A' for Active; 'I' for Inactive)
REMARK    1  A    between atoms: C_1  and  C_19
REMARK    2  A    between atoms: C_4  and  O_12
REMARK    3  A    between atoms: O_12  and  C_14
REMARK    4  A    between atoms: C_14  and  C_15
REMARK    5  A    between atoms: C_15  and  C_17
REMARK    6  A    between atoms: C_19  and  C_20
REMARK    7  A    between atoms: C_20  and  C_23
REMARK    8  A    between atoms: C_25  and  O_28
REMARK                            x       y       z     vdW  Elec       q    Type
REMARK                         _______ _______ _______ _____ _____    ______ ____
ROOT
ATOM      1  C   UNL     1      33.238 -14.602 -23.608  0.00  0.00    +0.012 C 
ATOM      2  C   UNL     1      34.403 -15.540 -24.042  0.00  0.00    +0.062 C 
ATOM      3  C   UNL     1      32.778 -13.694 -24.786  0.00  0.00    +0.022 C 
ATOM      4  C   UNL     1      34.918 -16.451 -22.901  0.00  0.00    +0.173 C 
ATOM      5  C   UNL     1      34.008 -16.350 -25.276  0.00  0.00    -0.024 C 
ATOM      6  C   UNL     1      35.919 -17.478 -23.433  0.00  0.00    +0.049 C 
ATOM      7  C   UNL     1      32.602 -14.494 -26.051  0.00  0.00    -0.027 C 
ATOM      8  C   UNL     1      35.301 -18.365 -24.514  0.00  0.00    +0.029 C 
ATOM      9  C   UNL     1      33.151 -15.700 -26.250  0.00  0.00    -0.009 C 
ATOM     10  C   UNL     1      34.420 -17.616 -25.467  0.00  0.00    -0.030 C 
ATOM     11  C   UNL     1      33.703 -12.506 -25.077  0.00  0.00    +0.005 C 
ENDROOT
BRANCH   4  12
ATOM     12  O   UNL     1      33.852 -17.165 -22.276  0.00  0.00    -0.452 OA
BRANCH  12  14
ATOM     13  O   UNL     1      34.656 -17.352 -20.121  0.00  0.00    -0.250 OA
ATOM     14  C   UNL     1      34.184 -17.846 -21.138  0.00  0.00    +0.316 C 
BRANCH  14  15
ATOM     15  C   UNL     1      33.907 -19.328 -21.327  0.00  0.00    +0.099 C 
ATOM     16  C   UNL     1      35.173 -20.103 -20.973  0.00  0.00    +0.012 C 
BRANCH  15  17
ATOM     17  C   UNL     1      32.721 -19.791 -20.469  0.00  0.00    +0.011 C 
ATOM     18  C   UNL     1      33.053 -21.016 -19.626  0.00  0.00    +0.001 C 
ENDBRANCH  15  17
ENDBRANCH  14  15
ENDBRANCH  12  14
ENDBRANCH   4  12
BRANCH   1  19
ATOM     19  C   UNL     1      33.578 -13.769 -22.364  0.00  0.00    +0.004 C 
BRANCH  19  20
ATOM     20  C   UNL     1      32.313 -13.273 -21.678  0.00  0.00    +0.044 C 
BRANCH  20  23
ATOM     21  O   UNL     1      32.592 -10.985 -22.321  0.00  0.00    -0.452 OA
ATOM     22  O   UNL     1      32.797  -8.898 -23.132  0.00  0.00    -0.250 OA
ATOM     23  C   UNL     1      32.491 -11.850 -21.167  0.00  0.00    +0.171 C 
ATOM     24  C   UNL     1      31.349 -11.449 -20.244  0.00  0.00    +0.073 C 
ATOM     25  C   UNL     1      31.486  -9.982 -19.883  0.00  0.00    +0.125 C 
ATOM     26  C   UNL     1      31.502  -9.134 -21.141  0.00  0.00    +0.139 C 
ATOM     27  C   UNL     1      32.382  -9.651 -22.254  0.00  0.00    +0.319 C 
BRANCH  25  28
ATOM     28  O   UNL     1      32.688  -9.753 -19.155  0.00  0.00    -0.384 OA
ATOM     29  H   UNL     1      33.292 -10.501 -19.282  0.00  0.00    +0.210 HD
ENDBRANCH  25  28
ENDBRANCH  20  23
ENDBRANCH  19  20
ENDBRANCH   1  19
TORSDOF 8
ENDMDL
MODEL 5
REMARK VINA RESULT:      -8.7      5.301      8.866
REMARK  Name = 64715
REMARK  8 active torsions:
REMARK  status: ('A' for Active; 'I' for Inactive)
REMARK    1  A    between atoms: C_1  and  C_19
REMARK    2  A    between atoms: C_4  and  O_12
REMARK    3  A    between atoms: O_12  and  C_14
REMARK    4  A    between atoms: C_14  and  C_15
REMARK    5  A    between atoms: C_15  and  C_17
REMARK    6  A    between atoms: C_19  and  C_20
REMARK    7  A    between atoms: C_20  and  C_23
REMARK    8  A    between atoms: C_25  and  O_28
REMARK                            x       y       z     vdW  Elec       q    Type
REMARK                         _______ _______ _______ _____ _____    ______ ____
ROOT
ATOM      1  C   UNL     1      32.432  -7.674 -22.352  0.00  0.00    +0.012 C 
ATOM      2  C   UNL     1      31.579  -8.838 -21.769  0.00  0.00    +0.062 C 
ATOM      3  C   UNL     1      32.211  -6.358 -21.550  0.00  0.00    +0.022 C 
ATOM      4  C   UNL     1      31.740 -10.168 -22.544  0.00  0.00    +0.173 C 
ATOM      5  C   UNL     1      31.862  -9.015 -20.278  0.00  0.00    -0.024 C 
ATOM      6  C   UNL     1      31.037 -11.314 -21.814  0.00  0.00    +0.049 C 
ATOM      7  C   UNL     1      32.286  -6.608 -20.065  0.00  0.00    -0.027 C 
ATOM      8  C   UNL     1      31.589 -11.511 -20.402  0.00  0.00    +0.029 C 
ATOM      9  C   UNL     1      32.142  -7.818 -19.508  0.00  0.00    -0.009 C 
ATOM     10  C   UNL     1      31.864 -10.224 -19.685  0.00  0.00    -0.030 C 
ATOM     11  C   UNL     1      30.899  -5.629 -21.863  0.00  0.00    +0.005 C 
ENDROOT
BRANCH   4  12
ATOM     12  O   UNL     1      33.113 -10.527 -22.694  0.00  0.00    -0.452 OA
BRANCH  12  14
ATOM     13  O   UNL     1      33.234 -12.491 -23.897  0.00  0.00    -0.250 OA
ATOM     14  C   UNL     1      33.410 -11.284 -23.793  0.00  0.00    +0.316 C 
BRANCH  14  15
ATOM     15  C   UNL     1      34.025 -10.406 -24.870  0.00  0.00    +0.099 C 
ATOM     16  C   UNL     1      35.089  -9.525 -24.223  0.00  0.00    +0.012 C 
BRANCH  15  17
ATOM     17  C   UNL     1      34.624 -11.248 -26.006  0.00  0.00    +0.011 C 
ATOM     18  C   UNL     1      35.797 -10.557 -26.689  0.00  0.00    +0.001 C 
ENDBRANCH  15  17
ENDBRANCH  14  15
ENDBRANCH  12  14
ENDBRANCH   4  12
BRANCH   1  19
ATOM     19  C   UNL     1      32.193  -7.455 -23.853  0.00  0.00    +0.004 C 
BRANCH  19  20
ATOM     20  C   UNL     1      33.282  -6.580 -24.456  0.00  0.00    +0.044 C 
BRANCH  20  23
ATOM     21  O   UNL     1      31.758  -4.777 -24.844  0.00  0.00    -0.452 OA
ATOM     22  O   UNL     1      30.314  -3.059 -24.985  0.00  0.00    -0.250 OA
ATOM     23  C   UNL     1      32.708  -5.641 -25.508  0.00  0.00    +0.171 C 
ATOM     24  C   UNL     1      33.809  -4.858 -26.208  0.00  0.00    +0.073 C 
ATOM     25  C   UNL     1      33.185  -3.830 -27.133  0.00  0.00    +0.125 C 
ATOM     26  C   UNL     1      32.268  -2.911 -26.349  0.00  0.00    +0.139 C 
ATOM     27  C   UNL     1      31.347  -3.602 -25.372  0.00  0.00    +0.319 C 
BRANCH  25  28
ATOM     28  O   UNL     1      32.433  -4.469 -28.160  0.00  0.00    -0.384 OA
ATOM     29  H   UNL     1      32.688  -4.104 -29.023  0.00  0.00    +0.210 HD
ENDBRANCH  25  28
ENDBRANCH  20  23
ENDBRANCH  19  20
ENDBRANCH   1  19
TORSDOF 8
ENDMDL
MODEL 6
REMARK VINA RESULT:      -8.7      8.623     12.619
REMARK  Name = 64715
REMARK  8 active torsions:
REMARK  status: ('A' for Active; 'I' for Inactive)
REMARK    1  A    between atoms: C_1  and  C_19
REMARK    2  A    between atoms: C_4  and  O_12
REMARK    3  A    between atoms: O_12  and  C_14
REMARK    4  A    between atoms: C_14  and  C_15
REMARK    5  A    between atoms: C_15  and  C_17
REMARK    6  A    between atoms: C_19  and  C_20
REMARK    7  A    between atoms: C_20  and  C_23
REMARK    8  A    between atoms: C_25  and  O_28
REMARK                            x       y       z     vdW  Elec       q    Type
REMARK                         _______ _______ _______ _____ _____    ______ ____
ROOT
ATOM      1  C   UNL     1      35.245 -23.138 -15.643  0.00  0.00    +0.012 C 
ATOM      2  C   UNL     1      34.985 -23.223 -17.176  0.00  0.00    +0.062 C 
ATOM      3  C   UNL     1      36.763 -22.980 -15.338  0.00  0.00    +0.022 C 
ATOM      4  C   UNL     1      33.491 -23.405 -17.538  0.00  0.00    +0.173 C 
ATOM      5  C   UNL     1      35.597 -22.019 -17.891  0.00  0.00    -0.024 C 
ATOM      6  C   UNL     1      33.277 -23.286 -19.048  0.00  0.00    +0.049 C 
ATOM      7  C   UNL     1      37.387 -21.925 -16.216  0.00  0.00    -0.027 C 
ATOM      8  C   UNL     1      33.739 -21.930 -19.581  0.00  0.00    +0.029 C 
ATOM      9  C   UNL     1      36.839 -21.491 -17.358  0.00  0.00    -0.009 C 
ATOM     10  C   UNL     1      35.020 -21.453 -18.967  0.00  0.00    -0.030 C 
ATOM     11  C   UNL     1      37.579 -24.272 -15.462  0.00  0.00    +0.005 C 
ENDROOT
BRANCH   4  12
ATOM     12  O   UNL     1      32.672 -22.423 -16.904  0.00  0.00    -0.452 OA
BRANCH  12  14
ATOM     13  O   UNL     1      30.402 -22.369 -17.314  0.00  0.00    -0.250 OA
ATOM     14  C   UNL     1      31.371 -22.785 -16.692  0.00  0.00    +0.316 C 
BRANCH  14  15
ATOM     15  C   UNL     1      31.296 -23.770 -15.537  0.00  0.00    +0.099 C 
ATOM     16  C   UNL     1      30.881 -23.009 -14.282  0.00  0.00    +0.012 C 
BRANCH  15  17
ATOM     17  C   UNL     1      30.314 -24.912 -15.837  0.00  0.00    +0.011 C 
ATOM     18  C   UNL     1      29.024 -24.800 -15.035  0.00  0.00    +0.001 C 
ENDBRANCH  15  17
ENDBRANCH  14  15
ENDBRANCH  12  14
ENDBRANCH   4  12
BRANCH   1  19
ATOM     19  C   UNL     1      34.643 -24.320 -14.871  0.00  0.00    +0.004 C 
BRANCH  19  20
ATOM     20  C   UNL     1      34.131 -23.878 -13.508  0.00  0.00    +0.044 C 
BRANCH  20  23
ATOM     21  O   UNL     1      35.825 -25.440 -12.862  0.00  0.00    -0.452 OA
ATOM     22  O   UNL     1      37.420 -26.976 -12.469  0.00  0.00    -0.250 OA
ATOM     23  C   UNL     1      35.101 -24.275 -12.404  0.00  0.00    +0.171 C 
ATOM     24  C   UNL     1      36.029 -23.124 -12.045  0.00  0.00    +0.073 C 
ATOM     25  C   UNL     1      37.073 -23.609 -11.056  0.00  0.00    +0.125 C 
ATOM     26  C   UNL     1      37.843 -24.777 -11.641  0.00  0.00    +0.139 C 
ATOM     27  C   UNL     1      37.000 -25.830 -12.318  0.00  0.00    +0.319 C 
BRANCH  25  28
ATOM     28  O   UNL     1      36.459 -24.022  -9.839  0.00  0.00    -0.384 OA
ATOM     29  H   UNL     1      36.264 -23.243  -9.294  0.00  0.00    +0.210 HD
ENDBRANCH  25  28
ENDBRANCH  20  23
ENDBRANCH  19  20
ENDBRANCH   1  19
TORSDOF 8
ENDMDL
MODEL 7
REMARK VINA RESULT:      -8.6      2.520      5.393
REMARK  Name = 64715
REMARK  8 active torsions:
REMARK  status: ('A' for Active; 'I' for Inactive)
REMARK    1  A    between atoms: C_1  and  C_19
REMARK    2  A    between atoms: C_4  and  O_12
REMARK    3  A    between atoms: O_12  and  C_14
REMARK    4  A    between atoms: C_14  and  C_15
REMARK    5  A    between atoms: C_15  and  C_17
REMARK    6  A    between atoms: C_19  and  C_20
REMARK    7  A    between atoms: C_20  and  C_23
REMARK    8  A    between atoms: C_25  and  O_28
REMARK                            x       y       z     vdW  Elec       q    Type
REMARK                         _______ _______ _______ _____ _____    ______ ____
ROOT
ATOM      1  C   UNL     1      33.228 -13.943 -22.121  0.00  0.00    +0.012 C 
ATOM      2  C   UNL     1      33.240 -15.132 -23.127  0.00  0.00    +0.062 C 
ATOM      3  C   UNL     1      33.406 -14.442 -20.657  0.00  0.00    +0.022 C 
ATOM      4  C   UNL     1      33.042 -14.695 -24.598  0.00  0.00    +0.173 C 
ATOM      5  C   UNL     1      34.507 -15.968 -22.951  0.00  0.00    -0.024 C 
ATOM      6  C   UNL     1      33.259 -15.873 -25.550  0.00  0.00    +0.049 C 
ATOM      7  C   UNL     1      34.535 -15.435 -20.556  0.00  0.00    -0.027 C 
ATOM      8  C   UNL     1      34.660 -16.466 -25.409  0.00  0.00    +0.029 C 
ATOM      9  C   UNL     1      35.032 -16.105 -21.605  0.00  0.00    -0.009 C 
ATOM     10  C   UNL     1      35.129 -16.556 -23.989  0.00  0.00    -0.030 C 
ATOM     11  C   UNL     1      32.148 -15.058 -20.033  0.00  0.00    +0.005 C 
ENDROOT
BRANCH   4  12
ATOM     12  O   UNL     1      33.955 -13.663 -24.969  0.00  0.00    -0.452 OA
BRANCH  12  14
ATOM     13  O   UNL     1      32.984 -13.295 -27.029  0.00  0.00    -0.250 OA
ATOM     14  C   UNL     1      33.579 -12.896 -26.036  0.00  0.00    +0.316 C 
BRANCH  14  15
ATOM     15  C   UNL     1      34.039 -11.463 -25.825  0.00  0.00    +0.099 C 
ATOM     16  C   UNL     1      34.468 -11.306 -24.369  0.00  0.00    +0.012 C 
BRANCH  15  17
ATOM     17  C   UNL     1      35.184 -11.094 -26.778  0.00  0.00    +0.011 C 
ATOM     18  C   UNL     1      36.047  -9.958 -26.244  0.00  0.00    +0.001 C 
ENDBRANCH  15  17
ENDBRANCH  14  15
ENDBRANCH  12  14
ENDBRANCH   4  12
BRANCH   1  19
ATOM     19  C   UNL     1      31.978 -13.062 -22.258  0.00  0.00    +0.004 C 
BRANCH  19  20
ATOM     20  C   UNL     1      31.782 -12.196 -21.022  0.00  0.00    +0.044 C 
BRANCH  20  23
ATOM     21  O   UNL     1      31.927  -9.924 -20.284  0.00  0.00    -0.452 OA
ATOM     22  O   UNL     1      32.189  -7.864 -19.422  0.00  0.00    -0.250 OA
ATOM     23  C   UNL     1      31.527 -10.745 -21.405  0.00  0.00    +0.171 C 
ATOM     24  C   UNL     1      32.263 -10.375 -22.684  0.00  0.00    +0.073 C 
ATOM     25  C   UNL     1      32.105  -8.888 -22.943  0.00  0.00    +0.125 C 
ATOM     26  C   UNL     1      32.622  -8.094 -21.759  0.00  0.00    +0.139 C 
ATOM     27  C   UNL     1      32.190  -8.603 -20.404  0.00  0.00    +0.319 C 
BRANCH  25  28
ATOM     28  O   UNL     1      30.737  -8.558 -23.160  0.00  0.00    -0.384 OA
ATOM     29  H   UNL     1      30.243  -8.662 -22.331  0.00  0.00    +0.210 HD
ENDBRANCH  25  28
ENDBRANCH  20  23
ENDBRANCH  19  20
ENDBRANCH   1  19
TORSDOF 8
ENDMDL
MODEL 8
REMARK VINA RESULT:      -8.6      4.382      8.116
REMARK  Name = 64715
REMARK  8 active torsions:
REMARK  status: ('A' for Active; 'I' for Inactive)
REMARK    1  A    between atoms: C_1  and  C_19
REMARK    2  A    between atoms: C_4  and  O_12
REMARK    3  A    between atoms: O_12  and  C_14
REMARK    4  A    between atoms: C_14  and  C_15
REMARK    5  A    between atoms: C_15  and  C_17
REMARK    6  A    between atoms: C_19  and  C_20
REMARK    7  A    between atoms: C_20  and  C_23
REMARK    8  A    between atoms: C_25  and  O_28
REMARK                            x       y       z     vdW  Elec       q    Type
REMARK                         _______ _______ _______ _____ _____    ______ ____
ROOT
ATOM      1  C   UNL     1      32.740  -8.143 -22.292  0.00  0.00    +0.012 C 
ATOM      2  C   UNL     1      31.715  -9.196 -21.778  0.00  0.00    +0.062 C 
ATOM      3  C   UNL     1      32.632  -6.813 -21.489  0.00  0.00    +0.022 C 
ATOM      4  C   UNL     1      31.762 -10.532 -22.558  0.00  0.00    +0.173 C 
ATOM      5  C   UNL     1      31.878  -9.413 -20.275  0.00  0.00    -0.024 C 
ATOM      6  C   UNL     1      30.878 -11.586 -21.888  0.00  0.00    +0.049 C 
ATOM      7  C   UNL     1      32.579  -7.078 -20.006  0.00  0.00    -0.027 C 
ATOM      8  C   UNL     1      31.310 -11.856 -20.447  0.00  0.00    +0.029 C 
ATOM      9  C   UNL     1      32.252  -8.263 -19.474  0.00  0.00    -0.009 C 
ATOM     10  C   UNL     1      31.693 -10.616 -19.698  0.00  0.00    -0.030 C 
ATOM     11  C   UNL     1      31.442  -5.928 -21.876  0.00  0.00    +0.005 C 
ENDROOT
BRANCH   4  12
ATOM     12  O   UNL     1      33.088 -11.056 -22.626  0.00  0.00    -0.452 OA
BRANCH  12  14
ATOM     13  O   UNL     1      33.871 -11.091 -24.795  0.00  0.00    -0.250 OA
ATOM     14  C   UNL     1      33.427 -11.658 -23.805  0.00  0.00    +0.316 C 
BRANCH  14  15
ATOM     15  C   UNL     1      33.141 -13.148 -23.721  0.00  0.00    +0.099 C 
ATOM     16  C   UNL     1      33.175 -13.724 -25.134  0.00  0.00    +0.012 C 
BRANCH  15  17
ATOM     17  C   UNL     1      34.152 -13.863 -22.812  0.00  0.00    +0.011 C 
ATOM     18  C   UNL     1      33.485 -14.565 -21.636  0.00  0.00    +0.001 C 
ENDBRANCH  15  17
ENDBRANCH  14  15
ENDBRANCH  12  14
ENDBRANCH   4  12
BRANCH   1  19
ATOM     19  C   UNL     1      32.627  -7.890 -23.802  0.00  0.00    +0.004 C 
BRANCH  19  20
ATOM     20  C   UNL     1      33.918  -7.303 -24.354  0.00  0.00    +0.044 C 
BRANCH  20  23
ATOM     21  O   UNL     1      34.539  -5.780 -26.093  0.00  0.00    -0.452 OA
ATOM     22  O   UNL     1      35.224  -4.522 -27.827  0.00  0.00    -0.250 OA
ATOM     23  C   UNL     1      33.682  -5.916 -24.937  0.00  0.00    +0.171 C 
ATOM     24  C   UNL     1      32.214  -5.704 -25.278  0.00  0.00    +0.073 C 
ATOM     25  C   UNL     1      32.051  -4.376 -25.993  0.00  0.00    +0.125 C 
ATOM     26  C   UNL     1      32.917  -4.343 -27.237  0.00  0.00    +0.139 C 
ATOM     27  C   UNL     1      34.326  -4.853 -27.054  0.00  0.00    +0.319 C 
BRANCH  25  28
ATOM     28  O   UNL     1      32.423  -3.297 -25.141  0.00  0.00    -0.384 OA
ATOM     29  H   UNL     1      33.019  -3.622 -24.448  0.00  0.00    +0.210 HD
ENDBRANCH  25  28
ENDBRANCH  20  23
ENDBRANCH  19  20
ENDBRANCH   1  19
TORSDOF 8
ENDMDL
MODEL 9
REMARK VINA RESULT:      -8.5      8.339     11.237
REMARK  Name = 64715
REMARK  8 active torsions:
REMARK  status: ('A' for Active; 'I' for Inactive)
REMARK    1  A    between atoms: C_1  and  C_19
REMARK    2  A    between atoms: C_4  and  O_12
REMARK    3  A    between atoms: O_12  and  C_14
REMARK    4  A    between atoms: C_14  and  C_15
REMARK    5  A    between atoms: C_15  and  C_17
REMARK    6  A    between atoms: C_19  and  C_20
REMARK    7  A    between atoms: C_20  and  C_23
REMARK    8  A    between atoms: C_25  and  O_28
REMARK                            x       y       z     vdW  Elec       q    Type
REMARK                         _______ _______ _______ _____ _____    ______ ____
ROOT
ATOM      1  C   UNL     1      34.238 -23.113 -18.074  0.00  0.00    +0.012 C 
ATOM      2  C   UNL     1      35.063 -22.311 -17.024  0.00  0.00    +0.062 C 
ATOM      3  C   UNL     1      34.118 -22.329 -19.413  0.00  0.00    +0.022 C 
ATOM      4  C   UNL     1      35.194 -23.034 -15.662  0.00  0.00    +0.173 C 
ATOM      5  C   UNL     1      36.428 -21.929 -17.595  0.00  0.00    -0.024 C 
ATOM      6  C   UNL     1      36.171 -22.296 -14.745  0.00  0.00    +0.049 C 
ATOM      7  C   UNL     1      35.455 -21.779 -19.842  0.00  0.00    -0.027 C 
ATOM      8  C   UNL     1      37.562 -22.188 -15.367  0.00  0.00    +0.029 C 
ATOM      9  C   UNL     1      36.493 -21.619 -19.011  0.00  0.00    -0.009 C 
ATOM     10  C   UNL     1      37.537 -21.882 -16.834  0.00  0.00    -0.030 C 
ATOM     11  C   UNL     1      33.096 -21.186 -19.398  0.00  0.00    +0.005 C 
ENDROOT
BRANCH   4  12
ATOM     12  O   UNL     1      35.670 -24.370 -15.818  0.00  0.00    -0.452 OA
BRANCH  12  14
ATOM     13  O   UNL     1      34.189 -25.376 -14.364  0.00  0.00    -0.250 OA
ATOM     14  C   UNL     1      35.313 -25.245 -14.831  0.00  0.00    +0.316 C 
BRANCH  14  15
ATOM     15  C   UNL     1      36.534 -26.023 -14.369  0.00  0.00    +0.099 C 
ATOM     16  C   UNL     1      37.695 -25.695 -15.304  0.00  0.00    +0.012 C 
BRANCH  15  17
ATOM     17  C   UNL     1      36.892 -25.693 -12.912  0.00  0.00    +0.011 C 
ATOM     18  C   UNL     1      38.225 -24.966 -12.788  0.00  0.00    +0.001 C 
ENDBRANCH  15  17
ENDBRANCH  14  15
ENDBRANCH  12  14
ENDBRANCH   4  12
BRANCH   1  19
ATOM     19  C   UNL     1      32.857 -23.531 -17.550  0.00  0.00    +0.004 C 
BRANCH  19  20
ATOM     20  C   UNL     1      32.504 -22.775 -16.278  0.00  0.00    +0.044 C 
BRANCH  20  23
ATOM     21  O   UNL     1      30.155 -22.403 -16.545  0.00  0.00    -0.452 OA
ATOM     22  O   UNL     1      27.998 -21.946 -16.987  0.00  0.00    -0.250 OA
ATOM     23  C   UNL     1      31.118 -23.161 -15.779  0.00  0.00    +0.171 C 
ATOM     24  C   UNL     1      30.891 -24.662 -15.890  0.00  0.00    +0.073 C 
ATOM     25  C   UNL     1      29.452 -24.981 -15.529  0.00  0.00    +0.125 C 
ATOM     26  C   UNL     1      28.505 -24.211 -16.429  0.00  0.00    +0.139 C 
ATOM     27  C   UNL     1      28.853 -22.756 -16.636  0.00  0.00    +0.319 C 
BRANCH  25  28
ATOM     28  O   UNL     1      29.185 -24.635 -14.173  0.00  0.00    -0.384 OA
ATOM     29  H   UNL     1      29.177 -25.439 -13.630  0.00  0.00    +0.210 HD
ENDBRANCH  25  28
ENDBRANCH  20  23
ENDBRANCH  19  20
ENDBRANCH   1  19
TORSDOF 8
ENDMDL
