MODEL 1
REMARK VINA RESULT:      -8.2      0.000      0.000
REMARK  Name = 5289613
REMARK  4 active torsions:
REMARK  status: ('A' for Active; 'I' for Inactive)
REMARK    1  A    between atoms: C_6  and  C_15
REMARK    2  A    between atoms: C_10  and  O_12
REMARK    3  A    between atoms: C_15  and  O_16
REMARK    4  A    between atoms: O_16  and  C_17
REMARK                            x       y       z     vdW  Elec       q    Type
REMARK                         _______ _______ _______ _____ _____    ______ ____
ROOT
ATOM      1  O   UNL     1      34.309 -17.686 -24.983  0.00  0.00    -0.421 OA
ATOM      2  O   UNL     1      35.094 -19.659 -24.138  0.00  0.00    -0.244 OA
ATOM      3  C   UNL     1      34.387 -15.679 -23.612  0.00  0.00    +0.035 C 
ATOM      4  C   UNL     1      34.062 -16.310 -24.808  0.00  0.00    +0.152 C 
ATOM      5  C   UNL     1      34.987 -16.463 -22.543  0.00  0.00    +0.016 C 
ATOM      6  C   UNL     1      35.220 -17.770 -22.716  0.00  0.00    +0.151 C 
ATOM      7  C   UNL     1      34.125 -14.314 -23.477  0.00  0.00    +0.006 C 
ATOM      8  C   UNL     1      33.485 -15.617 -25.871  0.00  0.00    +0.074 C 
ATOM      9  C   UNL     1      34.883 -18.462 -23.979  0.00  0.00    +0.352 C 
ATOM     10  C   UNL     1      33.228 -14.255 -25.728  0.00  0.00    +0.137 C 
ATOM     11  C   UNL     1      33.547 -13.605 -24.534  0.00  0.00    +0.037 C 
ENDROOT
BRANCH  10  12
ATOM     12  O   UNL     1      32.666 -13.558 -26.752  0.00  0.00    -0.505 OA
ATOM     13  H   UNL     1      33.032 -13.612 -27.613  0.00  0.00    +0.292 HD
ENDBRANCH  10  12
BRANCH   6  15
ATOM     14  O   UNL     1      37.021 -18.743 -21.544  0.00  0.00    -0.245 OA
ATOM     15  C   UNL     1      35.828 -18.474 -21.579  0.00  0.00    +0.348 C 
BRANCH  15  16
ATOM     16  O   UNL     1      34.868 -18.732 -20.666  0.00  0.00    -0.445 OA
BRANCH  16  17
ATOM     17  C   UNL     1      34.402 -20.084 -20.620  0.00  0.00    +0.209 C 
ATOM     18  C   UNL     1      32.889 -20.083 -20.592  0.00  0.00    +0.051 C 
ENDBRANCH  16  17
ENDBRANCH  15  16
ENDBRANCH   6  15
TORSDOF 4
ENDMDL
MODEL 2
REMARK VINA RESULT:      -8.1      2.146      2.588
REMARK  Name = 5289613
REMARK  4 active torsions:
REMARK  status: ('A' for Active; 'I' for Inactive)
REMARK    1  A    between atoms: C_6  and  C_15
REMARK    2  A    between atoms: C_10  and  O_12
REMARK    3  A    between atoms: C_15  and  O_16
REMARK    4  A    between atoms: O_16  and  C_17
REMARK                            x       y       z     vdW  Elec       q    Type
REMARK                         _______ _______ _______ _____ _____    ______ ____
ROOT
ATOM      1  O   UNL     1      33.854 -15.545 -23.926  0.00  0.00    -0.421 OA
ATOM      2  O   UNL     1      35.037 -17.324 -24.738  0.00  0.00    -0.244 OA
ATOM      3  C   UNL     1      33.504 -15.331 -21.529  0.00  0.00    +0.035 C 
ATOM      4  C   UNL     1      33.322 -14.851 -22.822  0.00  0.00    +0.152 C 
ATOM      5  C   UNL     1      34.254 -16.562 -21.336  0.00  0.00    +0.016 C 
ATOM      6  C   UNL     1      34.759 -17.217 -22.389  0.00  0.00    +0.151 C 
ATOM      7  C   UNL     1      32.959 -14.615 -20.461  0.00  0.00    +0.006 C 
ATOM      8  C   UNL     1      32.612 -13.678 -23.076  0.00  0.00    +0.074 C 
ATOM      9  C   UNL     1      34.577 -16.725 -23.772  0.00  0.00    +0.352 C 
ATOM     10  C   UNL     1      32.073 -12.969 -22.005  0.00  0.00    +0.137 C 
ATOM     11  C   UNL     1      32.246 -13.437 -20.700  0.00  0.00    +0.037 C 
ENDROOT
BRANCH  10  12
ATOM     12  O   UNL     1      31.378 -11.822 -22.229  0.00  0.00    -0.505 OA
ATOM     13  H   UNL     1      31.389 -11.425 -23.078  0.00  0.00    +0.292 HD
ENDBRANCH  10  12
BRANCH   6  15
ATOM     14  O   UNL     1      36.711 -18.454 -21.920  0.00  0.00    -0.245 OA
ATOM     15  C   UNL     1      35.500 -18.449 -22.090  0.00  0.00    +0.348 C 
BRANCH  15  16
ATOM     16  O   UNL     1      34.628 -19.478 -22.046  0.00  0.00    -0.445 OA
BRANCH  16  17
ATOM     17  C   UNL     1      34.423 -20.063 -20.757  0.00  0.00    +0.209 C 
ATOM     18  C   UNL     1      32.937 -20.132 -20.478  0.00  0.00    +0.051 C 
ENDBRANCH  16  17
ENDBRANCH  15  16
ENDBRANCH   6  15
TORSDOF 4
ENDMDL
MODEL 3
REMARK VINA RESULT:      -8.0      3.594      6.249
REMARK  Name = 5289613
REMARK  4 active torsions:
REMARK  status: ('A' for Active; 'I' for Inactive)
REMARK    1  A    between atoms: C_6  and  C_15
REMARK    2  A    between atoms: C_10  and  O_12
REMARK    3  A    between atoms: C_15  and  O_16
REMARK    4  A    between atoms: O_16  and  C_17
REMARK                            x       y       z     vdW  Elec       q    Type
REMARK                         _______ _______ _______ _____ _____    ______ ____
ROOT
ATOM      1  O   UNL     1      36.292 -20.878 -19.246  0.00  0.00    -0.421 OA
ATOM      2  O   UNL     1      36.253 -22.468 -17.606  0.00  0.00    -0.244 OA
ATOM      3  C   UNL     1      34.261 -20.392 -20.493  0.00  0.00    +0.035 C 
ATOM      4  C   UNL     1      35.609 -20.156 -20.246  0.00  0.00    +0.152 C 
ATOM      5  C   UNL     1      33.566 -21.395 -19.702  0.00  0.00    +0.016 C 
ATOM      6  C   UNL     1      34.219 -22.077 -18.753  0.00  0.00    +0.151 C 
ATOM      7  C   UNL     1      33.621 -19.656 -21.493  0.00  0.00    +0.006 C 
ATOM      8  C   UNL     1      36.334 -19.209 -20.968  0.00  0.00    +0.074 C 
ATOM      9  C   UNL     1      35.653 -21.844 -18.473  0.00  0.00    +0.352 C 
ATOM     10  C   UNL     1      35.687 -18.479 -21.963  0.00  0.00    +0.137 C 
ATOM     11  C   UNL     1      34.334 -18.703 -22.225  0.00  0.00    +0.037 C 
ENDROOT
BRANCH  10  12
ATOM     12  O   UNL     1      36.374 -17.550 -22.680  0.00  0.00    -0.505 OA
ATOM     13  H   UNL     1      35.978 -17.147 -23.428  0.00  0.00    +0.292 HD
ENDBRANCH  10  12
BRANCH   6  15
ATOM     14  O   UNL     1      33.840 -24.202 -17.804  0.00  0.00    -0.245 OA
ATOM     15  C   UNL     1      33.430 -23.068 -18.010  0.00  0.00    +0.348 C 
BRANCH  15  16
ATOM     16  O   UNL     1      32.264 -22.501 -17.636  0.00  0.00    -0.445 OA
BRANCH  16  17
ATOM     17  C   UNL     1      31.689 -23.004 -16.427  0.00  0.00    +0.209 C 
ATOM     18  C   UNL     1      30.185 -22.843 -16.491  0.00  0.00    +0.051 C 
ENDBRANCH  16  17
ENDBRANCH  15  16
ENDBRANCH   6  15
TORSDOF 4
ENDMDL
MODEL 4
REMARK VINA RESULT:      -8.0      2.478      6.747
REMARK  Name = 5289613
REMARK  4 active torsions:
REMARK  status: ('A' for Active; 'I' for Inactive)
REMARK    1  A    between atoms: C_6  and  C_15
REMARK    2  A    between atoms: C_10  and  O_12
REMARK    3  A    between atoms: C_15  and  O_16
REMARK    4  A    between atoms: O_16  and  C_17
REMARK                            x       y       z     vdW  Elec       q    Type
REMARK                         _______ _______ _______ _____ _____    ______ ____
ROOT
ATOM      1  O   UNL     1      36.689 -20.176 -20.405  0.00  0.00    -0.421 OA
ATOM      2  O   UNL     1      37.674 -18.665 -21.808  0.00  0.00    -0.244 OA
ATOM      3  C   UNL     1      34.268 -20.398 -20.391  0.00  0.00    +0.035 C 
ATOM      4  C   UNL     1      35.516 -20.779 -19.911  0.00  0.00    +0.152 C 
ATOM      5  C   UNL     1      34.193 -19.366 -21.413  0.00  0.00    +0.016 C 
ATOM      6  C   UNL     1      35.311 -18.796 -21.880  0.00  0.00    +0.151 C 
ATOM      7  C   UNL     1      33.128 -21.019 -19.875  0.00  0.00    +0.006 C 
ATOM      8  C   UNL     1      35.657 -21.761 -18.931  0.00  0.00    +0.074 C 
ATOM      9  C   UNL     1      36.649 -19.186 -21.383  0.00  0.00    +0.352 C 
ATOM     10  C   UNL     1      34.515 -22.376 -18.422  0.00  0.00    +0.137 C 
ATOM     11  C   UNL     1      33.254 -22.005 -18.893  0.00  0.00    +0.037 C 
ENDROOT
BRANCH  10  12
ATOM     12  O   UNL     1      34.630 -23.337 -17.466  0.00  0.00    -0.505 OA
ATOM     13  H   UNL     1      35.327 -23.961 -17.509  0.00  0.00    +0.292 HD
ENDBRANCH  10  12
BRANCH   6  15
ATOM     14  O   UNL     1      34.797 -18.040 -24.054  0.00  0.00    -0.245 OA
ATOM     15  C   UNL     1      35.131 -17.765 -22.910  0.00  0.00    +0.348 C 
BRANCH  15  16
ATOM     16  O   UNL     1      35.388 -16.558 -22.363  0.00  0.00    -0.445 OA
BRANCH  16  17
ATOM     17  C   UNL     1      34.242 -15.771 -22.028  0.00  0.00    +0.209 C 
ATOM     18  C   UNL     1      34.363 -15.309 -20.592  0.00  0.00    +0.051 C 
ENDBRANCH  16  17
ENDBRANCH  15  16
ENDBRANCH   6  15
TORSDOF 4
ENDMDL
MODEL 5
REMARK VINA RESULT:      -7.8      1.456      2.349
REMARK  Name = 5289613
REMARK  4 active torsions:
REMARK  status: ('A' for Active; 'I' for Inactive)
REMARK    1  A    between atoms: C_6  and  C_15
REMARK    2  A    between atoms: C_10  and  O_12
REMARK    3  A    between atoms: C_15  and  O_16
REMARK    4  A    between atoms: O_16  and  C_17
REMARK                            x       y       z     vdW  Elec       q    Type
REMARK                         _______ _______ _______ _____ _____    ______ ____
ROOT
ATOM      1  O   UNL     1      34.420 -15.036 -21.926  0.00  0.00    -0.421 OA
ATOM      2  O   UNL     1      35.031 -16.099 -19.997  0.00  0.00    -0.244 OA
ATOM      3  C   UNL     1      34.229 -16.311 -23.988  0.00  0.00    +0.035 C 
ATOM      4  C   UNL     1      34.141 -15.102 -23.306  0.00  0.00    +0.152 C 
ATOM      5  C   UNL     1      34.613 -17.507 -23.255  0.00  0.00    +0.016 C 
ATOM      6  C   UNL     1      34.875 -17.439 -21.944  0.00  0.00    +0.151 C 
ATOM      7  C   UNL     1      33.946 -16.334 -25.356  0.00  0.00    +0.006 C 
ATOM      8  C   UNL     1      33.780 -13.920 -23.949  0.00  0.00    +0.074 C 
ATOM      9  C   UNL     1      34.789 -16.164 -21.198  0.00  0.00    +0.352 C 
ATOM     10  C   UNL     1      33.499 -13.953 -25.313  0.00  0.00    +0.137 C 
ATOM     11  C   UNL     1      33.582 -15.157 -26.015  0.00  0.00    +0.037 C 
ENDROOT
BRANCH  10  12
ATOM     12  O   UNL     1      33.144 -12.811 -25.962  0.00  0.00    -0.505 OA
ATOM     13  H   UNL     1      32.307 -12.421 -25.802  0.00  0.00    +0.292 HD
ENDBRANCH  10  12
BRANCH   6  15
ATOM     14  O   UNL     1      36.243 -18.791 -20.579  0.00  0.00    -0.245 OA
ATOM     15  C   UNL     1      35.254 -18.700 -21.293  0.00  0.00    +0.348 C 
BRANCH  15  16
ATOM     16  O   UNL     1      34.350 -19.646 -21.624  0.00  0.00    -0.445 OA
BRANCH  16  17
ATOM     17  C   UNL     1      33.219 -19.755 -20.755  0.00  0.00    +0.209 C 
ATOM     18  C   UNL     1      33.393 -20.970 -19.869  0.00  0.00    +0.051 C 
ENDBRANCH  16  17
ENDBRANCH  15  16
ENDBRANCH   6  15
TORSDOF 4
ENDMDL
MODEL 6
REMARK VINA RESULT:      -7.8      6.123     10.711
REMARK  Name = 5289613
REMARK  4 active torsions:
REMARK  status: ('A' for Active; 'I' for Inactive)
REMARK    1  A    between atoms: C_6  and  C_15
REMARK    2  A    between atoms: C_10  and  O_12
REMARK    3  A    between atoms: C_15  and  O_16
REMARK    4  A    between atoms: O_16  and  C_17
REMARK                            x       y       z     vdW  Elec       q    Type
REMARK                         _______ _______ _______ _____ _____    ______ ____
ROOT
ATOM      1  O   UNL     1      33.982 -23.626 -15.228  0.00  0.00    -0.421 OA
ATOM      2  O   UNL     1      35.730 -23.080 -16.595  0.00  0.00    -0.244 OA
ATOM      3  C   UNL     1      31.705 -23.452 -16.065  0.00  0.00    +0.035 C 
ATOM      4  C   UNL     1      32.592 -23.757 -15.038  0.00  0.00    +0.152 C 
ATOM      5  C   UNL     1      32.236 -22.995 -17.340  0.00  0.00    +0.016 C 
ATOM      6  C   UNL     1      33.557 -22.874 -17.515  0.00  0.00    +0.151 C 
ATOM      7  C   UNL     1      30.335 -23.594 -15.836  0.00  0.00    +0.006 C 
ATOM      8  C   UNL     1      32.149 -24.199 -13.792  0.00  0.00    +0.074 C 
ATOM      9  C   UNL     1      34.519 -23.192 -16.437  0.00  0.00    +0.352 C 
ATOM     10  C   UNL     1      30.780 -24.338 -13.573  0.00  0.00    +0.137 C 
ATOM     11  C   UNL     1      29.875 -24.036 -14.593  0.00  0.00    +0.037 C 
ENDROOT
BRANCH  10  12
ATOM     12  O   UNL     1      30.325 -24.768 -12.365  0.00  0.00    -0.505 OA
ATOM     13  H   UNL     1      29.484 -24.493 -12.056  0.00  0.00    +0.292 HD
ENDBRANCH  10  12
BRANCH   6  15
ATOM     14  O   UNL     1      35.019 -22.815 -19.365  0.00  0.00    -0.245 OA
ATOM     15  C   UNL     1      33.995 -22.406 -18.837  0.00  0.00    +0.348 C 
BRANCH  15  16
ATOM     16  O   UNL     1      33.096 -21.510 -19.298  0.00  0.00    -0.445 OA
BRANCH  16  17
ATOM     17  C   UNL     1      33.590 -20.574 -20.260  0.00  0.00    +0.209 C 
ATOM     18  C   UNL     1      32.489 -19.595 -20.606  0.00  0.00    +0.051 C 
ENDBRANCH  16  17
ENDBRANCH  15  16
ENDBRANCH   6  15
TORSDOF 4
ENDMDL
MODEL 7
REMARK VINA RESULT:      -7.8     10.192     12.634
REMARK  Name = 5289613
REMARK  4 active torsions:
REMARK  status: ('A' for Active; 'I' for Inactive)
REMARK    1  A    between atoms: C_6  and  C_15
REMARK    2  A    between atoms: C_10  and  O_12
REMARK    3  A    between atoms: C_15  and  O_16
REMARK    4  A    between atoms: O_16  and  C_17
REMARK                            x       y       z     vdW  Elec       q    Type
REMARK                         _______ _______ _______ _____ _____    ______ ____
ROOT
ATOM      1  O   UNL     1      34.034 -24.495 -12.400  0.00  0.00    -0.421 OA
ATOM      2  O   UNL     1      35.394 -24.889 -10.606  0.00  0.00    -0.244 OA
ATOM      3  C   UNL     1      34.976 -23.549 -14.433  0.00  0.00    +0.035 C 
ATOM      4  C   UNL     1      33.882 -24.033 -13.722  0.00  0.00    +0.152 C 
ATOM      5  C   UNL     1      36.279 -23.526 -13.788  0.00  0.00    +0.016 C 
ATOM      6  C   UNL     1      36.418 -23.967 -12.532  0.00  0.00    +0.151 C 
ATOM      7  C   UNL     1      34.783 -23.099 -15.741  0.00  0.00    +0.006 C 
ATOM      8  C   UNL     1      32.606 -24.081 -14.281  0.00  0.00    +0.074 C 
ATOM      9  C   UNL     1      35.269 -24.486 -11.757  0.00  0.00    +0.352 C 
ATOM     10  C   UNL     1      32.424 -23.631 -15.587  0.00  0.00    +0.137 C 
ATOM     11  C   UNL     1      33.510 -23.141 -16.315  0.00  0.00    +0.037 C 
ENDROOT
BRANCH  10  12
ATOM     12  O   UNL     1      31.187 -23.669 -16.153  0.00  0.00    -0.505 OA
ATOM     13  H   UNL     1      30.565 -24.315 -15.879  0.00  0.00    +0.292 HD
ENDBRANCH  10  12
BRANCH   6  15
ATOM     14  O   UNL     1      38.291 -22.846 -11.641  0.00  0.00    -0.245 OA
ATOM     15  C   UNL     1      37.773 -23.904 -11.969  0.00  0.00    +0.348 C 
BRANCH  15  16
ATOM     16  O   UNL     1      38.271 -25.156 -11.898  0.00  0.00    -0.445 OA
BRANCH  16  17
ATOM     17  C   UNL     1      38.434 -25.832 -13.147  0.00  0.00    +0.209 C 
ATOM     18  C   UNL     1      39.781 -25.466 -13.733  0.00  0.00    +0.051 C 
ENDBRANCH  16  17
ENDBRANCH  15  16
ENDBRANCH   6  15
TORSDOF 4
ENDMDL
MODEL 8
REMARK VINA RESULT:      -7.6      2.510      3.104
REMARK  Name = 5289613
REMARK  4 active torsions:
REMARK  status: ('A' for Active; 'I' for Inactive)
REMARK    1  A    between atoms: C_6  and  C_15
REMARK    2  A    between atoms: C_10  and  O_12
REMARK    3  A    between atoms: C_15  and  O_16
REMARK    4  A    between atoms: O_16  and  C_17
REMARK                            x       y       z     vdW  Elec       q    Type
REMARK                         _______ _______ _______ _____ _____    ______ ____
ROOT
ATOM      1  O   UNL     1      33.962 -14.602 -23.570  0.00  0.00    -0.421 OA
ATOM      2  O   UNL     1      35.141 -16.500 -24.046  0.00  0.00    -0.244 OA
ATOM      3  C   UNL     1      33.023 -14.300 -21.347  0.00  0.00    +0.035 C 
ATOM      4  C   UNL     1      33.229 -13.836 -22.642  0.00  0.00    +0.152 C 
ATOM      5  C   UNL     1      33.577 -15.589 -20.965  0.00  0.00    +0.016 C 
ATOM      6  C   UNL     1      34.274 -16.312 -21.851  0.00  0.00    +0.151 C 
ATOM      7  C   UNL     1      32.289 -13.511 -20.458  0.00  0.00    +0.006 C 
ATOM      8  C   UNL     1      32.724 -12.610 -23.072  0.00  0.00    +0.074 C 
ATOM      9  C   UNL     1      34.505 -15.839 -23.233  0.00  0.00    +0.352 C 
ATOM     10  C   UNL     1      31.994 -11.829 -22.177  0.00  0.00    +0.137 C 
ATOM     11  C   UNL     1      31.777 -12.280 -20.873  0.00  0.00    +0.037 C 
ENDROOT
BRANCH  10  12
ATOM     12  O   UNL     1      31.493 -10.629 -22.575  0.00  0.00    -0.505 OA
ATOM     13  H   UNL     1      30.574 -10.533 -22.733  0.00  0.00    +0.292 HD
ENDBRANCH  10  12
BRANCH   6  15
ATOM     14  O   UNL     1      35.681 -17.671 -20.533  0.00  0.00    -0.245 OA
ATOM     15  C   UNL     1      34.792 -17.600 -21.370  0.00  0.00    +0.348 C 
BRANCH  15  16
ATOM     16  O   UNL     1      34.129 -18.594 -21.997  0.00  0.00    -0.445 OA
BRANCH  16  17
ATOM     17  C   UNL     1      34.111 -19.853 -21.318  0.00  0.00    +0.209 C 
ATOM     18  C   UNL     1      32.816 -19.978 -20.544  0.00  0.00    +0.051 C 
ENDBRANCH  16  17
ENDBRANCH  15  16
ENDBRANCH   6  15
TORSDOF 4
ENDMDL
MODEL 9
REMARK VINA RESULT:      -7.5      3.413      4.983
REMARK  Name = 5289613
REMARK  4 active torsions:
REMARK  status: ('A' for Active; 'I' for Inactive)
REMARK    1  A    between atoms: C_6  and  C_15
REMARK    2  A    between atoms: C_10  and  O_12
REMARK    3  A    between atoms: C_15  and  O_16
REMARK    4  A    between atoms: O_16  and  C_17
REMARK                            x       y       z     vdW  Elec       q    Type
REMARK                         _______ _______ _______ _____ _____    ______ ____
ROOT
ATOM      1  O   UNL     1      31.972 -12.999 -21.845  0.00  0.00    -0.421 OA
ATOM      2  O   UNL     1      32.203 -15.265 -21.658  0.00  0.00    -0.244 OA
ATOM      3  C   UNL     1      33.253 -11.799 -23.528  0.00  0.00    +0.035 C 
ATOM      4  C   UNL     1      32.329 -11.797 -22.487  0.00  0.00    +0.152 C 
ATOM      5  C   UNL     1      33.843 -13.061 -23.943  0.00  0.00    +0.016 C 
ATOM      6  C   UNL     1      33.498 -14.201 -23.331  0.00  0.00    +0.151 C 
ATOM      7  C   UNL     1      33.582 -10.586 -24.138  0.00  0.00    +0.006 C 
ATOM      8  C   UNL     1      31.728 -10.622 -22.041  0.00  0.00    +0.074 C 
ATOM      9  C   UNL     1      32.519 -14.223 -22.222  0.00  0.00    +0.352 C 
ATOM     10  C   UNL     1      32.062  -9.417 -22.655  0.00  0.00    +0.137 C 
ATOM     11  C   UNL     1      32.988  -9.399 -23.701  0.00  0.00    +0.037 C 
ENDROOT
BRANCH  10  12
ATOM     12  O   UNL     1      31.487  -8.257 -22.236  0.00  0.00    -0.505 OA
ATOM     13  H   UNL     1      31.286  -8.135 -21.329  0.00  0.00    +0.292 HD
ENDBRANCH  10  12
BRANCH   6  15
ATOM     14  O   UNL     1      33.740 -16.025 -24.805  0.00  0.00    -0.245 OA
ATOM     15  C   UNL     1      34.148 -15.422 -23.822  0.00  0.00    +0.348 C 
BRANCH  15  16
ATOM     16  O   UNL     1      35.200 -15.704 -23.024  0.00  0.00    -0.445 OA
BRANCH  16  17
ATOM     17  C   UNL     1      35.313 -17.066 -22.603  0.00  0.00    +0.209 C 
ATOM     18  C   UNL     1      35.057 -17.144 -21.113  0.00  0.00    +0.051 C 
ENDBRANCH  16  17
ENDBRANCH  15  16
ENDBRANCH   6  15
TORSDOF 4
ENDMDL
