MODEL 1
REMARK VINA RESULT:      -9.2      0.000      0.000
REMARK  Name = 4628
REMARK  3 active torsions:
REMARK  status: ('A' for Active; 'I' for Inactive)
REMARK    1  A    between atoms: N_4  and  C_19
REMARK    2  A    between atoms: C_13  and  C_16
REMARK    3  A    between atoms: C_16  and  O_17
REMARK                            x       y       z     vdW  Elec       q    Type
REMARK                         _______ _______ _______ _____ _____    ______ ____
ROOT
ATOM      1  O   UNL     1      33.081 -13.456 -25.472  0.00  0.00    -0.435 OA
ATOM      2  O   UNL     1      33.527 -15.344 -26.902  0.00  0.00    -0.435 OA
ATOM      3  O   UNL     1      35.267 -19.110 -23.868  0.00  0.00    -0.286 OA
ATOM      4  N   UNL     1      34.509 -15.907 -21.454  0.00  0.00    -0.285 N 
ATOM      5  C   UNL     1      34.259 -15.767 -22.841  0.00  0.00    +0.058 C 
ATOM      6  C   UNL     1      34.515 -16.869 -23.710  0.00  0.00    +0.056 C 
ATOM      7  C   UNL     1      33.766 -14.578 -23.415  0.00  0.00    +0.055 C 
ATOM      8  C   UNL     1      33.552 -14.530 -24.780  0.00  0.00    +0.178 C 
ATOM      9  C   UNL     1      33.806 -15.605 -25.595  0.00  0.00    +0.177 C 
ATOM     10  C   UNL     1      34.289 -16.792 -25.093  0.00  0.00    +0.045 C 
ATOM     11  C   UNL     1      34.994 -17.107 -20.967  0.00  0.00    +0.075 C 
ATOM     12  C   UNL     1      35.036 -18.145 -23.151  0.00  0.00    +0.204 C 
ATOM     13  C   UNL     1      35.266 -18.200 -21.687  0.00  0.00    +0.129 C 
ATOM     14  C   UNL     1      33.068 -13.979 -26.817  0.00  0.00    +0.429 C 
ENDROOT
BRANCH  13  16
ATOM     15  O   UNL     1      36.839 -19.433 -20.400  0.00  0.00    -0.245 OA
ATOM     16  C   UNL     1      35.775 -19.383 -20.992  0.00  0.00    +0.342 C 
BRANCH  16  17
ATOM     17  O   UNL     1      34.890 -20.395 -21.111  0.00  0.00    -0.477 OA
ATOM     18  H   UNL     1      34.143 -20.302 -21.670  0.00  0.00    +0.295 HD
ENDBRANCH  16  17
ENDBRANCH  13  16
BRANCH   4  19
ATOM     19  C   UNL     1      34.243 -14.770 -20.575  0.00  0.00    +0.096 C 
ATOM     20  C   UNL     1      32.794 -14.740 -20.132  0.00  0.00    +0.024 C 
ENDBRANCH   4  19
TORSDOF 3
ENDMDL
MODEL 2
REMARK VINA RESULT:      -8.8      9.977     12.075
REMARK  Name = 4628
REMARK  3 active torsions:
REMARK  status: ('A' for Active; 'I' for Inactive)
REMARK    1  A    between atoms: N_4  and  C_19
REMARK    2  A    between atoms: C_13  and  C_16
REMARK    3  A    between atoms: C_16  and  O_17
REMARK                            x       y       z     vdW  Elec       q    Type
REMARK                         _______ _______ _______ _____ _____    ______ ____
ROOT
ATOM      1  O   UNL     1      31.101 -23.545 -16.390  0.00  0.00    -0.435 OA
ATOM      2  O   UNL     1      30.536 -24.548 -14.273  0.00  0.00    -0.435 OA
ATOM      3  O   UNL     1      34.895 -24.816 -11.562  0.00  0.00    -0.286 OA
ATOM      4  N   UNL     1      35.841 -23.120 -15.152  0.00  0.00    -0.285 N 
ATOM      5  C   UNL     1      34.491 -23.483 -14.924  0.00  0.00    +0.058 C 
ATOM      6  C   UNL     1      34.130 -24.079 -13.679  0.00  0.00    +0.056 C 
ATOM      7  C   UNL     1      33.474 -23.286 -15.879  0.00  0.00    +0.055 C 
ATOM      8  C   UNL     1      32.182 -23.673 -15.572  0.00  0.00    +0.178 C 
ATOM      9  C   UNL     1      31.860 -24.244 -14.367  0.00  0.00    +0.177 C 
ATOM     10  C   UNL     1      32.810 -24.462 -13.395  0.00  0.00    +0.045 C 
ATOM     11  C   UNL     1      36.783 -23.346 -14.165  0.00  0.00    +0.075 C 
ATOM     12  C   UNL     1      35.170 -24.307 -12.641  0.00  0.00    +0.204 C 
ATOM     13  C   UNL     1      36.556 -23.894 -12.966  0.00  0.00    +0.129 C 
ATOM     14  C   UNL     1      30.060 -24.102 -15.559  0.00  0.00    +0.429 C 
ENDROOT
BRANCH  13  16
ATOM     15  O   UNL     1      38.405 -23.145 -11.674  0.00  0.00    -0.245 OA
ATOM     16  C   UNL     1      37.685 -24.054 -12.048  0.00  0.00    +0.342 C 
BRANCH  16  17
ATOM     17  O   UNL     1      37.798 -25.350 -11.690  0.00  0.00    -0.477 OA
ATOM     18  H   UNL     1      38.439 -25.896 -12.102  0.00  0.00    +0.295 HD
ENDBRANCH  16  17
ENDBRANCH  13  16
BRANCH   4  19
ATOM     19  C   UNL     1      36.199 -22.511 -16.431  0.00  0.00    +0.096 C 
ATOM     20  C   UNL     1      37.493 -21.729 -16.331  0.00  0.00    +0.024 C 
ENDBRANCH   4  19
TORSDOF 3
ENDMDL
MODEL 3
REMARK VINA RESULT:      -8.7      8.178     11.234
REMARK  Name = 4628
REMARK  3 active torsions:
REMARK  status: ('A' for Active; 'I' for Inactive)
REMARK    1  A    between atoms: N_4  and  C_19
REMARK    2  A    between atoms: C_13  and  C_16
REMARK    3  A    between atoms: C_16  and  O_17
REMARK                            x       y       z     vdW  Elec       q    Type
REMARK                         _______ _______ _______ _____ _____    ______ ____
ROOT
ATOM      1  O   UNL     1      34.193 -22.460 -18.490  0.00  0.00    -0.435 OA
ATOM      2  O   UNL     1      36.484 -21.803 -18.138  0.00  0.00    -0.435 OA
ATOM      3  O   UNL     1      37.647 -23.054 -13.290  0.00  0.00    -0.286 OA
ATOM      4  N   UNL     1      33.765 -24.162 -13.895  0.00  0.00    -0.285 N 
ATOM      5  C   UNL     1      34.461 -23.562 -14.974  0.00  0.00    +0.058 C 
ATOM      6  C   UNL     1      35.819 -23.164 -14.792  0.00  0.00    +0.056 C 
ATOM      7  C   UNL     1      33.871 -23.334 -16.233  0.00  0.00    +0.055 C 
ATOM      8  C   UNL     1      34.624 -22.741 -17.229  0.00  0.00    +0.178 C 
ATOM      9  C   UNL     1      35.930 -22.366 -17.029  0.00  0.00    +0.177 C 
ATOM     10  C   UNL     1      36.560 -22.563 -15.822  0.00  0.00    +0.045 C 
ATOM     11  C   UNL     1      34.413 -24.352 -12.688  0.00  0.00    +0.075 C 
ATOM     12  C   UNL     1      36.483 -23.384 -13.481  0.00  0.00    +0.204 C 
ATOM     13  C   UNL     1      35.678 -24.020 -12.410  0.00  0.00    +0.129 C 
ATOM     14  C   UNL     1      35.377 -21.865 -19.060  0.00  0.00    +0.429 C 
ENDROOT
BRANCH  13  16
ATOM     15  O   UNL     1      35.525 -24.266 -10.051  0.00  0.00    -0.245 OA
ATOM     16  C   UNL     1      36.193 -24.301 -11.069  0.00  0.00    +0.342 C 
BRANCH  16  17
ATOM     17  O   UNL     1      37.507 -24.601 -11.140  0.00  0.00    -0.477 OA
ATOM     18  H   UNL     1      38.090 -24.043 -11.617  0.00  0.00    +0.295 HD
ENDBRANCH  16  17
ENDBRANCH  13  16
BRANCH   4  19
ATOM     19  C   UNL     1      32.375 -24.566 -14.094  0.00  0.00    +0.096 C 
ATOM     20  C   UNL     1      31.414 -23.528 -13.550  0.00  0.00    +0.024 C 
ENDBRANCH   4  19
TORSDOF 3
ENDMDL
MODEL 4
REMARK VINA RESULT:      -8.6      7.897     11.665
REMARK  Name = 4628
REMARK  3 active torsions:
REMARK  status: ('A' for Active; 'I' for Inactive)
REMARK    1  A    between atoms: N_4  and  C_19
REMARK    2  A    between atoms: C_13  and  C_16
REMARK    3  A    between atoms: C_16  and  O_17
REMARK                            x       y       z     vdW  Elec       q    Type
REMARK                         _______ _______ _______ _____ _____    ______ ____
ROOT
ATOM      1  O   UNL     1      34.930 -24.318 -11.443  0.00  0.00    -0.435 OA
ATOM      2  O   UNL     1      37.026 -23.612 -12.399  0.00  0.00    -0.435 OA
ATOM      3  O   UNL     1      36.083 -22.454 -17.317  0.00  0.00    -0.286 OA
ATOM      4  N   UNL     1      32.537 -23.651 -15.688  0.00  0.00    -0.285 N 
ATOM      5  C   UNL     1      33.682 -23.639 -14.853  0.00  0.00    +0.058 C 
ATOM      6  C   UNL     1      34.936 -23.226 -15.395  0.00  0.00    +0.056 C 
ATOM      7  C   UNL     1      33.645 -24.022 -13.497  0.00  0.00    +0.055 C 
ATOM      8  C   UNL     1      34.812 -23.980 -12.756  0.00  0.00    +0.178 C 
ATOM      9  C   UNL     1      36.006 -23.579 -13.301  0.00  0.00    +0.177 C 
ATOM     10  C   UNL     1      36.105 -23.194 -14.619  0.00  0.00    +0.045 C 
ATOM     11  C   UNL     1      32.654 -23.262 -17.010  0.00  0.00    +0.075 C 
ATOM     12  C   UNL     1      35.024 -22.814 -16.820  0.00  0.00    +0.204 C 
ATOM     13  C   UNL     1      33.774 -22.857 -17.618  0.00  0.00    +0.129 C 
ATOM     14  C   UNL     1      36.336 -24.083 -11.223  0.00  0.00    +0.429 C 
ENDROOT
BRANCH  13  16
ATOM     15  O   UNL     1      32.784 -21.861 -19.535  0.00  0.00    -0.245 OA
ATOM     16  C   UNL     1      33.703 -22.482 -19.031  0.00  0.00    +0.342 C 
BRANCH  16  17
ATOM     17  O   UNL     1      34.801 -22.929 -19.676  0.00  0.00    -0.477 OA
ATOM     18  H   UNL     1      35.489 -23.347 -19.195  0.00  0.00    +0.295 HD
ENDBRANCH  16  17
ENDBRANCH  13  16
BRANCH   4  19
ATOM     19  C   UNL     1      31.259 -24.077 -15.121  0.00  0.00    +0.096 C 
ATOM     20  C   UNL     1      30.327 -22.900 -14.913  0.00  0.00    +0.024 C 
ENDBRANCH   4  19
TORSDOF 3
ENDMDL
MODEL 5
REMARK VINA RESULT:      -8.6      2.411      6.094
REMARK  Name = 4628
REMARK  3 active torsions:
REMARK  status: ('A' for Active; 'I' for Inactive)
REMARK    1  A    between atoms: N_4  and  C_19
REMARK    2  A    between atoms: C_13  and  C_16
REMARK    3  A    between atoms: C_16  and  O_17
REMARK                            x       y       z     vdW  Elec       q    Type
REMARK                         _______ _______ _______ _____ _____    ______ ____
ROOT
ATOM      1  O   UNL     1      35.720 -18.600 -22.879  0.00  0.00    -0.435 OA
ATOM      2  O   UNL     1      35.500 -18.027 -20.549  0.00  0.00    -0.435 OA
ATOM      3  O   UNL     1      32.928 -13.581 -20.362  0.00  0.00    -0.286 OA
ATOM      4  N   UNL     1      33.306 -14.560 -24.307  0.00  0.00    -0.285 N 
ATOM      5  C   UNL     1      33.863 -15.441 -23.348  0.00  0.00    +0.058 C 
ATOM      6  C   UNL     1      33.747 -15.125 -21.961  0.00  0.00    +0.056 C 
ATOM      7  C   UNL     1      34.536 -16.628 -23.697  0.00  0.00    +0.055 C 
ATOM      8  C   UNL     1      35.050 -17.429 -22.694  0.00  0.00    +0.178 C 
ATOM      9  C   UNL     1      34.925 -17.103 -21.367  0.00  0.00    +0.177 C 
ATOM     10  C   UNL     1      34.279 -15.957 -20.963  0.00  0.00    +0.045 C 
ATOM     11  C   UNL     1      32.660 -13.413 -23.884  0.00  0.00    +0.075 C 
ATOM     12  C   UNL     1      33.045 -13.883 -21.543  0.00  0.00    +0.204 C 
ATOM     13  C   UNL     1      32.493 -13.022 -22.616  0.00  0.00    +0.129 C 
ATOM     14  C   UNL     1      36.004 -18.973 -21.514  0.00  0.00    +0.429 C 
ENDROOT
BRANCH  13  16
ATOM     15  O   UNL     1      32.103 -10.685 -22.811  0.00  0.00    -0.245 OA
ATOM     16  C   UNL     1      31.778 -11.770 -22.362  0.00  0.00    +0.342 C 
BRANCH  16  17
ATOM     17  O   UNL     1      30.717 -12.007 -21.563  0.00  0.00    -0.477 OA
ATOM     18  H   UNL     1      30.634 -12.833 -21.126  0.00  0.00    +0.295 HD
ENDBRANCH  16  17
ENDBRANCH  13  16
BRANCH   4  19
ATOM     19  C   UNL     1      33.431 -14.895 -25.724  0.00  0.00    +0.096 C 
ATOM     20  C   UNL     1      33.101 -13.707 -26.605  0.00  0.00    +0.024 C 
ENDBRANCH   4  19
TORSDOF 3
ENDMDL
MODEL 6
REMARK VINA RESULT:      -8.4      9.792     11.520
REMARK  Name = 4628
REMARK  3 active torsions:
REMARK  status: ('A' for Active; 'I' for Inactive)
REMARK    1  A    between atoms: N_4  and  C_19
REMARK    2  A    between atoms: C_13  and  C_16
REMARK    3  A    between atoms: C_16  and  O_17
REMARK                            x       y       z     vdW  Elec       q    Type
REMARK                         _______ _______ _______ _____ _____    ______ ____
ROOT
ATOM      1  O   UNL     1      30.230 -24.704 -13.885  0.00  0.00    -0.435 OA
ATOM      2  O   UNL     1      30.174 -23.967 -16.178  0.00  0.00    -0.435 OA
ATOM      3  O   UNL     1      34.973 -22.592 -17.400  0.00  0.00    -0.286 OA
ATOM      4  N   UNL     1      35.058 -23.842 -13.516  0.00  0.00    -0.285 N 
ATOM      5  C   UNL     1      33.816 -23.874 -14.197  0.00  0.00    +0.058 C 
ATOM      6  C   UNL     1      33.755 -23.442 -15.555  0.00  0.00    +0.056 C 
ATOM      7  C   UNL     1      32.622 -24.313 -13.592  0.00  0.00    +0.055 C 
ATOM      8  C   UNL     1      31.454 -24.309 -14.332  0.00  0.00    +0.178 C 
ATOM      9  C   UNL     1      31.421 -23.889 -15.638  0.00  0.00    +0.177 C 
ATOM     10  C   UNL     1      32.555 -23.449 -16.283  0.00  0.00    +0.045 C 
ATOM     11  C   UNL     1      36.187 -23.397 -14.178  0.00  0.00    +0.075 C 
ATOM     12  C   UNL     1      34.990 -22.970 -16.236  0.00  0.00    +0.204 C 
ATOM     13  C   UNL     1      36.244 -22.973 -15.445  0.00  0.00    +0.129 C 
ATOM     14  C   UNL     1      29.423 -24.484 -15.061  0.00  0.00    +0.429 C 
ENDROOT
BRANCH  13  16
ATOM     15  O   UNL     1      38.560 -23.198 -15.934  0.00  0.00    -0.245 OA
ATOM     16  C   UNL     1      37.537 -22.537 -15.976  0.00  0.00    +0.342 C 
BRANCH  16  17
ATOM     17  O   UNL     1      37.416 -21.304 -16.511  0.00  0.00    -0.477 OA
ATOM     18  H   UNL     1      38.176 -20.771 -16.637  0.00  0.00    +0.295 HD
ENDBRANCH  16  17
ENDBRANCH  13  16
BRANCH   4  19
ATOM     19  C   UNL     1      35.107 -24.287 -12.124  0.00  0.00    +0.096 C 
ATOM     20  C   UNL     1      36.391 -23.850 -11.449  0.00  0.00    +0.024 C 
ENDBRANCH   4  19
TORSDOF 3
ENDMDL
MODEL 7
REMARK VINA RESULT:      -8.4      2.520      4.435
REMARK  Name = 4628
REMARK  3 active torsions:
REMARK  status: ('A' for Active; 'I' for Inactive)
REMARK    1  A    between atoms: N_4  and  C_19
REMARK    2  A    between atoms: C_13  and  C_16
REMARK    3  A    between atoms: C_16  and  O_17
REMARK                            x       y       z     vdW  Elec       q    Type
REMARK                         _______ _______ _______ _____ _____    ______ ____
ROOT
ATOM      1  O   UNL     1      31.365 -11.456 -21.826  0.00  0.00    -0.435 OA
ATOM      2  O   UNL     1      31.979 -12.469 -19.728  0.00  0.00    -0.435 OA
ATOM      3  O   UNL     1      34.568 -16.761 -20.867  0.00  0.00    -0.286 OA
ATOM      4  N   UNL     1      33.522 -15.037 -24.416  0.00  0.00    -0.285 N 
ATOM      5  C   UNL     1      33.132 -14.385 -23.221  0.00  0.00    +0.058 C 
ATOM      6  C   UNL     1      33.482 -14.964 -21.964  0.00  0.00    +0.056 C 
ATOM      7  C   UNL     1      32.403 -13.179 -23.208  0.00  0.00    +0.055 C 
ATOM      8  C   UNL     1      32.063 -12.613 -21.994  0.00  0.00    +0.178 C 
ATOM      9  C   UNL     1      32.412 -13.190 -20.798  0.00  0.00    +0.177 C 
ATOM     10  C   UNL     1      33.123 -14.367 -20.746  0.00  0.00    +0.045 C 
ATOM     11  C   UNL     1      34.236 -16.219 -24.346  0.00  0.00    +0.075 C 
ATOM     12  C   UNL     1      34.251 -16.236 -21.927  0.00  0.00    +0.204 C 
ATOM     13  C   UNL     1      34.617 -16.846 -23.228  0.00  0.00    +0.129 C 
ATOM     14  C   UNL     1      31.315 -11.371 -20.386  0.00  0.00    +0.429 C 
ENDROOT
BRANCH  13  16
ATOM     15  O   UNL     1      34.978 -19.084 -23.946  0.00  0.00    -0.245 OA
ATOM     16  C   UNL     1      35.371 -18.095 -23.352  0.00  0.00    +0.342 C 
BRANCH  16  17
ATOM     17  O   UNL     1      36.554 -17.977 -22.713  0.00  0.00    -0.477 OA
ATOM     18  H   UNL     1      36.589 -17.592 -21.859  0.00  0.00    +0.295 HD
ENDBRANCH  16  17
ENDBRANCH  13  16
BRANCH   4  19
ATOM     19  C   UNL     1      33.157 -14.434 -25.696  0.00  0.00    +0.096 C 
ATOM     20  C   UNL     1      32.741 -15.485 -26.705  0.00  0.00    +0.024 C 
ENDBRANCH   4  19
TORSDOF 3
ENDMDL
MODEL 8
REMARK VINA RESULT:      -8.3      1.282      5.405
REMARK  Name = 4628
REMARK  3 active torsions:
REMARK  status: ('A' for Active; 'I' for Inactive)
REMARK    1  A    between atoms: N_4  and  C_19
REMARK    2  A    between atoms: C_13  and  C_16
REMARK    3  A    between atoms: C_16  and  O_17
REMARK                            x       y       z     vdW  Elec       q    Type
REMARK                         _______ _______ _______ _____ _____    ______ ____
ROOT
ATOM      1  O   UNL     1      34.872 -18.698 -20.451  0.00  0.00    -0.435 OA
ATOM      2  O   UNL     1      35.375 -19.698 -22.585  0.00  0.00    -0.435 OA
ATOM      3  O   UNL     1      34.152 -16.221 -26.166  0.00  0.00    -0.286 OA
ATOM      4  N   UNL     1      33.303 -14.535 -22.547  0.00  0.00    -0.285 N 
ATOM      5  C   UNL     1      33.831 -15.849 -22.560  0.00  0.00    +0.058 C 
ATOM      6  C   UNL     1      34.137 -16.465 -23.810  0.00  0.00    +0.056 C 
ATOM      7  C   UNL     1      34.072 -16.589 -21.386  0.00  0.00    +0.055 C 
ATOM      8  C   UNL     1      34.589 -17.867 -21.492  0.00  0.00    +0.178 C 
ATOM      9  C   UNL     1      34.875 -18.438 -22.707  0.00  0.00    +0.177 C 
ATOM     10  C   UNL     1      34.662 -17.764 -23.889  0.00  0.00    +0.045 C 
ATOM     11  C   UNL     1      33.094 -13.872 -23.743  0.00  0.00    +0.075 C 
ATOM     12  C   UNL     1      33.901 -15.722 -25.076  0.00  0.00    +0.204 C 
ATOM     13  C   UNL     1      33.346 -14.352 -24.966  0.00  0.00    +0.129 C 
ATOM     14  C   UNL     1      35.370 -19.857 -21.151  0.00  0.00    +0.429 C 
ENDROOT
BRANCH  13  16
ATOM     15  O   UNL     1      33.599 -12.428 -26.340  0.00  0.00    -0.245 OA
ATOM     16  C   UNL     1      33.059 -13.499 -26.120  0.00  0.00    +0.342 C 
BRANCH  16  17
ATOM     17  O   UNL     1      32.115 -14.079 -26.891  0.00  0.00    -0.477 OA
ATOM     18  H   UNL     1      32.117 -15.008 -27.015  0.00  0.00    +0.295 HD
ENDBRANCH  16  17
ENDBRANCH  13  16
BRANCH   4  19
ATOM     19  C   UNL     1      32.993 -13.915 -21.260  0.00  0.00    +0.096 C 
ATOM     20  C   UNL     1      31.967 -12.810 -21.410  0.00  0.00    +0.024 C 
ENDBRANCH   4  19
TORSDOF 3
ENDMDL
MODEL 9
REMARK VINA RESULT:      -8.3      8.865     11.017
REMARK  Name = 4628
REMARK  3 active torsions:
REMARK  status: ('A' for Active; 'I' for Inactive)
REMARK    1  A    between atoms: N_4  and  C_19
REMARK    2  A    between atoms: C_13  and  C_16
REMARK    3  A    between atoms: C_16  and  O_17
REMARK                            x       y       z     vdW  Elec       q    Type
REMARK                         _______ _______ _______ _____ _____    ______ ____
ROOT
ATOM      1  O   UNL     1      29.430 -22.476 -17.173  0.00  0.00    -0.435 OA
ATOM      2  O   UNL     1      28.976 -23.232 -14.930  0.00  0.00    -0.435 OA
ATOM      3  O   UNL     1      33.514 -24.413 -12.826  0.00  0.00    -0.286 OA
ATOM      4  N   UNL     1      34.274 -23.133 -16.627  0.00  0.00    -0.285 N 
ATOM      5  C   UNL     1      32.926 -23.158 -16.192  0.00  0.00    +0.058 C 
ATOM      6  C   UNL     1      32.629 -23.602 -14.868  0.00  0.00    +0.056 C 
ATOM      7  C   UNL     1      31.849 -22.765 -17.010  0.00  0.00    +0.055 C 
ATOM      8  C   UNL     1      30.564 -22.823 -16.503  0.00  0.00    +0.178 C 
ATOM      9  C   UNL     1      30.304 -23.253 -15.226  0.00  0.00    +0.177 C 
ATOM     10  C   UNL     1      31.314 -23.651 -14.379  0.00  0.00    +0.045 C 
ATOM     11  C   UNL     1      35.276 -23.535 -15.764  0.00  0.00    +0.075 C 
ATOM     12  C   UNL     1      33.733 -24.027 -13.968  0.00  0.00    +0.204 C 
ATOM     13  C   UNL     1      35.112 -23.966 -14.508  0.00  0.00    +0.129 C 
ATOM     14  C   UNL     1      28.427 -22.738 -16.169  0.00  0.00    +0.429 C 
ENDROOT
BRANCH  13  16
ATOM     15  O   UNL     1      37.281 -23.646 -13.589  0.00  0.00    -0.245 OA
ATOM     16  C   UNL     1      36.299 -24.351 -13.743  0.00  0.00    +0.342 C 
BRANCH  16  17
ATOM     17  O   UNL     1      36.135 -25.594 -13.245  0.00  0.00    -0.477 OA
ATOM     18  H   UNL     1      35.821 -25.711 -12.369  0.00  0.00    +0.295 HD
ENDBRANCH  16  17
ENDBRANCH  13  16
BRANCH   4  19
ATOM     19  C   UNL     1      34.564 -22.677 -17.985  0.00  0.00    +0.096 C 
ATOM     20  C   UNL     1      35.887 -21.941 -18.050  0.00  0.00    +0.024 C 
ENDBRANCH   4  19
TORSDOF 3
ENDMDL
