MODEL 1
REMARK VINA RESULT:      -6.9      0.000      0.000
REMARK  Name = 8554
REMARK  4 active torsions:
REMARK  status: ('A' for Active; 'I' for Inactive)
REMARK    1  A    between atoms: C_1  and  C_8
REMARK    2  A    between atoms: C_2  and  C_12
REMARK    3  A    between atoms: C_8  and  O_9
REMARK    4  A    between atoms: C_12  and  O_13
REMARK                            x       y       z     vdW  Elec       q    Type
REMARK                         _______ _______ _______ _____ _____    ______ ____
ROOT
ATOM      1  C   UNL     1      34.622 -18.548 -22.307  0.00  0.00    +0.082 C 
ATOM      2  C   UNL     1      34.487 -17.159 -22.311  0.00  0.00    +0.082 C 
ATOM      3  C   UNL     1      34.808 -19.234 -23.507  0.00  0.00    +0.007 C 
ATOM      4  C   UNL     1      34.538 -16.457 -23.515  0.00  0.00    +0.007 C 
ATOM      5  C   UNL     1      34.861 -18.531 -24.712  0.00  0.00    +0.000 C 
ATOM      6  C   UNL     1      34.726 -17.142 -24.716  0.00  0.00    +0.000 C 
ENDROOT
BRANCH   1   8
ATOM      7  O   UNL     1      35.570 -19.573 -20.395  0.00  0.00    -0.245 OA
ATOM      8  C   UNL     1      34.572 -19.311 -21.067  0.00  0.00    +0.342 C 
BRANCH   8   9
ATOM      9  O   UNL     1      33.304 -19.707 -20.723  0.00  0.00    -0.441 OA
ATOM     10  C   UNL     1      33.208 -20.862 -19.882  0.00  0.00    +0.256 C 
ENDBRANCH   8   9
ENDBRANCH   1   8
BRANCH   2  12
ATOM     11  O   UNL     1      35.189 -16.211 -20.258  0.00  0.00    -0.245 OA
ATOM     12  C   UNL     1      34.290 -16.415 -21.075  0.00  0.00    +0.342 C 
BRANCH  12  13
ATOM     13  O   UNL     1      33.004 -15.965 -20.908  0.00  0.00    -0.441 OA
ATOM     14  C   UNL     1      32.848 -14.560 -20.684  0.00  0.00    +0.256 C 
ENDBRANCH  12  13
ENDBRANCH   2  12
TORSDOF 4
ENDMDL
MODEL 2
REMARK VINA RESULT:      -6.9      0.635      3.698
REMARK  Name = 8554
REMARK  4 active torsions:
REMARK  status: ('A' for Active; 'I' for Inactive)
REMARK    1  A    between atoms: C_1  and  C_8
REMARK    2  A    between atoms: C_2  and  C_12
REMARK    3  A    between atoms: C_8  and  O_9
REMARK    4  A    between atoms: C_12  and  O_13
REMARK                            x       y       z     vdW  Elec       q    Type
REMARK                         _______ _______ _______ _____ _____    ______ ____
ROOT
ATOM      1  C   UNL     1      34.490 -17.222 -22.288  0.00  0.00    +0.082 C 
ATOM      2  C   UNL     1      34.553 -18.616 -22.278  0.00  0.00    +0.082 C 
ATOM      3  C   UNL     1      34.623 -16.527 -23.490  0.00  0.00    +0.007 C 
ATOM      4  C   UNL     1      34.748 -19.314 -23.470  0.00  0.00    +0.007 C 
ATOM      5  C   UNL     1      34.817 -17.225 -24.682  0.00  0.00    +0.000 C 
ATOM      6  C   UNL     1      34.880 -18.619 -24.672  0.00  0.00    +0.000 C 
ENDROOT
BRANCH   1   8
ATOM      7  O   UNL     1      35.187 -16.237 -20.250  0.00  0.00    -0.245 OA
ATOM      8  C   UNL     1      34.288 -16.464 -21.060  0.00  0.00    +0.342 C 
BRANCH   8   9
ATOM      9  O   UNL     1      32.997 -16.029 -20.897  0.00  0.00    -0.441 OA
ATOM     10  C   UNL     1      32.827 -14.627 -20.655  0.00  0.00    +0.256 C 
ENDBRANCH   8   9
ENDBRANCH   1   8
BRANCH   2  12
ATOM     11  O   UNL     1      33.337 -19.761 -20.599  0.00  0.00    -0.245 OA
ATOM     12  C   UNL     1      34.419 -19.370 -21.039  0.00  0.00    +0.342 C 
BRANCH  12  13
ATOM     13  O   UNL     1      35.617 -19.601 -20.410  0.00  0.00    -0.441 OA
ATOM     14  C   UNL     1      35.842 -20.937 -19.946  0.00  0.00    +0.256 C 
ENDBRANCH  12  13
ENDBRANCH   2  12
TORSDOF 4
ENDMDL
MODEL 3
REMARK VINA RESULT:      -6.6      0.517      3.458
REMARK  Name = 8554
REMARK  4 active torsions:
REMARK  status: ('A' for Active; 'I' for Inactive)
REMARK    1  A    between atoms: C_1  and  C_8
REMARK    2  A    between atoms: C_2  and  C_12
REMARK    3  A    between atoms: C_8  and  O_9
REMARK    4  A    between atoms: C_12  and  O_13
REMARK                            x       y       z     vdW  Elec       q    Type
REMARK                         _______ _______ _______ _____ _____    ______ ____
ROOT
ATOM      1  C   UNL     1      34.458 -16.822 -22.413  0.00  0.00    +0.082 C 
ATOM      2  C   UNL     1      34.632 -18.193 -22.607  0.00  0.00    +0.082 C 
ATOM      3  C   UNL     1      34.510 -15.952 -23.502  0.00  0.00    +0.007 C 
ATOM      4  C   UNL     1      34.858 -18.692 -23.890  0.00  0.00    +0.007 C 
ATOM      5  C   UNL     1      34.736 -16.452 -24.785  0.00  0.00    +0.000 C 
ATOM      6  C   UNL     1      34.909 -17.823 -24.979  0.00  0.00    +0.000 C 
ENDROOT
BRANCH   1   8
ATOM      7  O   UNL     1      35.101 -16.160 -20.233  0.00  0.00    -0.245 OA
ATOM      8  C   UNL     1      34.221 -16.269 -21.086  0.00  0.00    +0.342 C 
BRANCH   8   9
ATOM      9  O   UNL     1      32.920 -15.882 -20.884  0.00  0.00    -0.441 OA
ATOM     10  C   UNL     1      32.720 -14.523 -20.478  0.00  0.00    +0.256 C 
ENDBRANCH   8   9
ENDBRANCH   1   8
BRANCH   2  12
ATOM     11  O   UNL     1      35.480 -19.227 -20.653  0.00  0.00    -0.245 OA
ATOM     12  C   UNL     1      34.583 -19.126 -21.490  0.00  0.00    +0.342 C 
BRANCH  12  13
ATOM     13  O   UNL     1      33.438 -19.884 -21.463  0.00  0.00    -0.441 OA
ATOM     14  C   UNL     1      32.945 -20.243 -20.168  0.00  0.00    +0.256 C 
ENDBRANCH  12  13
ENDBRANCH   2  12
TORSDOF 4
ENDMDL
MODEL 4
REMARK VINA RESULT:      -6.5      5.512      8.434
REMARK  Name = 8554
REMARK  4 active torsions:
REMARK  status: ('A' for Active; 'I' for Inactive)
REMARK    1  A    between atoms: C_1  and  C_8
REMARK    2  A    between atoms: C_2  and  C_12
REMARK    3  A    between atoms: C_8  and  O_9
REMARK    4  A    between atoms: C_12  and  O_13
REMARK                            x       y       z     vdW  Elec       q    Type
REMARK                         _______ _______ _______ _____ _____    ______ ____
ROOT
ATOM      1  C   UNL     1      33.634 -23.366 -15.688  0.00  0.00    +0.082 C 
ATOM      2  C   UNL     1      32.908 -23.160 -16.861  0.00  0.00    +0.082 C 
ATOM      3  C   UNL     1      32.983 -23.366 -14.455  0.00  0.00    +0.007 C 
ATOM      4  C   UNL     1      31.530 -22.954 -16.800  0.00  0.00    +0.007 C 
ATOM      5  C   UNL     1      31.604 -23.160 -14.394  0.00  0.00    +0.000 C 
ATOM      6  C   UNL     1      30.877 -22.954 -15.567  0.00  0.00    +0.000 C 
ENDROOT
BRANCH   1   8
ATOM      7  O   UNL     1      35.587 -24.699 -15.825  0.00  0.00    -0.245 OA
ATOM      8  C   UNL     1      35.075 -23.585 -15.718  0.00  0.00    +0.342 C 
BRANCH   8   9
ATOM      9  O   UNL     1      35.802 -22.426 -15.615  0.00  0.00    -0.441 OA
ATOM     10  C   UNL     1      37.143 -22.473 -16.116  0.00  0.00    +0.256 C 
ENDBRANCH   8   9
ENDBRANCH   1   8
BRANCH   2  12
ATOM     11  O   UNL     1      33.746 -24.173 -18.831  0.00  0.00    -0.245 OA
ATOM     12  C   UNL     1      33.560 -23.155 -18.164  0.00  0.00    +0.342 C 
BRANCH  12  13
ATOM     13  O   UNL     1      33.947 -21.904 -18.574  0.00  0.00    -0.441 OA
ATOM     14  C   UNL     1      35.203 -21.820 -19.255  0.00  0.00    +0.256 C 
ENDBRANCH  12  13
ENDBRANCH   2  12
TORSDOF 4
ENDMDL
MODEL 5
REMARK VINA RESULT:      -6.4      5.489      8.538
REMARK  Name = 8554
REMARK  4 active torsions:
REMARK  status: ('A' for Active; 'I' for Inactive)
REMARK    1  A    between atoms: C_1  and  C_8
REMARK    2  A    between atoms: C_2  and  C_12
REMARK    3  A    between atoms: C_8  and  O_9
REMARK    4  A    between atoms: C_12  and  O_13
REMARK                            x       y       z     vdW  Elec       q    Type
REMARK                         _______ _______ _______ _____ _____    ______ ____
ROOT
ATOM      1  C   UNL     1      32.954 -23.152 -16.891  0.00  0.00    +0.082 C 
ATOM      2  C   UNL     1      33.675 -23.349 -15.714  0.00  0.00    +0.082 C 
ATOM      3  C   UNL     1      31.574 -22.956 -16.839  0.00  0.00    +0.007 C 
ATOM      4  C   UNL     1      33.017 -23.350 -14.484  0.00  0.00    +0.007 C 
ATOM      5  C   UNL     1      30.915 -22.956 -15.608  0.00  0.00    +0.000 C 
ATOM      6  C   UNL     1      31.637 -23.154 -14.431  0.00  0.00    +0.000 C 
ENDROOT
BRANCH   1   8
ATOM      7  O   UNL     1      33.759 -24.155 -18.879  0.00  0.00    -0.245 OA
ATOM      8  C   UNL     1      33.612 -23.145 -18.191  0.00  0.00    +0.342 C 
BRANCH   8   9
ATOM      9  O   UNL     1      34.051 -21.902 -18.571  0.00  0.00    -0.441 OA
ATOM     10  C   UNL     1      35.231 -21.868 -19.383  0.00  0.00    +0.256 C 
ENDBRANCH   8   9
ENDBRANCH   1   8
BRANCH   2  12
ATOM     11  O   UNL     1      35.639 -24.669 -15.803  0.00  0.00    -0.245 OA
ATOM     12  C   UNL     1      35.117 -23.556 -15.736  0.00  0.00    +0.342 C 
BRANCH  12  13
ATOM     13  O   UNL     1      35.836 -22.388 -15.674  0.00  0.00    -0.441 OA
ATOM     14  C   UNL     1      37.169 -22.436 -16.195  0.00  0.00    +0.256 C 
ENDBRANCH  12  13
ENDBRANCH   2  12
TORSDOF 4
ENDMDL
MODEL 6
REMARK VINA RESULT:      -6.4      1.886      3.715
REMARK  Name = 8554
REMARK  4 active torsions:
REMARK  status: ('A' for Active; 'I' for Inactive)
REMARK    1  A    between atoms: C_1  and  C_8
REMARK    2  A    between atoms: C_2  and  C_12
REMARK    3  A    between atoms: C_8  and  O_9
REMARK    4  A    between atoms: C_12  and  O_13
REMARK                            x       y       z     vdW  Elec       q    Type
REMARK                         _______ _______ _______ _____ _____    ______ ____
ROOT
ATOM      1  C   UNL     1      34.509 -16.851 -23.192  0.00  0.00    +0.082 C 
ATOM      2  C   UNL     1      34.395 -17.081 -21.821  0.00  0.00    +0.082 C 
ATOM      3  C   UNL     1      34.806 -17.907 -24.055  0.00  0.00    +0.007 C 
ATOM      4  C   UNL     1      34.578 -18.367 -21.312  0.00  0.00    +0.007 C 
ATOM      5  C   UNL     1      34.988 -19.194 -23.545  0.00  0.00    +0.000 C 
ATOM      6  C   UNL     1      34.873 -19.424 -22.174  0.00  0.00    +0.000 C 
ENDROOT
BRANCH   1   8
ATOM      7  O   UNL     1      34.924 -14.525 -23.347  0.00  0.00    -0.245 OA
ATOM      8  C   UNL     1      34.325 -15.520 -23.755  0.00  0.00    +0.342 C 
BRANCH   8   9
ATOM      9  O   UNL     1      33.418 -15.486 -24.784  0.00  0.00    -0.441 OA
ATOM     10  C   UNL     1      33.033 -14.186 -25.246  0.00  0.00    +0.256 C 
ENDBRANCH   8   9
ENDBRANCH   1   8
BRANCH   2  12
ATOM     11  O   UNL     1      34.932 -15.455 -20.186  0.00  0.00    -0.245 OA
ATOM     12  C   UNL     1      34.087 -16.000 -20.896  0.00  0.00    +0.342 C 
BRANCH  12  13
ATOM     13  O   UNL     1      32.760 -15.647 -20.893  0.00  0.00    -0.441 OA
ATOM     14  C   UNL     1      32.476 -14.245 -20.847  0.00  0.00    +0.256 C 
ENDBRANCH  12  13
ENDBRANCH   2  12
TORSDOF 4
ENDMDL
MODEL 7
REMARK VINA RESULT:      -6.4      1.874      3.491
REMARK  Name = 8554
REMARK  4 active torsions:
REMARK  status: ('A' for Active; 'I' for Inactive)
REMARK    1  A    between atoms: C_1  and  C_8
REMARK    2  A    between atoms: C_2  and  C_12
REMARK    3  A    between atoms: C_8  and  O_9
REMARK    4  A    between atoms: C_12  and  O_13
REMARK                            x       y       z     vdW  Elec       q    Type
REMARK                         _______ _______ _______ _____ _____    ______ ____
ROOT
ATOM      1  C   UNL     1      34.392 -17.105 -21.826  0.00  0.00    +0.082 C 
ATOM      2  C   UNL     1      34.511 -16.868 -23.196  0.00  0.00    +0.082 C 
ATOM      3  C   UNL     1      34.570 -18.394 -21.323  0.00  0.00    +0.007 C 
ATOM      4  C   UNL     1      34.808 -17.921 -24.062  0.00  0.00    +0.007 C 
ATOM      5  C   UNL     1      34.868 -19.446 -22.190  0.00  0.00    +0.000 C 
ATOM      6  C   UNL     1      34.987 -19.210 -23.559  0.00  0.00    +0.000 C 
ENDROOT
BRANCH   1   8
ATOM      7  O   UNL     1      34.928 -15.486 -20.183  0.00  0.00    -0.245 OA
ATOM      8  C   UNL     1      34.082 -16.028 -20.895  0.00  0.00    +0.342 C 
BRANCH   8   9
ATOM      9  O   UNL     1      32.756 -15.678 -20.892  0.00  0.00    -0.441 OA
ATOM     10  C   UNL     1      32.471 -14.274 -20.868  0.00  0.00    +0.256 C 
ENDBRANCH   8   9
ENDBRANCH   1   8
BRANCH   2  12
ATOM     11  O   UNL     1      34.932 -14.543 -23.339  0.00  0.00    -0.245 OA
ATOM     12  C   UNL     1      34.330 -15.534 -23.751  0.00  0.00    +0.342 C 
BRANCH  12  13
ATOM     13  O   UNL     1      33.422 -15.491 -24.780  0.00  0.00    -0.441 OA
ATOM     14  C   UNL     1      33.062 -14.189 -25.255  0.00  0.00    +0.256 C 
ENDBRANCH  12  13
ENDBRANCH   2  12
TORSDOF 4
ENDMDL
MODEL 8
REMARK VINA RESULT:      -6.2      1.977      4.349
REMARK  Name = 8554
REMARK  4 active torsions:
REMARK  status: ('A' for Active; 'I' for Inactive)
REMARK    1  A    between atoms: C_1  and  C_8
REMARK    2  A    between atoms: C_2  and  C_12
REMARK    3  A    between atoms: C_8  and  O_9
REMARK    4  A    between atoms: C_12  and  O_13
REMARK                            x       y       z     vdW  Elec       q    Type
REMARK                         _______ _______ _______ _____ _____    ______ ____
ROOT
ATOM      1  C   UNL     1      33.770 -15.052 -22.949  0.00  0.00    +0.082 C 
ATOM      2  C   UNL     1      33.582 -15.310 -21.591  0.00  0.00    +0.082 C 
ATOM      3  C   UNL     1      33.159 -13.946 -23.540  0.00  0.00    +0.007 C 
ATOM      4  C   UNL     1      32.783 -14.461 -20.824  0.00  0.00    +0.007 C 
ATOM      5  C   UNL     1      32.361 -13.097 -22.772  0.00  0.00    +0.000 C 
ATOM      6  C   UNL     1      32.173 -13.355 -21.414  0.00  0.00    +0.000 C 
ENDROOT
BRANCH   1   8
ATOM      7  O   UNL     1      35.801 -16.092 -23.583  0.00  0.00    -0.245 OA
ATOM      8  C   UNL     1      34.597 -15.920 -23.777  0.00  0.00    +0.342 C 
BRANCH   8   9
ATOM      9  O   UNL     1      33.902 -16.524 -24.794  0.00  0.00    -0.441 OA
ATOM     10  C   UNL     1      34.324 -17.845 -25.152  0.00  0.00    +0.256 C 
ENDBRANCH   8   9
ENDBRANCH   1   8
BRANCH   2  12
ATOM     11  O   UNL     1      35.219 -16.375 -20.252  0.00  0.00    -0.245 OA
ATOM     12  C   UNL     1      34.206 -16.457 -20.945  0.00  0.00    +0.342 C 
BRANCH  12  13
ATOM     13  O   UNL     1      33.552 -17.640 -21.187  0.00  0.00    -0.441 OA
ATOM     14  C   UNL     1      34.377 -18.801 -21.341  0.00  0.00    +0.256 C 
ENDBRANCH  12  13
ENDBRANCH   2  12
TORSDOF 4
ENDMDL
MODEL 9
REMARK VINA RESULT:      -6.2      1.920      3.925
REMARK  Name = 8554
REMARK  4 active torsions:
REMARK  status: ('A' for Active; 'I' for Inactive)
REMARK    1  A    between atoms: C_1  and  C_8
REMARK    2  A    between atoms: C_2  and  C_12
REMARK    3  A    between atoms: C_8  and  O_9
REMARK    4  A    between atoms: C_12  and  O_13
REMARK                            x       y       z     vdW  Elec       q    Type
REMARK                         _______ _______ _______ _____ _____    ______ ____
ROOT
ATOM      1  C   UNL     1      33.647 -15.577 -21.554  0.00  0.00    +0.082 C 
ATOM      2  C   UNL     1      33.816 -15.230 -22.895  0.00  0.00    +0.082 C 
ATOM      3  C   UNL     1      32.852 -14.788 -20.724  0.00  0.00    +0.007 C 
ATOM      4  C   UNL     1      33.190 -14.093 -23.405  0.00  0.00    +0.007 C 
ATOM      5  C   UNL     1      32.224 -13.650 -21.235  0.00  0.00    +0.000 C 
ATOM      6  C   UNL     1      32.394 -13.303 -22.576  0.00  0.00    +0.000 C 
ENDROOT
BRANCH   1   8
ATOM      7  O   UNL     1      35.343 -16.717 -20.358  0.00  0.00    -0.245 OA
ATOM      8  C   UNL     1      34.288 -16.758 -20.991  0.00  0.00    +0.342 C 
BRANCH   8   9
ATOM      9  O   UNL     1      33.600 -17.920 -21.237  0.00  0.00    -0.441 OA
ATOM     10  C   UNL     1      34.383 -19.117 -21.308  0.00  0.00    +0.256 C 
ENDBRANCH   8   9
ENDBRANCH   1   8
BRANCH   2  12
ATOM     11  O   UNL     1      35.859 -16.159 -23.653  0.00  0.00    -0.245 OA
ATOM     12  C   UNL     1      34.641 -16.034 -23.786  0.00  0.00    +0.342 C 
BRANCH  12  13
ATOM     13  O   UNL     1      33.927 -16.640 -24.790  0.00  0.00    -0.441 OA
ATOM     14  C   UNL     1      34.325 -17.970 -25.140  0.00  0.00    +0.256 C 
ENDBRANCH  12  13
ENDBRANCH   2  12
TORSDOF 4
ENDMDL
