MODEL 1
REMARK VINA RESULT:      -9.7      0.000      0.000
REMARK  Name = 5282230
REMARK  7 active torsions:
REMARK  status: ('A' for Active; 'I' for Inactive)
REMARK    1  A    between atoms: N_2  and  C_5
REMARK    2  A    between atoms: C_3  and  C_16
REMARK    3  A    between atoms: C_6  and  C_12
REMARK    4  A    between atoms: C_12  and  O_13
REMARK    5  A    between atoms: C_15  and  C_17
REMARK    6  A    between atoms: C_18  and  O_23
REMARK    7  A    between atoms: C_20  and  O_25
REMARK                            x       y       z     vdW  Elec       q    Type
REMARK                         _______ _______ _______ _____ _____    ______ ____
ROOT
ATOM      1  O   UNL     1      35.694 -16.119 -23.086  0.00  0.00    -0.270 OA
ATOM      2  N   UNL     1      33.451 -15.432 -23.169  0.00  0.00    -0.280 N 
ATOM      3  C   UNL     1      34.509 -16.255 -22.808  0.00  0.00    +0.250 C 
ATOM      4  H   UNL     1      32.560 -15.700 -22.850  0.00  0.00    +0.155 HD
ENDROOT
BRANCH   2   5
ATOM      5  C   UNL     1      33.511 -14.248 -23.944  0.00  0.00    +0.057 C 
ATOM      6  C   UNL     1      33.471 -14.314 -25.328  0.00  0.00    +0.089 C 
ATOM      7  C   UNL     1      33.610 -13.033 -23.284  0.00  0.00    +0.015 C 
ATOM      8  C   UNL     1      33.531 -13.134 -26.070  0.00  0.00    +0.008 C 
ATOM      9  C   UNL     1      33.670 -11.854 -24.026  0.00  0.00    +0.001 C 
ATOM     10  C   UNL     1      33.630 -11.905 -25.420  0.00  0.00    +0.000 C 
BRANCH   6  12
ATOM     11  O   UNL     1      32.386 -15.964 -26.678  0.00  0.00    -0.245 OA
ATOM     12  C   UNL     1      33.369 -15.582 -26.038  0.00  0.00    +0.339 C 
BRANCH  12  13
ATOM     13  O   UNL     1      34.500 -16.330 -25.926  0.00  0.00    -0.477 OA
ATOM     14  H   UNL     1      34.628 -16.876 -25.176  0.00  0.00    +0.295 HD
ENDBRANCH  12  13
ENDBRANCH   6  12
ENDBRANCH   2   5
BRANCH   3  16
ATOM     15  C   UNL     1      34.849 -18.450 -21.713  0.00  0.00    +0.005 C 
ATOM     16  C   UNL     1      34.032 -17.408 -21.983  0.00  0.00    +0.058 C 
BRANCH  15  17
ATOM     17  C   UNL     1      34.484 -19.623 -20.934  0.00  0.00    +0.003 C 
ATOM     18  C   UNL     1      35.125 -21.512 -19.570  0.00  0.00    +0.172 C 
ATOM     19  C   UNL     1      35.476 -20.387 -20.317  0.00  0.00    +0.040 C 
ATOM     20  C   UNL     1      33.785 -21.872 -19.440  0.00  0.00    +0.172 C 
ATOM     21  C   UNL     1      33.143 -19.984 -20.803  0.00  0.00    +0.003 C 
ATOM     22  C   UNL     1      32.793 -21.108 -20.056  0.00  0.00    +0.040 C 
BRANCH  18  23
ATOM     23  O   UNL     1      36.103 -22.249 -18.972  0.00  0.00    -0.468 OA
ATOM     24  C   UNL     1      36.622 -21.760 -17.738  0.00  0.00    +0.253 C 
ENDBRANCH  18  23
BRANCH  20  25
ATOM     25  O   UNL     1      33.430 -22.968 -18.712  0.00  0.00    -0.468 OA
ATOM     26  C   UNL     1      32.807 -22.734 -17.450  0.00  0.00    +0.253 C 
ENDBRANCH  20  25
ENDBRANCH  15  17
ENDBRANCH   3  16
TORSDOF 7
ENDMDL
MODEL 2
REMARK VINA RESULT:      -9.6      4.523      6.956
REMARK  Name = 5282230
REMARK  7 active torsions:
REMARK  status: ('A' for Active; 'I' for Inactive)
REMARK    1  A    between atoms: N_2  and  C_5
REMARK    2  A    between atoms: C_3  and  C_16
REMARK    3  A    between atoms: C_6  and  C_12
REMARK    4  A    between atoms: C_12  and  O_13
REMARK    5  A    between atoms: C_15  and  C_17
REMARK    6  A    between atoms: C_18  and  O_23
REMARK    7  A    between atoms: C_20  and  O_25
REMARK                            x       y       z     vdW  Elec       q    Type
REMARK                         _______ _______ _______ _____ _____    ______ ____
ROOT
ATOM      1  O   UNL     1      30.156 -11.296 -21.661  0.00  0.00    -0.270 OA
ATOM      2  N   UNL     1      32.227 -10.242 -21.994  0.00  0.00    -0.280 N 
ATOM      3  C   UNL     1      31.381 -11.303 -21.704  0.00  0.00    +0.250 C 
ATOM      4  H   UNL     1      33.192 -10.437 -21.983  0.00  0.00    +0.155 HD
ENDROOT
BRANCH   2   5
ATOM      5  C   UNL     1      31.859  -8.910 -22.303  0.00  0.00    +0.057 C 
ATOM      6  C   UNL     1      31.954  -7.915 -21.343  0.00  0.00    +0.089 C 
ATOM      7  C   UNL     1      31.406  -8.634 -23.584  0.00  0.00    +0.015 C 
ATOM      8  C   UNL     1      31.586  -6.610 -21.671  0.00  0.00    +0.008 C 
ATOM      9  C   UNL     1      31.037  -7.329 -23.912  0.00  0.00    +0.001 C 
ATOM     10  C   UNL     1      31.128  -6.317 -22.955  0.00  0.00    +0.000 C 
BRANCH   6  12
ATOM     11  O   UNL     1      32.063  -9.133 -19.287  0.00  0.00    -0.245 OA
ATOM     12  C   UNL     1      32.427  -8.188 -19.992  0.00  0.00    +0.339 C 
BRANCH  12  13
ATOM     13  O   UNL     1      33.338  -7.271 -19.568  0.00  0.00    -0.477 OA
ATOM     14  H   UNL     1      33.184  -6.358 -19.708  0.00  0.00    +0.295 HD
ENDBRANCH  12  13
ENDBRANCH   6  12
ENDBRANCH   2   5
BRANCH   3  16
ATOM     15  C   UNL     1      32.784 -13.208 -22.433  0.00  0.00    +0.005 C 
ATOM     16  C   UNL     1      32.160 -12.550 -21.431  0.00  0.00    +0.058 C 
BRANCH  15  17
ATOM     17  C   UNL     1      33.557 -14.431 -22.280  0.00  0.00    +0.003 C 
ATOM     18  C   UNL     1      34.769 -16.277 -23.261  0.00  0.00    +0.172 C 
ATOM     19  C   UNL     1      34.029 -15.104 -23.408  0.00  0.00    +0.040 C 
ATOM     20  C   UNL     1      35.037 -16.778 -21.987  0.00  0.00    +0.172 C 
ATOM     21  C   UNL     1      33.825 -14.933 -21.006  0.00  0.00    +0.003 C 
ATOM     22  C   UNL     1      34.565 -16.105 -20.859  0.00  0.00    +0.040 C 
BRANCH  18  23
ATOM     23  O   UNL     1      35.226 -16.924 -24.370  0.00  0.00    -0.468 OA
ATOM     24  C   UNL     1      34.282 -17.702 -25.101  0.00  0.00    +0.253 C 
ENDBRANCH  18  23
BRANCH  20  25
ATOM     25  O   UNL     1      35.760 -17.922 -21.831  0.00  0.00    -0.468 OA
ATOM     26  C   UNL     1      35.032 -19.114 -21.540  0.00  0.00    +0.253 C 
ENDBRANCH  20  25
ENDBRANCH  15  17
ENDBRANCH   3  16
TORSDOF 7
ENDMDL
MODEL 3
REMARK VINA RESULT:      -9.5      1.618      2.759
REMARK  Name = 5282230
REMARK  7 active torsions:
REMARK  status: ('A' for Active; 'I' for Inactive)
REMARK    1  A    between atoms: N_2  and  C_5
REMARK    2  A    between atoms: C_3  and  C_16
REMARK    3  A    between atoms: C_6  and  C_12
REMARK    4  A    between atoms: C_12  and  O_13
REMARK    5  A    between atoms: C_15  and  C_17
REMARK    6  A    between atoms: C_18  and  O_23
REMARK    7  A    between atoms: C_20  and  O_25
REMARK                            x       y       z     vdW  Elec       q    Type
REMARK                         _______ _______ _______ _____ _____    ______ ____
ROOT
ATOM      1  O   UNL     1      34.955 -18.359 -24.673  0.00  0.00    -0.270 OA
ATOM      2  N   UNL     1      34.263 -17.064 -22.841  0.00  0.00    -0.280 N 
ATOM      3  C   UNL     1      34.717 -18.210 -23.480  0.00  0.00    +0.250 C 
ATOM      4  H   UNL     1      34.129 -17.131 -21.868  0.00  0.00    +0.155 HD
ENDROOT
BRANCH   2   5
ATOM      5  C   UNL     1      33.972 -15.810 -23.431  0.00  0.00    +0.057 C 
ATOM      6  C   UNL     1      33.852 -14.676 -22.643  0.00  0.00    +0.089 C 
ATOM      7  C   UNL     1      33.811 -15.752 -24.806  0.00  0.00    +0.015 C 
ATOM      8  C   UNL     1      33.565 -13.451 -23.247  0.00  0.00    +0.008 C 
ATOM      9  C   UNL     1      33.524 -14.527 -25.410  0.00  0.00    +0.001 C 
ATOM     10  C   UNL     1      33.401 -13.377 -24.630  0.00  0.00    +0.000 C 
BRANCH   6  12
ATOM     11  O   UNL     1      34.926 -15.299 -20.598  0.00  0.00    -0.245 OA
ATOM     12  C   UNL     1      34.016 -14.719 -21.196  0.00  0.00    +0.339 C 
BRANCH  12  13
ATOM     13  O   UNL     1      33.036 -14.037 -20.544  0.00  0.00    -0.477 OA
ATOM     14  H   UNL     1      33.106 -13.109 -20.432  0.00  0.00    +0.295 HD
ENDBRANCH  12  13
ENDBRANCH   6  12
ENDBRANCH   2   5
BRANCH   3  16
ATOM     15  C   UNL     1      34.160 -19.397 -21.380  0.00  0.00    +0.005 C 
ATOM     16  C   UNL     1      34.906 -19.327 -22.505  0.00  0.00    +0.058 C 
BRANCH  15  17
ATOM     17  C   UNL     1      34.269 -20.432 -20.363  0.00  0.00    +0.003 C 
ATOM     18  C   UNL     1      35.619 -21.741 -18.846  0.00  0.00    +0.172 C 
ATOM     19  C   UNL     1      35.515 -20.748 -19.820  0.00  0.00    +0.040 C 
ATOM     20  C   UNL     1      34.479 -22.417 -18.415  0.00  0.00    +0.172 C 
ATOM     21  C   UNL     1      33.128 -21.109 -19.932  0.00  0.00    +0.003 C 
ATOM     22  C   UNL     1      33.233 -22.101 -18.958  0.00  0.00    +0.040 C 
BRANCH  18  23
ATOM     23  O   UNL     1      36.841 -22.039 -18.323  0.00  0.00    -0.468 OA
ATOM     24  C   UNL     1      37.173 -21.448 -17.069  0.00  0.00    +0.253 C 
ENDBRANCH  18  23
BRANCH  20  25
ATOM     25  O   UNL     1      34.568 -23.388 -17.464  0.00  0.00    -0.468 OA
ATOM     26  C   UNL     1      33.696 -23.276 -16.340  0.00  0.00    +0.253 C 
ENDBRANCH  20  25
ENDBRANCH  15  17
ENDBRANCH   3  16
TORSDOF 7
ENDMDL
MODEL 4
REMARK VINA RESULT:      -9.4      3.127      5.111
REMARK  Name = 5282230
REMARK  7 active torsions:
REMARK  status: ('A' for Active; 'I' for Inactive)
REMARK    1  A    between atoms: N_2  and  C_5
REMARK    2  A    between atoms: C_3  and  C_16
REMARK    3  A    between atoms: C_6  and  C_12
REMARK    4  A    between atoms: C_12  and  O_13
REMARK    5  A    between atoms: C_15  and  C_17
REMARK    6  A    between atoms: C_18  and  O_23
REMARK    7  A    between atoms: C_20  and  O_25
REMARK                            x       y       z     vdW  Elec       q    Type
REMARK                         _______ _______ _______ _____ _____    ______ ____
ROOT
ATOM      1  O   UNL     1      32.392 -20.349 -21.301  0.00  0.00    -0.270 OA
ATOM      2  N   UNL     1      34.574 -19.485 -21.317  0.00  0.00    -0.280 N 
ATOM      3  C   UNL     1      33.505 -20.210 -20.809  0.00  0.00    +0.250 C 
ATOM      4  H   UNL     1      35.399 -19.488 -20.779  0.00  0.00    +0.155 HD
ENDROOT
BRANCH   2   5
ATOM      5  C   UNL     1      34.612 -18.741 -22.522  0.00  0.00    +0.057 C 
ATOM      6  C   UNL     1      34.583 -17.356 -22.491  0.00  0.00    +0.089 C 
ATOM      7  C   UNL     1      34.679 -19.434 -23.720  0.00  0.00    +0.015 C 
ATOM      8  C   UNL     1      34.622 -16.645 -23.691  0.00  0.00    +0.008 C 
ATOM      9  C   UNL     1      34.717 -18.722 -24.920  0.00  0.00    +0.001 C 
ATOM     10  C   UNL     1      34.689 -17.327 -24.904  0.00  0.00    +0.000 C 
BRANCH   6  12
ATOM     11  O   UNL     1      35.284 -16.741 -20.288  0.00  0.00    -0.245 OA
ATOM     12  C   UNL     1      34.511 -16.612 -21.240  0.00  0.00    +0.339 C 
BRANCH  12  13
ATOM     13  O   UNL     1      33.475 -15.730 -21.222  0.00  0.00    -0.477 OA
ATOM     14  H   UNL     1      33.447 -15.027 -21.841  0.00  0.00    +0.295 HD
ENDBRANCH  12  13
ENDBRANCH   6  12
ENDBRANCH   2   5
BRANCH   3  16
ATOM     15  C   UNL     1      35.124 -21.295 -19.282  0.00  0.00    +0.005 C 
ATOM     16  C   UNL     1      33.866 -20.856 -19.509  0.00  0.00    +0.058 C 
BRANCH  15  17
ATOM     17  C   UNL     1      35.578 -21.945 -18.062  0.00  0.00    +0.003 C 
ATOM     18  C   UNL     1      35.131 -23.356 -16.152  0.00  0.00    +0.172 C 
ATOM     19  C   UNL     1      34.696 -22.734 -17.321  0.00  0.00    +0.040 C 
ATOM     20  C   UNL     1      36.447 -23.190 -15.721  0.00  0.00    +0.172 C 
ATOM     21  C   UNL     1      36.894 -21.779 -17.630  0.00  0.00    +0.003 C 
ATOM     22  C   UNL     1      37.329 -22.401 -16.461  0.00  0.00    +0.040 C 
BRANCH  18  23
ATOM     23  O   UNL     1      34.261 -24.124 -15.438  0.00  0.00    -0.468 OA
ATOM     24  C   UNL     1      33.025 -23.523 -15.061  0.00  0.00    +0.253 C 
ENDBRANCH  18  23
BRANCH  20  25
ATOM     25  O   UNL     1      36.884 -23.793 -14.581  0.00  0.00    -0.468 OA
ATOM     26  C   UNL     1      37.753 -24.914 -14.733  0.00  0.00    +0.253 C 
ENDBRANCH  20  25
ENDBRANCH  15  17
ENDBRANCH   3  16
TORSDOF 7
ENDMDL
MODEL 5
REMARK VINA RESULT:      -9.3      2.715      9.828
REMARK  Name = 5282230
REMARK  7 active torsions:
REMARK  status: ('A' for Active; 'I' for Inactive)
REMARK    1  A    between atoms: N_2  and  C_5
REMARK    2  A    between atoms: C_3  and  C_16
REMARK    3  A    between atoms: C_6  and  C_12
REMARK    4  A    between atoms: C_12  and  O_13
REMARK    5  A    between atoms: C_15  and  C_17
REMARK    6  A    between atoms: C_18  and  O_23
REMARK    7  A    between atoms: C_20  and  O_25
REMARK                            x       y       z     vdW  Elec       q    Type
REMARK                         _______ _______ _______ _____ _____    ______ ____
ROOT
ATOM      1  O   UNL     1      34.176 -23.330 -19.490  0.00  0.00    -0.270 OA
ATOM      2  N   UNL     1      35.180 -21.969 -17.862  0.00  0.00    -0.280 N 
ATOM      3  C   UNL     1      34.755 -22.308 -19.139  0.00  0.00    +0.250 C 
ATOM      4  H   UNL     1      35.630 -21.098 -17.768  0.00  0.00    +0.155 HD
ENDROOT
BRANCH   2   5
ATOM      5  C   UNL     1      35.041 -22.734 -16.678  0.00  0.00    +0.057 C 
ATOM      6  C   UNL     1      36.134 -22.963 -15.858  0.00  0.00    +0.089 C 
ATOM      7  C   UNL     1      33.789 -23.243 -16.368  0.00  0.00    +0.015 C 
ATOM      8  C   UNL     1      35.972 -23.720 -14.698  0.00  0.00    +0.008 C 
ATOM      9  C   UNL     1      33.627 -24.000 -15.207  0.00  0.00    +0.001 C 
ATOM     10  C   UNL     1      34.719 -24.238 -14.372  0.00  0.00    +0.000 C 
BRANCH   6  12
ATOM     11  O   UNL     1      37.689 -21.318 -16.633  0.00  0.00    -0.245 OA
ATOM     12  C   UNL     1      37.457 -22.438 -16.170  0.00  0.00    +0.339 C 
BRANCH  12  13
ATOM     13  O   UNL     1      38.446 -23.330 -15.893  0.00  0.00    -0.477 OA
ATOM     14  H   UNL     1      39.343 -23.078 -15.985  0.00  0.00    +0.295 HD
ENDBRANCH  12  13
ENDBRANCH   6  12
ENDBRANCH   2   5
BRANCH   3  16
ATOM     15  C   UNL     1      34.168 -20.306 -20.472  0.00  0.00    +0.005 C 
ATOM     16  C   UNL     1      35.090 -21.230 -20.119  0.00  0.00    +0.058 C 
BRANCH  15  17
ATOM     17  C   UNL     1      34.385 -19.224 -21.421  0.00  0.00    +0.003 C 
ATOM     18  C   UNL     1      34.367 -16.866 -21.946  0.00  0.00    +0.172 C 
ATOM     19  C   UNL     1      34.159 -17.902 -21.036  0.00  0.00    +0.040 C 
ATOM     20  C   UNL     1      34.800 -17.151 -23.240  0.00  0.00    +0.172 C 
ATOM     21  C   UNL     1      34.818 -19.509 -22.716  0.00  0.00    +0.003 C 
ATOM     22  C   UNL     1      35.026 -18.473 -23.625  0.00  0.00    +0.040 C 
BRANCH  18  23
ATOM     23  O   UNL     1      34.143 -15.579 -21.557  0.00  0.00    -0.468 OA
ATOM     24  C   UNL     1      32.795 -15.117 -21.591  0.00  0.00    +0.253 C 
ENDBRANCH  18  23
BRANCH  20  25
ATOM     25  O   UNL     1      35.006 -16.147 -24.137  0.00  0.00    -0.468 OA
ATOM     26  C   UNL     1      34.077 -16.038 -25.214  0.00  0.00    +0.253 C 
ENDBRANCH  20  25
ENDBRANCH  15  17
ENDBRANCH   3  16
TORSDOF 7
ENDMDL
MODEL 6
REMARK VINA RESULT:      -9.3      3.299      5.063
REMARK  Name = 5282230
REMARK  7 active torsions:
REMARK  status: ('A' for Active; 'I' for Inactive)
REMARK    1  A    between atoms: N_2  and  C_5
REMARK    2  A    between atoms: C_3  and  C_16
REMARK    3  A    between atoms: C_6  and  C_12
REMARK    4  A    between atoms: C_12  and  O_13
REMARK    5  A    between atoms: C_15  and  C_17
REMARK    6  A    between atoms: C_18  and  O_23
REMARK    7  A    between atoms: C_20  and  O_25
REMARK                            x       y       z     vdW  Elec       q    Type
REMARK                         _______ _______ _______ _____ _____    ______ ____
ROOT
ATOM      1  O   UNL     1      37.051 -19.685 -20.933  0.00  0.00    -0.270 OA
ATOM      2  N   UNL     1      34.757 -19.595 -21.426  0.00  0.00    -0.280 N 
ATOM      3  C   UNL     1      35.883 -19.984 -20.713  0.00  0.00    +0.250 C 
ATOM      4  H   UNL     1      33.894 -19.935 -21.098  0.00  0.00    +0.155 HD
ENDROOT
BRANCH   2   5
ATOM      5  C   UNL     1      34.711 -18.764 -22.572  0.00  0.00    +0.057 C 
ATOM      6  C   UNL     1      34.556 -17.394 -22.437  0.00  0.00    +0.089 C 
ATOM      7  C   UNL     1      34.823 -19.357 -23.819  0.00  0.00    +0.015 C 
ATOM      8  C   UNL     1      34.513 -16.595 -23.581  0.00  0.00    +0.008 C 
ATOM      9  C   UNL     1      34.780 -18.559 -24.963  0.00  0.00    +0.001 C 
ATOM     10  C   UNL     1      34.626 -17.177 -24.843  0.00  0.00    +0.000 C 
BRANCH   6  12
ATOM     11  O   UNL     1      35.327 -16.692 -20.284  0.00  0.00    -0.245 OA
ATOM     12  C   UNL     1      34.435 -16.754 -21.134  0.00  0.00    +0.339 C 
BRANCH  12  13
ATOM     13  O   UNL     1      33.203 -16.212 -20.937  0.00  0.00    -0.477 OA
ATOM     14  H   UNL     1      32.569 -16.665 -20.417  0.00  0.00    +0.295 HD
ENDBRANCH  12  13
ENDBRANCH   6  12
ENDBRANCH   2   5
BRANCH   3  16
ATOM     15  C   UNL     1      36.441 -21.258 -18.664  0.00  0.00    +0.005 C 
ATOM     16  C   UNL     1      35.511 -20.866 -19.564  0.00  0.00    +0.058 C 
BRANCH  15  17
ATOM     17  C   UNL     1      36.189 -22.120 -17.520  0.00  0.00    +0.003 C 
ATOM     18  C   UNL     1      36.977 -23.235 -15.526  0.00  0.00    +0.172 C 
ATOM     19  C   UNL     1      37.219 -22.408 -16.623  0.00  0.00    +0.040 C 
ATOM     20  C   UNL     1      35.707 -23.775 -15.326  0.00  0.00    +0.172 C 
ATOM     21  C   UNL     1      34.918 -22.660 -17.319  0.00  0.00    +0.003 C 
ATOM     22  C   UNL     1      34.677 -23.486 -16.222  0.00  0.00    +0.040 C 
BRANCH  18  23
ATOM     23  O   UNL     1      37.991 -23.508 -14.658  0.00  0.00    -0.468 OA
ATOM     24  C   UNL     1      38.728 -24.708 -14.878  0.00  0.00    +0.253 C 
ENDBRANCH  18  23
BRANCH  20  25
ATOM     25  O   UNL     1      35.459 -24.583 -14.258  0.00  0.00    -0.468 OA
ATOM     26  C   UNL     1      34.846 -23.982 -13.119  0.00  0.00    +0.253 C 
ENDBRANCH  20  25
ENDBRANCH  15  17
ENDBRANCH   3  16
TORSDOF 7
ENDMDL
MODEL 7
REMARK VINA RESULT:      -9.3      4.796      7.899
REMARK  Name = 5282230
REMARK  7 active torsions:
REMARK  status: ('A' for Active; 'I' for Inactive)
REMARK    1  A    between atoms: N_2  and  C_5
REMARK    2  A    between atoms: C_3  and  C_16
REMARK    3  A    between atoms: C_6  and  C_12
REMARK    4  A    between atoms: C_12  and  O_13
REMARK    5  A    between atoms: C_15  and  C_17
REMARK    6  A    between atoms: C_18  and  O_23
REMARK    7  A    between atoms: C_20  and  O_25
REMARK                            x       y       z     vdW  Elec       q    Type
REMARK                         _______ _______ _______ _____ _____    ______ ____
ROOT
ATOM      1  O   UNL     1      34.804  -8.268 -24.287  0.00  0.00    -0.270 OA
ATOM      2  N   UNL     1      32.806  -8.927 -23.247  0.00  0.00    -0.280 N 
ATOM      3  C   UNL     1      34.030  -9.122 -23.871  0.00  0.00    +0.250 C 
ATOM      4  H   UNL     1      32.319  -9.739 -22.978  0.00  0.00    +0.155 HD
ENDROOT
BRANCH   2   5
ATOM      5  C   UNL     1      32.178  -7.692 -22.953  0.00  0.00    +0.057 C 
ATOM      6  C   UNL     1      32.045  -7.268 -21.640  0.00  0.00    +0.089 C 
ATOM      7  C   UNL     1      31.706  -6.927 -24.008  0.00  0.00    +0.015 C 
ATOM      8  C   UNL     1      31.423  -6.048 -21.376  0.00  0.00    +0.008 C 
ATOM      9  C   UNL     1      31.083  -5.707 -23.743  0.00  0.00    +0.001 C 
ATOM     10  C   UNL     1      30.943  -5.267 -22.426  0.00  0.00    +0.000 C 
BRANCH   6  12
ATOM     11  O   UNL     1      32.360  -9.273 -20.373  0.00  0.00    -0.245 OA
ATOM     12  C   UNL     1      32.534  -8.060 -20.519  0.00  0.00    +0.339 C 
BRANCH  12  13
ATOM     13  O   UNL     1      33.224  -7.310 -19.618  0.00  0.00    -0.477 OA
ATOM     14  H   UNL     1      33.830  -6.661 -19.916  0.00  0.00    +0.295 HD
ENDBRANCH  12  13
ENDBRANCH   6  12
ENDBRANCH   2   5
BRANCH   3  16
ATOM     15  C   UNL     1      33.388 -11.511 -23.775  0.00  0.00    +0.005 C 
ATOM     16  C   UNL     1      34.342 -10.579 -23.997  0.00  0.00    +0.058 C 
BRANCH  15  17
ATOM     17  C   UNL     1      33.586 -12.950 -23.860  0.00  0.00    +0.003 C 
ATOM     18  C   UNL     1      34.332 -15.022 -22.865  0.00  0.00    +0.172 C 
ATOM     19  C   UNL     1      34.142 -13.642 -22.783  0.00  0.00    +0.040 C 
ATOM     20  C   UNL     1      33.967 -15.709 -24.022  0.00  0.00    +0.172 C 
ATOM     21  C   UNL     1      33.221 -13.638 -25.017  0.00  0.00    +0.003 C 
ATOM     22  C   UNL     1      33.411 -15.016 -25.099  0.00  0.00    +0.040 C 
BRANCH  18  23
ATOM     23  O   UNL     1      34.875 -15.686 -21.807  0.00  0.00    -0.468 OA
ATOM     24  C   UNL     1      34.382 -15.355 -20.511  0.00  0.00    +0.253 C 
ENDBRANCH  18  23
BRANCH  20  25
ATOM     25  O   UNL     1      34.147 -17.056 -24.113  0.00  0.00    -0.468 OA
ATOM     26  C   UNL     1      34.599 -17.566 -25.366  0.00  0.00    +0.253 C 
ENDBRANCH  20  25
ENDBRANCH  15  17
ENDBRANCH   3  16
TORSDOF 7
ENDMDL
MODEL 8
REMARK VINA RESULT:      -9.2      2.998      4.705
REMARK  Name = 5282230
REMARK  7 active torsions:
REMARK  status: ('A' for Active; 'I' for Inactive)
REMARK    1  A    between atoms: N_2  and  C_5
REMARK    2  A    between atoms: C_3  and  C_16
REMARK    3  A    between atoms: C_6  and  C_12
REMARK    4  A    between atoms: C_12  and  O_13
REMARK    5  A    between atoms: C_15  and  C_17
REMARK    6  A    between atoms: C_18  and  O_23
REMARK    7  A    between atoms: C_20  and  O_25
REMARK                            x       y       z     vdW  Elec       q    Type
REMARK                         _______ _______ _______ _____ _____    ______ ____
ROOT
ATOM      1  O   UNL     1      32.502 -20.064 -21.360  0.00  0.00    -0.270 OA
ATOM      2  N   UNL     1      34.744 -19.412 -21.599  0.00  0.00    -0.280 N 
ATOM      3  C   UNL     1      33.676 -20.075 -21.010  0.00  0.00    +0.250 C 
ATOM      4  H   UNL     1      35.624 -19.541 -21.177  0.00  0.00    +0.155 HD
ENDROOT
BRANCH   2   5
ATOM      5  C   UNL     1      34.710 -18.570 -22.737  0.00  0.00    +0.057 C 
ATOM      6  C   UNL     1      34.707 -17.192 -22.590  0.00  0.00    +0.089 C 
ATOM      7  C   UNL     1      34.681 -19.160 -23.991  0.00  0.00    +0.015 C 
ATOM      8  C   UNL     1      34.673 -16.383 -23.726  0.00  0.00    +0.008 C 
ATOM      9  C   UNL     1      34.648 -18.352 -25.127  0.00  0.00    +0.001 C 
ATOM     10  C   UNL     1      34.644 -16.963 -24.994  0.00  0.00    +0.000 C 
BRANCH   6  12
ATOM     11  O   UNL     1      35.376 -16.957 -20.305  0.00  0.00    -0.245 OA
ATOM     12  C   UNL     1      34.735 -16.555 -21.280  0.00  0.00    +0.339 C 
BRANCH  12  13
ATOM     13  O   UNL     1      33.961 -15.437 -21.232  0.00  0.00    -0.477 OA
ATOM     14  H   UNL     1      33.844 -14.983 -20.421  0.00  0.00    +0.295 HD
ENDBRANCH  12  13
ENDBRANCH   6  12
ENDBRANCH   2   5
BRANCH   3  16
ATOM     15  C   UNL     1      33.245 -21.605 -19.112  0.00  0.00    +0.005 C 
ATOM     16  C   UNL     1      34.125 -20.867 -19.824  0.00  0.00    +0.058 C 
BRANCH  15  17
ATOM     17  C   UNL     1      33.574 -22.401 -17.939  0.00  0.00    +0.003 C 
ATOM     18  C   UNL     1      35.217 -23.300 -16.413  0.00  0.00    +0.172 C 
ATOM     19  C   UNL     1      34.903 -22.536 -17.537  0.00  0.00    +0.040 C 
ATOM     20  C   UNL     1      34.203 -23.928 -15.691  0.00  0.00    +0.172 C 
ATOM     21  C   UNL     1      32.560 -23.030 -17.216  0.00  0.00    +0.003 C 
ATOM     22  C   UNL     1      32.874 -23.792 -16.092  0.00  0.00    +0.040 C 
BRANCH  18  23
ATOM     23  O   UNL     1      36.519 -23.423 -16.030  0.00  0.00    -0.468 OA
ATOM     24  C   UNL     1      37.390 -22.335 -16.331  0.00  0.00    +0.253 C 
ENDBRANCH  18  23
BRANCH  20  25
ATOM     25  O   UNL     1      34.498 -24.675 -14.591  0.00  0.00    -0.468 OA
ATOM     26  C   UNL     1      34.315 -24.056 -13.318  0.00  0.00    +0.253 C 
ENDBRANCH  20  25
ENDBRANCH  15  17
ENDBRANCH   3  16
TORSDOF 7
ENDMDL
MODEL 9
REMARK VINA RESULT:      -9.2      3.458      5.621
REMARK  Name = 5282230
REMARK  7 active torsions:
REMARK  status: ('A' for Active; 'I' for Inactive)
REMARK    1  A    between atoms: N_2  and  C_5
REMARK    2  A    between atoms: C_3  and  C_16
REMARK    3  A    between atoms: C_6  and  C_12
REMARK    4  A    between atoms: C_12  and  O_13
REMARK    5  A    between atoms: C_15  and  C_17
REMARK    6  A    between atoms: C_18  and  O_23
REMARK    7  A    between atoms: C_20  and  O_25
REMARK                            x       y       z     vdW  Elec       q    Type
REMARK                         _______ _______ _______ _____ _____    ______ ____
ROOT
ATOM      1  O   UNL     1      33.435 -11.650 -25.794  0.00  0.00    -0.270 OA
ATOM      2  N   UNL     1      33.984 -11.118 -23.575  0.00  0.00    -0.280 N 
ATOM      3  C   UNL     1      33.780 -11.959 -24.660  0.00  0.00    +0.250 C 
ATOM      4  H   UNL     1      34.264 -11.548 -22.735  0.00  0.00    +0.155 HD
ENDROOT
BRANCH   2   5
ATOM      5  C   UNL     1      33.836  -9.710 -23.540  0.00  0.00    +0.057 C 
ATOM      6  C   UNL     1      32.816  -9.131 -22.802  0.00  0.00    +0.089 C 
ATOM      7  C   UNL     1      34.733  -8.936 -24.260  0.00  0.00    +0.015 C 
ATOM      8  C   UNL     1      32.690  -7.741 -22.783  0.00  0.00    +0.008 C 
ATOM      9  C   UNL     1      34.607  -7.547 -24.241  0.00  0.00    +0.001 C 
ATOM     10  C   UNL     1      33.585  -6.950 -23.501  0.00  0.00    +0.000 C 
BRANCH   6  12
ATOM     11  O   UNL     1      31.222 -10.885 -22.483  0.00  0.00    -0.245 OA
ATOM     12  C   UNL     1      31.864  -9.928 -22.041  0.00  0.00    +0.339 C 
BRANCH  12  13
ATOM     13  O   UNL     1      31.745  -9.504 -20.754  0.00  0.00    -0.477 OA
ATOM     14  H   UNL     1      31.762 -10.125 -20.053  0.00  0.00    +0.295 HD
ENDBRANCH  12  13
ENDBRANCH   6  12
ENDBRANCH   2   5
BRANCH   3  16
ATOM     15  C   UNL     1      34.234 -13.739 -22.999  0.00  0.00    +0.005 C 
ATOM     16  C   UNL     1      34.042 -13.384 -24.289  0.00  0.00    +0.058 C 
BRANCH  15  17
ATOM     17  C   UNL     1      34.506 -15.089 -22.532  0.00  0.00    +0.003 C 
ATOM     18  C   UNL     1      35.127 -17.378 -22.993  0.00  0.00    +0.172 C 
ATOM     19  C   UNL     1      34.867 -16.083 -23.442  0.00  0.00    +0.040 C 
ATOM     20  C   UNL     1      35.025 -17.680 -21.636  0.00  0.00    +0.172 C 
ATOM     21  C   UNL     1      34.404 -15.392 -21.173  0.00  0.00    +0.003 C 
ATOM     22  C   UNL     1      34.664 -16.686 -20.726  0.00  0.00    +0.040 C 
BRANCH  18  23
ATOM     23  O   UNL     1      35.479 -18.340 -23.892  0.00  0.00    -0.468 OA
ATOM     24  C   UNL     1      34.445 -18.864 -24.721  0.00  0.00    +0.253 C 
ENDBRANCH  18  23
BRANCH  20  25
ATOM     25  O   UNL     1      35.277 -18.940 -21.186  0.00  0.00    -0.468 OA
ATOM     26  C   UNL     1      34.149 -19.772 -20.920  0.00  0.00    +0.253 C 
ENDBRANCH  20  25
ENDBRANCH  15  17
ENDBRANCH   3  16
TORSDOF 7
ENDMDL
