MODEL 1
REMARK VINA RESULT:     -12.3      0.000      0.000
REMARK  Name = 118598754
REMARK  1 active torsions:
REMARK  status: ('A' for Active; 'I' for Inactive)
REMARK    1  A    between atoms: C_15  and  N_19
REMARK                            x       y       z     vdW  Elec       q    Type
REMARK                         _______ _______ _______ _____ _____    ______ ____
ROOT
ATOM      1  O   UNL     1      31.963 -24.642 -13.205  0.00  0.00    -0.269 OA
ATOM      2  O   UNL     1      36.538 -23.160 -16.513  0.00  0.00    -0.268 OA
ATOM      3  N   UNL     1      34.716 -23.751 -15.198  0.00  0.00    -0.238 N 
ATOM      4  N   UNL     1      34.301 -24.612 -13.109  0.00  0.00    -0.288 N 
ATOM      5  C   UNL     1      35.409 -24.227 -13.975  0.00  0.00    +0.124 C 
ATOM      6  C   UNL     1      36.291 -25.456 -14.271  0.00  0.00    +0.038 C 
ATOM      7  C   UNL     1      36.221 -23.097 -13.313  0.00  0.00    +0.038 C 
ATOM      8  C   UNL     1      37.016 -23.579 -12.097  0.00  0.00    +0.003 C 
ATOM      9  C   UNL     1      37.085 -25.918 -13.049  0.00  0.00    +0.003 C 
ATOM     10  C   UNL     1      37.894 -24.778 -12.439  0.00  0.00    +0.000 C 
ATOM     11  C   UNL     1      33.345 -23.856 -15.039  0.00  0.00    +0.105 C 
ATOM     12  C   UNL     1      33.055 -24.412 -13.691  0.00  0.00    +0.260 C 
ATOM     13  C   UNL     1      35.323 -23.265 -16.350  0.00  0.00    +0.267 C 
ATOM     14  C   UNL     1      32.489 -23.490 -16.005  0.00  0.00    -0.002 C 
ATOM     15  C   UNL     1      34.379 -22.848 -17.447  0.00  0.00    +0.104 C 
ATOM     16  C   UNL     1      33.057 -22.972 -17.238  0.00  0.00    +0.016 C 
ATOM     17  C   UNL     1      30.992 -23.552 -15.961  0.00  0.00    +0.033 C 
ATOM     18  H   UNL     1      34.421 -24.977 -12.203  0.00  0.00    +0.151 HD
ENDROOT
BRANCH  15  19
ATOM     19  N   UNL     1      34.949 -22.368 -18.590  0.00  0.00    -0.298 N 
ATOM     20  N   UNL     1      33.146 -21.173 -19.550  0.00  0.00    -0.233 NA
ATOM     21  N   UNL     1      33.593 -19.388 -21.106  0.00  0.00    -0.234 NA
ATOM     22  C   UNL     1      34.479 -21.360 -19.439  0.00  0.00    +0.113 C 
ATOM     23  C   UNL     1      35.417 -20.613 -20.121  0.00  0.00    +0.121 C 
ATOM     24  C   UNL     1      34.911 -19.630 -20.948  0.00  0.00    +0.107 C 
ATOM     25  C   UNL     1      32.779 -20.184 -20.387  0.00  0.00    +0.252 C 
ATOM     26  H   UNL     1      35.803 -22.783 -18.849  0.00  0.00    +0.153 HD
ATOM     27  N   UNL     1      35.843 -18.842 -21.667  0.00  0.00    -0.346 N 
ATOM     28  H   UNL     1      35.525 -18.130 -22.269  0.00  0.00    +0.143 HD
ATOM     29  H   UNL     1      36.809 -19.005 -21.565  0.00  0.00    +0.143 HD
ENDBRANCH  15  19
TORSDOF 1
ENDMDL
MODEL 2
REMARK VINA RESULT:     -10.6      6.644     10.147
REMARK  Name = 118598754
REMARK  1 active torsions:
REMARK  status: ('A' for Active; 'I' for Inactive)
REMARK    1  A    between atoms: C_15  and  N_19
REMARK                            x       y       z     vdW  Elec       q    Type
REMARK                         _______ _______ _______ _____ _____    ______ ____
ROOT
ATOM      1  O   UNL     1      34.619 -18.518 -25.517  0.00  0.00    -0.269 OA
ATOM      2  O   UNL     1      34.275 -16.183 -20.179  0.00  0.00    -0.268 OA
ATOM      3  N   UNL     1      34.413 -17.110 -22.304  0.00  0.00    -0.238 N 
ATOM      4  N   UNL     1      34.958 -19.117 -23.281  0.00  0.00    -0.288 N 
ATOM      5  C   UNL     1      34.857 -18.488 -21.970  0.00  0.00    +0.124 C 
ATOM      6  C   UNL     1      36.237 -18.482 -21.285  0.00  0.00    +0.038 C 
ATOM      7  C   UNL     1      33.806 -19.224 -21.116  0.00  0.00    +0.038 C 
ATOM      8  C   UNL     1      34.273 -20.616 -20.684  0.00  0.00    +0.003 C 
ATOM      9  C   UNL     1      36.683 -19.879 -20.851  0.00  0.00    +0.003 C 
ATOM     10  C   UNL     1      35.628 -20.564 -19.987  0.00  0.00    +0.000 C 
ATOM     11  C   UNL     1      34.276 -16.975 -23.676  0.00  0.00    +0.105 C 
ATOM     12  C   UNL     1      34.625 -18.265 -24.327  0.00  0.00    +0.260 C 
ATOM     13  C   UNL     1      34.163 -16.086 -21.400  0.00  0.00    +0.267 C 
ATOM     14  C   UNL     1      33.887 -15.822 -24.238  0.00  0.00    -0.002 C 
ATOM     15  C   UNL     1      33.723 -14.782 -22.012  0.00  0.00    +0.104 C 
ATOM     16  C   UNL     1      33.608 -14.706 -23.350  0.00  0.00    +0.016 C 
ATOM     17  C   UNL     1      33.700 -15.544 -25.699  0.00  0.00    +0.033 C 
ATOM     18  H   UNL     1      35.234 -20.053 -23.414  0.00  0.00    +0.151 HD
ENDROOT
BRANCH  15  19
ATOM     19  N   UNL     1      33.472 -13.758 -21.146  0.00  0.00    -0.298 N 
ATOM     20  N   UNL     1      32.246 -12.270 -22.519  0.00  0.00    -0.233 NA
ATOM     21  N   UNL     1      30.756 -10.669 -21.507  0.00  0.00    -0.234 NA
ATOM     22  C   UNL     1      32.552 -12.712 -21.280  0.00  0.00    +0.113 C 
ATOM     23  C   UNL     1      32.010 -12.189 -20.124  0.00  0.00    +0.121 C 
ATOM     24  C   UNL     1      31.108 -11.159 -20.300  0.00  0.00    +0.107 C 
ATOM     25  C   UNL     1      31.353 -11.262 -22.558  0.00  0.00    +0.252 C 
ATOM     26  H   UNL     1      34.006 -13.756 -20.319  0.00  0.00    +0.153 HD
ATOM     27  N   UNL     1      30.531 -10.593 -19.137  0.00  0.00    -0.346 N 
ATOM     28  H   UNL     1      29.882  -9.857 -19.216  0.00  0.00    +0.143 HD
ATOM     29  H   UNL     1      30.777 -10.938 -18.247  0.00  0.00    +0.143 HD
ENDBRANCH  15  19
TORSDOF 1
ENDMDL
MODEL 3
REMARK VINA RESULT:      -9.9     10.743     15.688
REMARK  Name = 118598754
REMARK  1 active torsions:
REMARK  status: ('A' for Active; 'I' for Inactive)
REMARK    1  A    between atoms: C_15  and  N_19
REMARK                            x       y       z     vdW  Elec       q    Type
REMARK                         _______ _______ _______ _____ _____    ______ ____
ROOT
ATOM      1  O   UNL     1      35.061  -7.004 -24.965  0.00  0.00    -0.269 OA
ATOM      2  O   UNL     1      31.329 -10.277 -21.895  0.00  0.00    -0.268 OA
ATOM      3  N   UNL     1      32.814  -8.976 -23.119  0.00  0.00    -0.238 N 
ATOM      4  N   UNL     1      33.299  -6.754 -23.446  0.00  0.00    -0.288 N 
ATOM      5  C   UNL     1      32.389  -7.616 -22.700  0.00  0.00    +0.124 C 
ATOM      6  C   UNL     1      30.935  -7.327 -23.121  0.00  0.00    +0.038 C 
ATOM      7  C   UNL     1      32.592  -7.405 -21.187  0.00  0.00    +0.038 C 
ATOM      8  C   UNL     1      32.083  -6.042 -20.712  0.00  0.00    +0.003 C 
ATOM      9  C   UNL     1      30.440  -5.967 -22.629  0.00  0.00    +0.003 C 
ATOM     10  C   UNL     1      30.634  -5.807 -21.124  0.00  0.00    +0.000 C 
ATOM     11  C   UNL     1      33.865  -8.890 -24.016  0.00  0.00    +0.105 C 
ATOM     12  C   UNL     1      34.195  -7.458 -24.240  0.00  0.00    +0.260 C 
ATOM     13  C   UNL     1      32.260 -10.176 -22.692  0.00  0.00    +0.267 C 
ATOM     14  C   UNL     1      34.433  -9.983 -24.547  0.00  0.00    -0.002 C 
ATOM     15  C   UNL     1      32.885 -11.416 -23.278  0.00  0.00    +0.104 C 
ATOM     16  C   UNL     1      33.903 -11.274 -24.145  0.00  0.00    +0.016 C 
ATOM     17  C   UNL     1      35.570 -10.029 -25.523  0.00  0.00    +0.033 C 
ATOM     18  H   UNL     1      33.282  -5.771 -23.391  0.00  0.00    +0.151 HD
ENDROOT
BRANCH  15  19
ATOM     19  N   UNL     1      32.359 -12.609 -22.876  0.00  0.00    -0.298 N 
ATOM     20  N   UNL     1      34.114 -14.102 -23.414  0.00  0.00    -0.233 NA
ATOM     21  N   UNL     1      34.283 -16.209 -22.256  0.00  0.00    -0.234 NA
ATOM     22  C   UNL     1      33.019 -13.826 -22.674  0.00  0.00    +0.113 C 
ATOM     23  C   UNL     1      32.503 -14.680 -21.721  0.00  0.00    +0.121 C 
ATOM     24  C   UNL     1      33.183 -15.869 -21.553  0.00  0.00    +0.107 C 
ATOM     25  C   UNL     1      34.689 -15.293 -23.156  0.00  0.00    +0.252 C 
ATOM     26  H   UNL     1      31.389 -12.614 -22.705  0.00  0.00    +0.153 HD
ATOM     27  N   UNL     1      32.683 -16.774 -20.586  0.00  0.00    -0.346 N 
ATOM     28  H   UNL     1      33.138 -17.634 -20.433  0.00  0.00    +0.143 HD
ATOM     29  H   UNL     1      31.880 -16.544 -20.063  0.00  0.00    +0.143 HD
ENDBRANCH  15  19
TORSDOF 1
ENDMDL
MODEL 4
REMARK VINA RESULT:      -9.5      2.758      6.615
REMARK  Name = 118598754
REMARK  1 active torsions:
REMARK  status: ('A' for Active; 'I' for Inactive)
REMARK    1  A    between atoms: C_15  and  N_19
REMARK                            x       y       z     vdW  Elec       q    Type
REMARK                         _______ _______ _______ _____ _____    ______ ____
ROOT
ATOM      1  O   UNL     1      32.320 -21.658 -19.308  0.00  0.00    -0.269 OA
ATOM      2  O   UNL     1      34.198 -24.021 -14.313  0.00  0.00    -0.268 OA
ATOM      3  N   UNL     1      33.452 -23.082 -16.302  0.00  0.00    -0.238 N 
ATOM      4  N   UNL     1      31.464 -22.653 -17.371  0.00  0.00    -0.288 N 
ATOM      5  C   UNL     1      31.984 -23.234 -16.139  0.00  0.00    +0.124 C 
ATOM      6  C   UNL     1      31.579 -24.718 -16.050  0.00  0.00    +0.038 C 
ATOM      7  C   UNL     1      31.467 -22.434 -14.926  0.00  0.00    +0.038 C 
ATOM      8  C   UNL     1      29.971 -22.641 -14.682  0.00  0.00    +0.003 C 
ATOM      9  C   UNL     1      30.083 -24.905 -15.796  0.00  0.00    +0.003 C 
ATOM     10  C   UNL     1      29.617 -24.119 -14.574  0.00  0.00    +0.000 C 
ATOM     11  C   UNL     1      33.735 -22.472 -17.512  0.00  0.00    +0.105 C 
ATOM     12  C   UNL     1      32.460 -22.186 -18.220  0.00  0.00    +0.260 C 
ATOM     13  C   UNL     1      34.424 -23.481 -15.393  0.00  0.00    +0.267 C 
ATOM     14  C   UNL     1      34.993 -22.220 -17.901  0.00  0.00    -0.002 C 
ATOM     15  C   UNL     1      35.846 -23.206 -15.812  0.00  0.00    +0.104 C 
ATOM     16  C   UNL     1      36.063 -22.612 -16.999  0.00  0.00    +0.016 C 
ATOM     17  C   UNL     1      35.435 -21.570 -19.178  0.00  0.00    +0.033 C 
ATOM     18  H   UNL     1      30.504 -22.596 -17.582  0.00  0.00    +0.151 HD
ENDROOT
BRANCH  15  19
ATOM     19  N   UNL     1      36.821 -23.589 -14.938  0.00  0.00    -0.298 N 
ATOM     20  N   UNL     1      36.755 -25.944 -15.161  0.00  0.00    -0.233 NA
ATOM     21  N   UNL     1      38.700 -27.250 -14.597  0.00  0.00    -0.234 NA
ATOM     22  C   UNL     1      37.448 -24.835 -14.827  0.00  0.00    +0.113 C 
ATOM     23  C   UNL     1      38.752 -24.853 -14.376  0.00  0.00    +0.121 C 
ATOM     24  C   UNL     1      39.333 -26.101 -14.280  0.00  0.00    +0.107 C 
ATOM     25  C   UNL     1      37.432 -27.101 -15.024  0.00  0.00    +0.252 C 
ATOM     26  H   UNL     1      37.124 -22.899 -14.305  0.00  0.00    +0.153 HD
ATOM     27  N   UNL     1      40.671 -26.162 -13.817  0.00  0.00    -0.346 N 
ATOM     28  H   UNL     1      41.124 -27.032 -13.734  0.00  0.00    +0.143 HD
ATOM     29  H   UNL     1      41.149 -25.334 -13.580  0.00  0.00    +0.143 HD
ENDBRANCH  15  19
TORSDOF 1
ENDMDL
MODEL 5
REMARK VINA RESULT:      -9.5      1.717      4.186
REMARK  Name = 118598754
REMARK  1 active torsions:
REMARK  status: ('A' for Active; 'I' for Inactive)
REMARK    1  A    between atoms: C_15  and  N_19
REMARK                            x       y       z     vdW  Elec       q    Type
REMARK                         _______ _______ _______ _____ _____    ______ ____
ROOT
ATOM      1  O   UNL     1      33.681 -23.911 -12.643  0.00  0.00    -0.269 OA
ATOM      2  O   UNL     1      32.287 -22.906 -18.221  0.00  0.00    -0.268 OA
ATOM      3  N   UNL     1      32.843 -23.304 -16.001  0.00  0.00    -0.238 N 
ATOM      4  N   UNL     1      31.801 -23.877 -14.036  0.00  0.00    -0.288 N 
ATOM      5  C   UNL     1      31.505 -23.616 -15.439  0.00  0.00    +0.124 C 
ATOM      6  C   UNL     1      30.552 -22.411 -15.556  0.00  0.00    +0.038 C 
ATOM      7  C   UNL     1      30.902 -24.877 -16.089  0.00  0.00    +0.038 C 
ATOM      8  C   UNL     1      29.486 -25.174 -15.592  0.00  0.00    +0.003 C 
ATOM      9  C   UNL     1      29.139 -22.729 -15.064  0.00  0.00    +0.003 C 
ATOM     10  C   UNL     1      28.569 -23.967 -15.749  0.00  0.00    +0.000 C 
ATOM     11  C   UNL     1      33.805 -23.382 -15.009  0.00  0.00    +0.105 C 
ATOM     12  C   UNL     1      33.150 -23.752 -13.727  0.00  0.00    +0.260 C 
ATOM     13  C   UNL     1      33.123 -22.979 -17.323  0.00  0.00    +0.267 C 
ATOM     14  C   UNL     1      35.101 -23.143 -15.258  0.00  0.00    -0.002 C 
ATOM     15  C   UNL     1      34.574 -22.706 -17.623  0.00  0.00    +0.104 C 
ATOM     16  C   UNL     1      35.466 -22.796 -16.621  0.00  0.00    +0.016 C 
ATOM     17  C   UNL     1      36.236 -23.193 -14.280  0.00  0.00    +0.033 C 
ATOM     18  H   UNL     1      31.115 -24.118 -13.372  0.00  0.00    +0.151 HD
ENDROOT
BRANCH  15  19
ATOM     19  N   UNL     1      34.877 -22.383 -18.914  0.00  0.00    -0.298 N 
ATOM     20  N   UNL     1      33.107 -20.910 -19.459  0.00  0.00    -0.233 NA
ATOM     21  N   UNL     1      33.399 -19.299 -21.227  0.00  0.00    -0.234 NA
ATOM     22  C   UNL     1      34.366 -21.338 -19.691  0.00  0.00    +0.113 C 
ATOM     23  C   UNL     1      35.190 -20.805 -20.661  0.00  0.00    +0.121 C 
ATOM     24  C   UNL     1      34.648 -19.777 -21.406  0.00  0.00    +0.107 C 
ATOM     25  C   UNL     1      32.694 -19.902 -20.251  0.00  0.00    +0.252 C 
ATOM     26  H   UNL     1      35.543 -22.960 -19.355  0.00  0.00    +0.153 HD
ATOM     27  N   UNL     1      35.462 -19.204 -22.413  0.00  0.00    -0.346 N 
ATOM     28  H   UNL     1      35.115 -18.467 -22.968  0.00  0.00    +0.143 HD
ATOM     29  H   UNL     1      36.376 -19.540 -22.559  0.00  0.00    +0.143 HD
ENDBRANCH  15  19
TORSDOF 1
ENDMDL
MODEL 6
REMARK VINA RESULT:      -9.4      7.132     10.816
REMARK  Name = 118598754
REMARK  1 active torsions:
REMARK  status: ('A' for Active; 'I' for Inactive)
REMARK    1  A    between atoms: C_15  and  N_19
REMARK                            x       y       z     vdW  Elec       q    Type
REMARK                         _______ _______ _______ _____ _____    ______ ____
ROOT
ATOM      1  O   UNL     1      34.425 -18.705 -25.906  0.00  0.00    -0.269 OA
ATOM      2  O   UNL     1      34.136 -15.562 -20.997  0.00  0.00    -0.268 OA
ATOM      3  N   UNL     1      34.252 -16.811 -22.952  0.00  0.00    -0.238 N 
ATOM      4  N   UNL     1      34.883 -18.916 -23.621  0.00  0.00    -0.288 N 
ATOM      5  C   UNL     1      34.792 -18.090 -22.424  0.00  0.00    +0.124 C 
ATOM      6  C   UNL     1      36.194 -17.898 -21.814  0.00  0.00    +0.038 C 
ATOM      7  C   UNL     1      33.822 -18.736 -21.416  0.00  0.00    +0.038 C 
ATOM      8  C   UNL     1      34.389 -20.011 -20.790  0.00  0.00    +0.003 C 
ATOM      9  C   UNL     1      36.741 -19.180 -21.184  0.00  0.00    +0.003 C 
ATOM     10  C   UNL     1      35.764 -19.773 -20.175  0.00  0.00    +0.000 C 
ATOM     11  C   UNL     1      34.056 -16.907 -24.319  0.00  0.00    +0.105 C 
ATOM     12  C   UNL     1      34.459 -18.264 -24.772  0.00  0.00    +0.260 C 
ATOM     13  C   UNL     1      33.973 -15.670 -22.211  0.00  0.00    +0.267 C 
ATOM     14  C   UNL     1      33.575 -15.883 -25.039  0.00  0.00    -0.002 C 
ATOM     15  C   UNL     1      33.431 -14.507 -23.001  0.00  0.00    +0.104 C 
ATOM     16  C   UNL     1      33.261 -14.655 -24.327  0.00  0.00    +0.016 C 
ATOM     17  C   UNL     1      33.317 -15.854 -26.515  0.00  0.00    +0.033 C 
ATOM     18  H   UNL     1      35.212 -19.845 -23.616  0.00  0.00    +0.151 HD
ENDROOT
BRANCH  15  19
ATOM     19  N   UNL     1      33.149 -13.372 -22.298  0.00  0.00    -0.298 N 
ATOM     20  N   UNL     1      33.895 -11.695 -23.791  0.00  0.00    -0.233 NA
ATOM     21  N   UNL     1      32.981  -9.470 -23.637  0.00  0.00    -0.234 NA
ATOM     22  C   UNL     1      33.100 -12.053 -22.760  0.00  0.00    +0.113 C 
ATOM     23  C   UNL     1      32.233 -11.188 -22.125  0.00  0.00    +0.121 C 
ATOM     24  C   UNL     1      32.215  -9.896 -22.611  0.00  0.00    +0.107 C 
ATOM     25  C   UNL     1      33.785 -10.408 -24.173  0.00  0.00    +0.252 C 
ATOM     26  H   UNL     1      32.954 -13.499 -21.341  0.00  0.00    +0.153 HD
ATOM     27  N   UNL     1      31.340  -8.976 -21.983  0.00  0.00    -0.346 N 
ATOM     28  H   UNL     1      31.295  -8.045 -22.298  0.00  0.00    +0.143 HD
ATOM     29  H   UNL     1      30.774  -9.269 -21.231  0.00  0.00    +0.143 HD
ENDBRANCH  15  19
TORSDOF 1
ENDMDL
