MODEL 1
REMARK VINA RESULT:      -7.0      0.000      0.000
REMARK  Name = 68707
REMARK  9 active torsions:
REMARK  status: ('A' for Active; 'I' for Inactive)
REMARK    1  A    between atoms: C_3  and  C_12
REMARK    2  A    between atoms: C_4  and  C_9
REMARK    3  A    between atoms: C_9  and  O_10
REMARK    4  A    between atoms: C_12  and  C_13
REMARK    5  A    between atoms: C_13  and  S_14
REMARK    6  A    between atoms: S_14  and  C_15
REMARK    7  A    between atoms: C_15  and  C_17
REMARK    8  A    between atoms: C_17  and  O_18
REMARK    9  A    between atoms: O_18  and  C_19
REMARK                            x       y       z     vdW  Elec       q    Type
REMARK                         _______ _______ _______ _____ _____    ______ ____
ROOT
ATOM      1  S   UNK     1      37.057 -24.853 -12.814  0.00  0.00    -0.165 S 
ATOM      2  N   UNK     1      38.405 -24.685 -15.108  0.00  0.00    +0.400 N 
ATOM      3  C   UNK     1      37.287 -24.024 -14.419  0.00  0.00    -0.010 C 
ATOM      4  C   UNK     1      39.356 -25.076 -14.057  0.00  0.00    +0.052 C 
ATOM      5  C   UNK     1      38.581 -25.811 -12.973  0.00  0.00    +0.045 C 
ATOM      6  H   UNK     1      38.848 -24.041 -15.763  0.00  0.00    -0.082 HD
ATOM      7  H   UNK     1      38.090 -25.493 -15.644  0.00  0.00    -0.082 HD
ENDROOT
BRANCH   4   9
ATOM      8  O   UNK     1      41.192 -26.640 -14.088  0.00  0.00    -0.253 OA
ATOM      9  C   UNK     1      40.383 -25.953 -14.693  0.00  0.00    +0.294 C 
BRANCH   9  10
ATOM     10  O   UNK     1      40.301 -25.883 -16.045  0.00  0.00    -0.482 OA
ATOM     11  H   UNK     1      40.157 -25.057 -16.463  0.00  0.00    +0.295 HD
ENDBRANCH   9  10
ENDBRANCH   4   9
BRANCH   3  12
ATOM     12  C   UNK     1      36.013 -24.092 -15.249  0.00  0.00    +0.001 C 
BRANCH  12  13
ATOM     13  C   UNK     1      34.773 -24.047 -14.361  0.00  0.00    +0.057 C 
BRANCH  13  14
ATOM     14  S   UNK     1      33.327 -23.504 -15.313  0.00  0.00    -0.129 S 
BRANCH  14  15
ATOM     15  C   UNK     1      34.152 -23.193 -16.890  0.00  0.00    +0.167 C 
BRANCH  15  17
ATOM     16  O   UNK     1      31.988 -22.560 -17.821  0.00  0.00    -0.249 OA
ATOM     17  C   UNK     1      33.156 -22.881 -17.979  0.00  0.00    +0.328 C 
BRANCH  17  18
ATOM     18  O   UNK     1      33.786 -23.016 -19.187  0.00  0.00    -0.448 OA
BRANCH  18  19
ATOM     19  C   UNK     1      34.692 -21.963 -19.532  0.00  0.00    +0.209 C 
ATOM     20  C   UNK     1      33.903 -20.786 -20.062  0.00  0.00    +0.051 C 
ENDBRANCH  18  19
ENDBRANCH  17  18
ENDBRANCH  15  17
ENDBRANCH  14  15
ENDBRANCH  13  14
ENDBRANCH  12  13
ENDBRANCH   3  12
TORSDOF 9
ENDMDL
MODEL 2
REMARK VINA RESULT:      -6.9      4.245      8.718
REMARK  Name = 68707
REMARK  9 active torsions:
REMARK  status: ('A' for Active; 'I' for Inactive)
REMARK    1  A    between atoms: C_3  and  C_12
REMARK    2  A    between atoms: C_4  and  C_9
REMARK    3  A    between atoms: C_9  and  O_10
REMARK    4  A    between atoms: C_12  and  C_13
REMARK    5  A    between atoms: C_13  and  S_14
REMARK    6  A    between atoms: S_14  and  C_15
REMARK    7  A    between atoms: C_15  and  C_17
REMARK    8  A    between atoms: C_17  and  O_18
REMARK    9  A    between atoms: O_18  and  C_19
REMARK                            x       y       z     vdW  Elec       q    Type
REMARK                         _______ _______ _______ _____ _____    ______ ____
ROOT
ATOM      1  S   UNK     1      30.477 -25.065 -14.406  0.00  0.00    -0.165 S 
ATOM      2  N   UNK     1      30.505 -23.084 -16.190  0.00  0.00    +0.400 N 
ATOM      3  C   UNK     1      31.446 -23.973 -15.494  0.00  0.00    -0.010 C 
ATOM      4  C   UNK     1      29.290 -23.880 -16.423  0.00  0.00    +0.052 C 
ATOM      5  C   UNK     1      28.897 -24.533 -15.106  0.00  0.00    +0.045 C 
ATOM      6  H   UNK     1      30.900 -22.775 -17.078  0.00  0.00    -0.082 HD
ATOM      7  H   UNK     1      30.303 -22.249 -15.641  0.00  0.00    -0.082 HD
ENDROOT
BRANCH   4   9
ATOM      8  O   UNK     1      28.107 -21.782 -16.558  0.00  0.00    -0.253 OA
ATOM      9  C   UNK     1      28.235 -22.944 -16.912  0.00  0.00    +0.294 C 
BRANCH   9  10
ATOM     10  O   UNK     1      27.426 -23.562 -17.809  0.00  0.00    -0.482 OA
ATOM     11  H   UNK     1      26.667 -24.026 -17.513  0.00  0.00    +0.295 HD
ENDBRANCH   9  10
ENDBRANCH   4   9
BRANCH   3  12
ATOM     12  C   UNK     1      32.464 -23.176 -14.692  0.00  0.00    +0.001 C 
BRANCH  12  13
ATOM     13  C   UNK     1      33.153 -24.052 -13.650  0.00  0.00    +0.057 C 
BRANCH  13  14
ATOM     14  S   UNK     1      34.915 -24.242 -14.041  0.00  0.00    -0.129 S 
BRANCH  14  15
ATOM     15  C   UNK     1      35.596 -23.671 -12.466  0.00  0.00    +0.167 C 
BRANCH  15  17
ATOM     16  O   UNK     1      35.176 -24.997 -10.461  0.00  0.00    -0.249 OA
ATOM     17  C   UNK     1      35.788 -24.817 -11.504  0.00  0.00    +0.328 C 
BRANCH  17  18
ATOM     18  O   UNK     1      36.770 -25.632 -11.999  0.00  0.00    -0.448 OA
BRANCH  18  19
ATOM     19  C   UNK     1      38.047 -25.015 -12.190  0.00  0.00    +0.209 C 
ATOM     20  C   UNK     1      38.727 -25.648 -13.385  0.00  0.00    +0.051 C 
ENDBRANCH  18  19
ENDBRANCH  17  18
ENDBRANCH  15  17
ENDBRANCH  14  15
ENDBRANCH  13  14
ENDBRANCH  12  13
ENDBRANCH   3  12
TORSDOF 9
ENDMDL
MODEL 3
REMARK VINA RESULT:      -6.9      3.783      8.436
REMARK  Name = 68707
REMARK  9 active torsions:
REMARK  status: ('A' for Active; 'I' for Inactive)
REMARK    1  A    between atoms: C_3  and  C_12
REMARK    2  A    between atoms: C_4  and  C_9
REMARK    3  A    between atoms: C_9  and  O_10
REMARK    4  A    between atoms: C_12  and  C_13
REMARK    5  A    between atoms: C_13  and  S_14
REMARK    6  A    between atoms: S_14  and  C_15
REMARK    7  A    between atoms: C_15  and  C_17
REMARK    8  A    between atoms: C_17  and  O_18
REMARK    9  A    between atoms: O_18  and  C_19
REMARK                            x       y       z     vdW  Elec       q    Type
REMARK                         _______ _______ _______ _____ _____    ______ ____
ROOT
ATOM      1  S   UNK     1      30.572 -25.090 -14.493  0.00  0.00    -0.165 S 
ATOM      2  N   UNK     1      30.538 -23.064 -16.227  0.00  0.00    +0.400 N 
ATOM      3  C   UNK     1      31.503 -23.970 -15.585  0.00  0.00    -0.010 C 
ATOM      4  C   UNK     1      29.317 -23.857 -16.438  0.00  0.00    +0.052 C 
ATOM      5  C   UNK     1      28.969 -24.544 -15.126  0.00  0.00    +0.045 C 
ATOM      6  H   UNK     1      30.902 -22.732 -17.119  0.00  0.00    -0.082 HD
ATOM      7  H   UNK     1      30.354 -22.244 -15.650  0.00  0.00    -0.082 HD
ENDROOT
BRANCH   4   9
ATOM      8  O   UNK     1      28.087 -21.781 -16.430  0.00  0.00    -0.253 OA
ATOM      9  C   UNK     1      28.245 -22.911 -16.868  0.00  0.00    +0.294 C 
BRANCH   9  10
ATOM     10  O   UNK     1      27.458 -23.479 -17.816  0.00  0.00    -0.482 OA
ATOM     11  H   UNK     1      26.526 -23.403 -17.758  0.00  0.00    +0.295 HD
ENDBRANCH   9  10
ENDBRANCH   4   9
BRANCH   3  12
ATOM     12  C   UNK     1      32.546 -23.191 -14.797  0.00  0.00    +0.001 C 
BRANCH  12  13
ATOM     13  C   UNK     1      33.578 -24.126 -14.175  0.00  0.00    +0.057 C 
BRANCH  13  14
ATOM     14  S   UNK     1      35.038 -24.267 -15.244  0.00  0.00    -0.129 S 
BRANCH  14  15
ATOM     15  C   UNK     1      36.085 -25.235 -14.133  0.00  0.00    +0.167 C 
BRANCH  15  17
ATOM     16  O   UNK     1      36.410 -26.866 -15.917  0.00  0.00    -0.249 OA
ATOM     17  C   UNK     1      36.773 -26.359 -14.866  0.00  0.00    +0.328 C 
BRANCH  17  18
ATOM     18  O   UNK     1      37.884 -26.719 -14.153  0.00  0.00    -0.448 OA
BRANCH  18  19
ATOM     19  C   UNK     1      38.763 -25.647 -13.797  0.00  0.00    +0.209 C 
ATOM     20  C   UNK     1      40.046 -25.777 -14.589  0.00  0.00    +0.051 C 
ENDBRANCH  18  19
ENDBRANCH  17  18
ENDBRANCH  15  17
ENDBRANCH  14  15
ENDBRANCH  13  14
ENDBRANCH  12  13
ENDBRANCH   3  12
TORSDOF 9
ENDMDL
MODEL 4
REMARK VINA RESULT:      -6.8      2.636      3.557
REMARK  Name = 68707
REMARK  9 active torsions:
REMARK  status: ('A' for Active; 'I' for Inactive)
REMARK    1  A    between atoms: C_3  and  C_12
REMARK    2  A    between atoms: C_4  and  C_9
REMARK    3  A    between atoms: C_9  and  O_10
REMARK    4  A    between atoms: C_12  and  C_13
REMARK    5  A    between atoms: C_13  and  S_14
REMARK    6  A    between atoms: S_14  and  C_15
REMARK    7  A    between atoms: C_15  and  C_17
REMARK    8  A    between atoms: C_17  and  O_18
REMARK    9  A    between atoms: O_18  and  C_19
REMARK                            x       y       z     vdW  Elec       q    Type
REMARK                         _______ _______ _______ _____ _____    ______ ____
ROOT
ATOM      1  S   UNK     1      36.844 -25.025 -12.726  0.00  0.00    -0.165 S 
ATOM      2  N   UNK     1      38.055 -24.912 -15.099  0.00  0.00    +0.400 N 
ATOM      3  C   UNK     1      36.899 -24.324 -14.406  0.00  0.00    -0.010 C 
ATOM      4  C   UNK     1      39.093 -25.095 -14.074  0.00  0.00    +0.052 C 
ATOM      5  C   UNK     1      38.462 -25.813 -12.889  0.00  0.00    +0.045 C 
ATOM      6  H   UNK     1      38.387 -24.283 -15.830  0.00  0.00    -0.082 HD
ATOM      7  H   UNK     1      37.813 -25.795 -15.546  0.00  0.00    -0.082 HD
ENDROOT
BRANCH   4   9
ATOM      8  O   UNK     1      40.968 -26.613 -14.076  0.00  0.00    -0.253 OA
ATOM      9  C   UNK     1      40.187 -25.903 -14.690  0.00  0.00    +0.294 C 
BRANCH   9  10
ATOM     10  O   UNK     1      40.200 -25.740 -16.037  0.00  0.00    -0.482 OA
ATOM     11  H   UNK     1      40.071 -24.889 -16.407  0.00  0.00    +0.295 HD
ENDBRANCH   9  10
ENDBRANCH   4   9
BRANCH   3  12
ATOM     12  C   UNK     1      35.605 -24.611 -15.154  0.00  0.00    +0.001 C 
BRANCH  12  13
ATOM     13  C   UNK     1      34.935 -23.320 -15.613  0.00  0.00    +0.057 C 
BRANCH  13  14
ATOM     14  S   UNK     1      33.129 -23.491 -15.576  0.00  0.00    -0.129 S 
BRANCH  14  15
ATOM     15  C   UNK     1      32.990 -24.482 -14.071  0.00  0.00    +0.167 C 
BRANCH  15  17
ATOM     16  O   UNK     1      30.979 -24.237 -12.712  0.00  0.00    -0.249 OA
ATOM     17  C   UNK     1      31.547 -24.701 -13.689  0.00  0.00    +0.328 C 
BRANCH  17  18
ATOM     18  O   UNK     1      30.973 -25.513 -14.630  0.00  0.00    -0.448 OA
BRANCH  18  19
ATOM     19  C   UNK     1      29.561 -25.358 -14.801  0.00  0.00    +0.209 C 
ATOM     20  C   UNK     1      29.302 -24.492 -16.014  0.00  0.00    +0.051 C 
ENDBRANCH  18  19
ENDBRANCH  17  18
ENDBRANCH  15  17
ENDBRANCH  14  15
ENDBRANCH  13  14
ENDBRANCH  12  13
ENDBRANCH   3  12
TORSDOF 9
ENDMDL
MODEL 5
REMARK VINA RESULT:      -6.7      2.706      3.248
REMARK  Name = 68707
REMARK  9 active torsions:
REMARK  status: ('A' for Active; 'I' for Inactive)
REMARK    1  A    between atoms: C_3  and  C_12
REMARK    2  A    between atoms: C_4  and  C_9
REMARK    3  A    between atoms: C_9  and  O_10
REMARK    4  A    between atoms: C_12  and  C_13
REMARK    5  A    between atoms: C_13  and  S_14
REMARK    6  A    between atoms: S_14  and  C_15
REMARK    7  A    between atoms: C_15  and  C_17
REMARK    8  A    between atoms: C_17  and  O_18
REMARK    9  A    between atoms: O_18  and  C_19
REMARK                            x       y       z     vdW  Elec       q    Type
REMARK                         _______ _______ _______ _____ _____    ______ ____
ROOT
ATOM      1  S   UNK     1      37.137 -24.886 -12.733  0.00  0.00    -0.165 S 
ATOM      2  N   UNK     1      38.130 -25.178 -15.190  0.00  0.00    +0.400 N 
ATOM      3  C   UNK     1      36.996 -24.531 -14.513  0.00  0.00    -0.010 C 
ATOM      4  C   UNK     1      39.263 -25.093 -14.256  0.00  0.00    +0.052 C 
ATOM      5  C   UNK     1      38.791 -25.597 -12.899  0.00  0.00    +0.045 C 
ATOM      6  H   UNK     1      38.351 -24.689 -16.058  0.00  0.00    -0.082 HD
ATOM      7  H   UNK     1      37.919 -26.145 -15.433  0.00  0.00    -0.082 HD
ENDROOT
BRANCH   4   9
ATOM      8  O   UNK     1      41.149 -26.592 -14.143  0.00  0.00    -0.253 OA
ATOM      9  C   UNK     1      40.358 -25.943 -14.810  0.00  0.00    +0.294 C 
BRANCH   9  10
ATOM     10  O   UNK     1      40.361 -25.896 -16.165  0.00  0.00    -0.482 OA
ATOM     11  H   UNK     1      40.647 -25.121 -16.606  0.00  0.00    +0.295 HD
ENDBRANCH   9  10
ENDBRANCH   4   9
BRANCH   3  12
ATOM     12  C   UNK     1      35.670 -25.036 -15.061  0.00  0.00    +0.001 C 
BRANCH  12  13
ATOM     13  C   UNK     1      34.494 -24.324 -14.400  0.00  0.00    +0.057 C 
BRANCH  13  14
ATOM     14  S   UNK     1      33.483 -23.471 -15.644  0.00  0.00    -0.129 S 
BRANCH  14  15
ATOM     15  C   UNK     1      31.967 -23.297 -14.675  0.00  0.00    +0.167 C 
BRANCH  15  17
ATOM     16  O   UNK     1      30.941 -25.485 -14.338  0.00  0.00    -0.249 OA
ATOM     17  C   UNK     1      31.008 -24.429 -14.949  0.00  0.00    +0.328 C 
BRANCH  17  18
ATOM     18  O   UNK     1      30.214 -24.072 -16.006  0.00  0.00    -0.448 OA
BRANCH  18  19
ATOM     19  C   UNK     1      28.812 -24.000 -15.729  0.00  0.00    +0.209 C 
ATOM     20  C   UNK     1      28.379 -22.550 -15.749  0.00  0.00    +0.051 C 
ENDBRANCH  18  19
ENDBRANCH  17  18
ENDBRANCH  15  17
ENDBRANCH  14  15
ENDBRANCH  13  14
ENDBRANCH  12  13
ENDBRANCH   3  12
TORSDOF 9
ENDMDL
MODEL 6
REMARK VINA RESULT:      -6.6      2.921      3.675
REMARK  Name = 68707
REMARK  9 active torsions:
REMARK  status: ('A' for Active; 'I' for Inactive)
REMARK    1  A    between atoms: C_3  and  C_12
REMARK    2  A    between atoms: C_4  and  C_9
REMARK    3  A    between atoms: C_9  and  O_10
REMARK    4  A    between atoms: C_12  and  C_13
REMARK    5  A    between atoms: C_13  and  S_14
REMARK    6  A    between atoms: S_14  and  C_15
REMARK    7  A    between atoms: C_15  and  C_17
REMARK    8  A    between atoms: C_17  and  O_18
REMARK    9  A    between atoms: O_18  and  C_19
REMARK                            x       y       z     vdW  Elec       q    Type
REMARK                         _______ _______ _______ _____ _____    ______ ____
ROOT
ATOM      1  S   UNK     1      35.231 -23.052 -15.180  0.00  0.00    -0.165 S 
ATOM      2  N   UNK     1      37.633 -24.155 -15.531  0.00  0.00    +0.400 N 
ATOM      3  C   UNK     1      37.012 -22.823 -15.479  0.00  0.00    -0.010 C 
ATOM      4  C   UNK     1      36.894 -24.985 -14.567  0.00  0.00    +0.052 C 
ATOM      5  C   UNK     1      35.408 -24.820 -14.847  0.00  0.00    +0.045 C 
ATOM      6  H   UNK     1      38.616 -24.099 -15.268  0.00  0.00    -0.082 HD
ATOM      7  H   UNK     1      37.592 -24.550 -16.470  0.00  0.00    -0.082 HD
ENDROOT
BRANCH   4   9
ATOM      8  O   UNK     1      37.882 -27.088 -13.917  0.00  0.00    -0.253 OA
ATOM      9  C   UNK     1      37.340 -26.396 -14.766  0.00  0.00    +0.294 C 
BRANCH   9  10
ATOM     10  O   UNK     1      37.064 -26.812 -16.027  0.00  0.00    -0.482 OA
ATOM     11  H   UNK     1      36.186 -27.036 -16.265  0.00  0.00    +0.295 HD
ENDBRANCH   9  10
ENDBRANCH   4   9
BRANCH   3  12
ATOM     12  C   UNK     1      37.249 -22.056 -16.771  0.00  0.00    +0.001 C 
BRANCH  12  13
ATOM     13  C   UNK     1      35.989 -22.021 -17.630  0.00  0.00    +0.057 C 
BRANCH  13  14
ATOM     14  S   UNK     1      36.347 -21.301 -19.258  0.00  0.00    -0.129 S 
BRANCH  14  15
ATOM     15  C   UNK     1      34.666 -21.309 -19.923  0.00  0.00    +0.167 C 
BRANCH  15  17
ATOM     16  O   UNK     1      33.355 -19.797 -21.319  0.00  0.00    -0.249 OA
ATOM     17  C   UNK     1      34.373 -20.042 -20.688  0.00  0.00    +0.328 C 
BRANCH  17  18
ATOM     18  O   UNK     1      35.446 -19.203 -20.555  0.00  0.00    -0.448 OA
BRANCH  18  19
ATOM     19  C   UNK     1      35.556 -18.178 -21.548  0.00  0.00    +0.209 C 
ATOM     20  C   UNK     1      34.967 -16.896 -21.001  0.00  0.00    +0.051 C 
ENDBRANCH  18  19
ENDBRANCH  17  18
ENDBRANCH  15  17
ENDBRANCH  14  15
ENDBRANCH  13  14
ENDBRANCH  12  13
ENDBRANCH   3  12
TORSDOF 9
ENDMDL
MODEL 7
REMARK VINA RESULT:      -6.6      3.189      3.795
REMARK  Name = 68707
REMARK  9 active torsions:
REMARK  status: ('A' for Active; 'I' for Inactive)
REMARK    1  A    between atoms: C_3  and  C_12
REMARK    2  A    between atoms: C_4  and  C_9
REMARK    3  A    between atoms: C_9  and  O_10
REMARK    4  A    between atoms: C_12  and  C_13
REMARK    5  A    between atoms: C_13  and  S_14
REMARK    6  A    between atoms: S_14  and  C_15
REMARK    7  A    between atoms: C_15  and  C_17
REMARK    8  A    between atoms: C_17  and  O_18
REMARK    9  A    between atoms: O_18  and  C_19
REMARK                            x       y       z     vdW  Elec       q    Type
REMARK                         _______ _______ _______ _____ _____    ______ ____
ROOT
ATOM      1  S   UNK     1      36.681 -23.818 -14.876  0.00  0.00    -0.165 S 
ATOM      2  N   UNK     1      34.838 -24.594 -13.112  0.00  0.00    +0.400 N 
ATOM      3  C   UNK     1      35.067 -24.600 -14.565  0.00  0.00    -0.010 C 
ATOM      4  C   UNK     1      36.158 -24.781 -12.493  0.00  0.00    +0.052 C 
ATOM      5  C   UNK     1      37.118 -23.782 -13.122  0.00  0.00    +0.045 C 
ATOM      6  H   UNK     1      34.213 -25.356 -12.848  0.00  0.00    -0.082 HD
ATOM      7  H   UNK     1      34.402 -23.725 -12.806  0.00  0.00    -0.082 HD
ENDROOT
BRANCH   4   9
ATOM      8  O   UNK     1      35.178 -25.099 -10.312  0.00  0.00    -0.253 OA
ATOM      9  C   UNK     1      35.997 -24.543 -11.027  0.00  0.00    +0.294 C 
BRANCH   9  10
ATOM     10  O   UNK     1      36.888 -23.618 -10.592  0.00  0.00    -0.482 OA
ATOM     11  H   UNK     1      37.728 -23.548 -11.002  0.00  0.00    +0.295 HD
ENDBRANCH   9  10
ENDBRANCH   4   9
BRANCH   3  12
ATOM     12  C   UNK     1      33.958 -23.861 -15.299  0.00  0.00    +0.001 C 
BRANCH  12  13
ATOM     13  C   UNK     1      34.508 -23.082 -16.489  0.00  0.00    +0.057 C 
BRANCH  13  14
ATOM     14  S   UNK     1      33.282 -23.008 -17.825  0.00  0.00    -0.129 S 
BRANCH  14  15
ATOM     15  C   UNK     1      34.331 -22.277 -19.103  0.00  0.00    +0.167 C 
BRANCH  15  17
ATOM     16  O   UNK     1      32.523 -20.712 -19.588  0.00  0.00    -0.249 OA
ATOM     17  C   UNK     1      33.693 -21.047 -19.700  0.00  0.00    +0.328 C 
BRANCH  17  18
ATOM     18  O   UNK     1      34.653 -20.360 -20.392  0.00  0.00    -0.448 OA
BRANCH  18  19
ATOM     19  C   UNK     1      34.165 -19.423 -21.359  0.00  0.00    +0.209 C 
ATOM     20  C   UNK     1      34.920 -18.121 -21.209  0.00  0.00    +0.051 C 
ENDBRANCH  18  19
ENDBRANCH  17  18
ENDBRANCH  15  17
ENDBRANCH  14  15
ENDBRANCH  13  14
ENDBRANCH  12  13
ENDBRANCH   3  12
TORSDOF 9
ENDMDL
MODEL 8
REMARK VINA RESULT:      -6.6      3.392      4.252
REMARK  Name = 68707
REMARK  9 active torsions:
REMARK  status: ('A' for Active; 'I' for Inactive)
REMARK    1  A    between atoms: C_3  and  C_12
REMARK    2  A    between atoms: C_4  and  C_9
REMARK    3  A    between atoms: C_9  and  O_10
REMARK    4  A    between atoms: C_12  and  C_13
REMARK    5  A    between atoms: C_13  and  S_14
REMARK    6  A    between atoms: S_14  and  C_15
REMARK    7  A    between atoms: C_15  and  C_17
REMARK    8  A    between atoms: C_17  and  O_18
REMARK    9  A    between atoms: O_18  and  C_19
REMARK                            x       y       z     vdW  Elec       q    Type
REMARK                         _______ _______ _______ _____ _____    ______ ____
ROOT
ATOM      1  S   UNK     1      35.778 -23.002 -15.385  0.00  0.00    -0.165 S 
ATOM      2  N   UNK     1      35.145 -25.409 -14.427  0.00  0.00    +0.400 N 
ATOM      3  C   UNK     1      34.497 -24.258 -15.073  0.00  0.00    -0.010 C 
ATOM      4  C   UNK     1      36.490 -25.499 -15.014  0.00  0.00    +0.052 C 
ATOM      5  C   UNK     1      37.128 -24.120 -14.942  0.00  0.00    +0.045 C 
ATOM      6  H   UNK     1      34.620 -26.263 -14.614  0.00  0.00    -0.082 HD
ATOM      7  H   UNK     1      35.187 -25.295 -13.415  0.00  0.00    -0.082 HD
ENDROOT
BRANCH   4   9
ATOM      8  O   UNK     1      38.223 -27.130 -14.618  0.00  0.00    -0.253 OA
ATOM      9  C   UNK     1      37.255 -26.504 -14.216  0.00  0.00    +0.294 C 
BRANCH   9  10
ATOM     10  O   UNK     1      36.725 -26.631 -12.974  0.00  0.00    -0.482 OA
ATOM     11  H   UNK     1      37.168 -26.263 -12.236  0.00  0.00    +0.295 HD
ENDBRANCH   9  10
ENDBRANCH   4   9
BRANCH   3  12
ATOM     12  C   UNK     1      33.386 -23.692 -14.201  0.00  0.00    +0.001 C 
BRANCH  12  13
ATOM     13  C   UNK     1      32.326 -24.748 -13.903  0.00  0.00    +0.057 C 
BRANCH  13  14
ATOM     14  S   UNK     1      30.716 -23.968 -13.602  0.00  0.00    -0.129 S 
BRANCH  14  15
ATOM     15  C   UNK     1      30.636 -22.948 -15.092  0.00  0.00    +0.167 C 
BRANCH  15  17
ATOM     16  O   UNK     1      29.431 -24.737 -16.233  0.00  0.00    -0.249 OA
ATOM     17  C   UNK     1      29.717 -23.554 -16.124  0.00  0.00    +0.328 C 
BRANCH  17  18
ATOM     18  O   UNK     1      29.249 -22.547 -16.925  0.00  0.00    -0.448 OA
BRANCH  18  19
ATOM     19  C   UNK     1      27.831 -22.521 -17.119  0.00  0.00    +0.209 C 
ATOM     20  C   UNK     1      27.155 -22.282 -15.786  0.00  0.00    +0.051 C 
ENDBRANCH  18  19
ENDBRANCH  17  18
ENDBRANCH  15  17
ENDBRANCH  14  15
ENDBRANCH  13  14
ENDBRANCH  12  13
ENDBRANCH   3  12
TORSDOF 9
ENDMDL
MODEL 9
REMARK VINA RESULT:      -6.5      5.847      8.711
REMARK  Name = 68707
REMARK  9 active torsions:
REMARK  status: ('A' for Active; 'I' for Inactive)
REMARK    1  A    between atoms: C_3  and  C_12
REMARK    2  A    between atoms: C_4  and  C_9
REMARK    3  A    between atoms: C_9  and  O_10
REMARK    4  A    between atoms: C_12  and  C_13
REMARK    5  A    between atoms: C_13  and  S_14
REMARK    6  A    between atoms: S_14  and  C_15
REMARK    7  A    between atoms: C_15  and  C_17
REMARK    8  A    between atoms: C_17  and  O_18
REMARK    9  A    between atoms: O_18  and  C_19
REMARK                            x       y       z     vdW  Elec       q    Type
REMARK                         _______ _______ _______ _____ _____    ______ ____
ROOT
ATOM      1  S   UNK     1      36.143 -20.573 -20.231  0.00  0.00    -0.165 S 
ATOM      2  N   UNK     1      33.566 -21.105 -19.796  0.00  0.00    +0.400 N 
ATOM      3  C   UNK     1      34.414 -20.420 -20.784  0.00  0.00    -0.010 C 
ATOM      4  C   UNK     1      34.349 -22.253 -19.316  0.00  0.00    +0.052 C 
ATOM      5  C   UNK     1      35.730 -21.750 -18.923  0.00  0.00    +0.045 C 
ATOM      6  H   UNK     1      32.702 -21.424 -20.233  0.00  0.00    -0.082 HD
ATOM      7  H   UNK     1      33.308 -20.484 -19.030  0.00  0.00    -0.082 HD
ENDROOT
BRANCH   4   9
ATOM      8  O   UNK     1      34.114 -23.550 -17.296  0.00  0.00    -0.253 OA
ATOM      9  C   UNK     1      33.618 -22.830 -18.149  0.00  0.00    +0.294 C 
BRANCH   9  10
ATOM     10  O   UNK     1      32.317 -22.447 -18.163  0.00  0.00    -0.482 OA
ATOM     11  H   UNK     1      31.640 -23.091 -18.220  0.00  0.00    +0.295 HD
ENDBRANCH   9  10
ENDBRANCH   4   9
BRANCH   3  12
ATOM     12  C   UNK     1      34.020 -18.957 -20.926  0.00  0.00    +0.001 C 
BRANCH  12  13
ATOM     13  C   UNK     1      35.192 -18.116 -21.421  0.00  0.00    +0.057 C 
BRANCH  13  14
ATOM     14  S   UNK     1      35.284 -18.153 -23.233  0.00  0.00    -0.129 S 
BRANCH  14  15
ATOM     15  C   UNK     1      35.122 -16.379 -23.540  0.00  0.00    +0.167 C 
BRANCH  15  17
ATOM     16  O   UNK     1      34.451 -16.642 -25.871  0.00  0.00    -0.249 OA
ATOM     17  C   UNK     1      34.307 -16.109 -24.780  0.00  0.00    +0.328 C 
BRANCH  17  18
ATOM     18  O   UNK     1      33.368 -15.160 -24.478  0.00  0.00    -0.448 OA
BRANCH  18  19
ATOM     19  C   UNK     1      33.775 -14.168 -23.531  0.00  0.00    +0.209 C 
ATOM     20  C   UNK     1      32.609 -13.846 -22.621  0.00  0.00    +0.051 C 
ENDBRANCH  18  19
ENDBRANCH  17  18
ENDBRANCH  15  17
ENDBRANCH  14  15
ENDBRANCH  13  14
ENDBRANCH  12  13
ENDBRANCH   3  12
TORSDOF 9
ENDMDL
