MODEL 1
REMARK VINA RESULT:      -8.3      0.000      0.000
REMARK  Name = 5707
REMARK  1 active torsions:
REMARK  status: ('A' for Active; 'I' for Inactive)
REMARK    1  A    between atoms: N_2  and  C_9
REMARK                            x       y       z     vdW  Elec       q    Type
REMARK                         _______ _______ _______ _____ _____    ______ ____
ROOT
ATOM      1  S   UNL     1      34.965 -16.615 -22.948  0.00  0.00    -0.080 S 
ATOM      2  N   UNL     1      34.879 -18.539 -21.189  0.00  0.00    -0.294 N 
ATOM      3  N   UNL     1      34.758 -19.295 -23.385  0.00  0.00    -0.251 NA
ATOM      4  C   UNL     1      34.087 -17.807 -25.250  0.00  0.00    +0.038 C 
ATOM      5  C   UNL     1      34.888 -16.625 -24.748  0.00  0.00    +0.067 C 
ATOM      6  C   UNL     1      34.747 -19.105 -24.827  0.00  0.00    +0.128 C 
ATOM      7  C   UNL     1      34.857 -18.325 -22.543  0.00  0.00    +0.155 C 
ATOM      8  H   UNL     1      34.957 -17.740 -20.619  0.00  0.00    +0.154 HD
ENDROOT
BRANCH   2   9
ATOM      9  C   UNL     1      34.802 -19.768 -20.534  0.00  0.00    +0.042 C 
ATOM     10  C   UNL     1      33.556 -20.350 -20.247  0.00  0.00    -0.009 C 
ATOM     11  C   UNL     1      35.969 -20.448 -20.147  0.00  0.00    -0.009 C 
ATOM     12  C   UNL     1      33.479 -21.578 -19.590  0.00  0.00    -0.003 C 
ATOM     13  C   UNL     1      35.891 -21.677 -19.491  0.00  0.00    -0.003 C 
ATOM     14  C   UNL     1      32.289 -19.663 -20.638  0.00  0.00    +0.032 C 
ATOM     15  C   UNL     1      37.316 -19.868 -20.432  0.00  0.00    +0.032 C 
ATOM     16  C   UNL     1      34.647 -22.242 -19.212  0.00  0.00    -0.001 C 
ENDBRANCH   2   9
TORSDOF 1
ENDMDL
MODEL 2
REMARK VINA RESULT:      -8.3      0.050      2.223
REMARK  Name = 5707
REMARK  1 active torsions:
REMARK  status: ('A' for Active; 'I' for Inactive)
REMARK    1  A    between atoms: N_2  and  C_9
REMARK                            x       y       z     vdW  Elec       q    Type
REMARK                         _______ _______ _______ _____ _____    ______ ____
ROOT
ATOM      1  S   UNL     1      34.941 -16.610 -22.899  0.00  0.00    -0.080 S 
ATOM      2  N   UNL     1      34.838 -18.548 -21.157  0.00  0.00    -0.294 N 
ATOM      3  N   UNL     1      34.754 -19.288 -23.360  0.00  0.00    -0.251 NA
ATOM      4  C   UNL     1      34.103 -17.789 -25.224  0.00  0.00    +0.038 C 
ATOM      5  C   UNL     1      34.891 -16.607 -24.700  0.00  0.00    +0.067 C 
ATOM      6  C   UNL     1      34.764 -19.087 -24.801  0.00  0.00    +0.128 C 
ATOM      7  C   UNL     1      34.835 -18.324 -22.509  0.00  0.00    +0.155 C 
ATOM      8  H   UNL     1      34.903 -17.754 -20.580  0.00  0.00    +0.154 HD
ENDROOT
BRANCH   2   9
ATOM      9  C   UNL     1      34.757 -19.782 -20.512  0.00  0.00    +0.042 C 
ATOM     10  C   UNL     1      35.922 -20.469 -20.130  0.00  0.00    -0.009 C 
ATOM     11  C   UNL     1      33.510 -20.365 -20.234  0.00  0.00    -0.009 C 
ATOM     12  C   UNL     1      35.841 -21.705 -19.487  0.00  0.00    -0.003 C 
ATOM     13  C   UNL     1      33.429 -21.601 -19.591  0.00  0.00    -0.003 C 
ATOM     14  C   UNL     1      37.270 -19.889 -20.405  0.00  0.00    +0.032 C 
ATOM     15  C   UNL     1      32.245 -19.672 -20.622  0.00  0.00    +0.032 C 
ATOM     16  C   UNL     1      34.594 -22.270 -19.218  0.00  0.00    -0.001 C 
ENDBRANCH   2   9
TORSDOF 1
ENDMDL
MODEL 3
REMARK VINA RESULT:      -8.1      1.807      5.393
REMARK  Name = 5707
REMARK  1 active torsions:
REMARK  status: ('A' for Active; 'I' for Inactive)
REMARK    1  A    between atoms: N_2  and  C_9
REMARK                            x       y       z     vdW  Elec       q    Type
REMARK                         _______ _______ _______ _____ _____    ______ ____
ROOT
ATOM      1  S   UNL     1      35.928 -20.547 -20.244  0.00  0.00    -0.080 S 
ATOM      2  N   UNL     1      35.524 -18.666 -22.005  0.00  0.00    -0.294 N 
ATOM      3  N   UNL     1      33.560 -19.465 -21.047  0.00  0.00    -0.251 NA
ATOM      4  C   UNL     1      33.453 -21.672 -19.923  0.00  0.00    +0.038 C 
ATOM      5  C   UNL     1      34.792 -21.516 -19.234  0.00  0.00    +0.067 C 
ATOM      6  C   UNL     1      32.811 -20.314 -20.134  0.00  0.00    +0.128 C 
ATOM      7  C   UNL     1      34.845 -19.490 -21.145  0.00  0.00    +0.155 C 
ATOM      8  H   UNL     1      36.504 -18.753 -22.015  0.00  0.00    +0.154 HD
ENDROOT
BRANCH   2   9
ATOM      9  C   UNL     1      34.972 -17.720 -22.868  0.00  0.00    +0.042 C 
ATOM     10  C   UNL     1      34.647 -16.433 -22.407  0.00  0.00    -0.009 C 
ATOM     11  C   UNL     1      34.728 -18.034 -24.214  0.00  0.00    -0.009 C 
ATOM     12  C   UNL     1      34.093 -15.487 -23.270  0.00  0.00    -0.003 C 
ATOM     13  C   UNL     1      34.174 -17.088 -25.078  0.00  0.00    -0.003 C 
ATOM     14  C   UNL     1      34.888 -16.053 -20.983  0.00  0.00    +0.032 C 
ATOM     15  C   UNL     1      35.057 -19.390 -24.749  0.00  0.00    +0.032 C 
ATOM     16  C   UNL     1      33.857 -15.815 -24.605  0.00  0.00    -0.001 C 
ENDBRANCH   2   9
TORSDOF 1
ENDMDL
MODEL 4
REMARK VINA RESULT:      -8.0      1.810      5.406
REMARK  Name = 5707
REMARK  1 active torsions:
REMARK  status: ('A' for Active; 'I' for Inactive)
REMARK    1  A    between atoms: N_2  and  C_9
REMARK                            x       y       z     vdW  Elec       q    Type
REMARK                         _______ _______ _______ _____ _____    ______ ____
ROOT
ATOM      1  S   UNL     1      35.933 -20.555 -20.238  0.00  0.00    -0.080 S 
ATOM      2  N   UNL     1      35.526 -18.669 -21.994  0.00  0.00    -0.294 N 
ATOM      3  N   UNL     1      33.564 -19.467 -21.032  0.00  0.00    -0.251 NA
ATOM      4  C   UNL     1      33.457 -21.676 -19.912  0.00  0.00    +0.038 C 
ATOM      5  C   UNL     1      34.798 -21.523 -19.228  0.00  0.00    +0.067 C 
ATOM      6  C   UNL     1      32.817 -20.317 -20.118  0.00  0.00    +0.128 C 
ATOM      7  C   UNL     1      34.849 -19.493 -21.134  0.00  0.00    +0.155 C 
ATOM      8  H   UNL     1      36.506 -18.757 -22.007  0.00  0.00    +0.154 HD
ENDROOT
BRANCH   2   9
ATOM      9  C   UNL     1      34.973 -17.720 -22.853  0.00  0.00    +0.042 C 
ATOM     10  C   UNL     1      34.732 -18.028 -24.203  0.00  0.00    -0.009 C 
ATOM     11  C   UNL     1      34.647 -16.435 -22.388  0.00  0.00    -0.009 C 
ATOM     12  C   UNL     1      34.181 -17.078 -25.063  0.00  0.00    -0.003 C 
ATOM     13  C   UNL     1      34.095 -15.486 -23.248  0.00  0.00    -0.003 C 
ATOM     14  C   UNL     1      35.063 -19.381 -24.743  0.00  0.00    +0.032 C 
ATOM     15  C   UNL     1      34.886 -16.062 -20.961  0.00  0.00    +0.032 C 
ATOM     16  C   UNL     1      33.862 -15.807 -24.585  0.00  0.00    -0.001 C 
ENDBRANCH   2   9
TORSDOF 1
ENDMDL
MODEL 5
REMARK VINA RESULT:      -7.8      5.861      8.636
REMARK  Name = 5707
REMARK  1 active torsions:
REMARK  status: ('A' for Active; 'I' for Inactive)
REMARK    1  A    between atoms: N_2  and  C_9
REMARK                            x       y       z     vdW  Elec       q    Type
REMARK                         _______ _______ _______ _____ _____    ______ ____
ROOT
ATOM      1  S   UNL     1      35.989 -24.067 -12.927  0.00  0.00    -0.080 S 
ATOM      2  N   UNL     1      35.364 -22.965 -15.207  0.00  0.00    -0.294 N 
ATOM      3  N   UNL     1      36.339 -25.065 -15.438  0.00  0.00    -0.251 NA
ATOM      4  C   UNL     1      37.700 -26.084 -13.634  0.00  0.00    +0.038 C 
ATOM      5  C   UNL     1      36.771 -25.639 -12.524  0.00  0.00    +0.067 C 
ATOM      6  C   UNL     1      36.919 -26.293 -14.917  0.00  0.00    +0.128 C 
ATOM      7  C   UNL     1      35.920 -24.105 -14.687  0.00  0.00    +0.155 C 
ATOM      8  H   UNL     1      35.071 -22.284 -14.561  0.00  0.00    +0.154 HD
ENDROOT
BRANCH   2   9
ATOM      9  C   UNL     1      35.170 -22.670 -16.556  0.00  0.00    +0.042 C 
ATOM     10  C   UNL     1      33.944 -22.951 -17.183  0.00  0.00    -0.009 C 
ATOM     11  C   UNL     1      36.196 -22.086 -17.317  0.00  0.00    -0.009 C 
ATOM     12  C   UNL     1      33.751 -22.657 -18.533  0.00  0.00    -0.003 C 
ATOM     13  C   UNL     1      36.003 -21.792 -18.667  0.00  0.00    -0.003 C 
ATOM     14  C   UNL     1      32.824 -23.573 -16.415  0.00  0.00    +0.032 C 
ATOM     15  C   UNL     1      37.516 -21.769 -16.693  0.00  0.00    +0.032 C 
ATOM     16  C   UNL     1      34.780 -22.077 -19.275  0.00  0.00    -0.001 C 
ENDBRANCH   2   9
TORSDOF 1
ENDMDL
MODEL 6
REMARK VINA RESULT:      -7.8      5.877      8.907
REMARK  Name = 5707
REMARK  1 active torsions:
REMARK  status: ('A' for Active; 'I' for Inactive)
REMARK    1  A    between atoms: N_2  and  C_9
REMARK                            x       y       z     vdW  Elec       q    Type
REMARK                         _______ _______ _______ _____ _____    ______ ____
ROOT
ATOM      1  S   UNL     1      36.017 -24.001 -12.882  0.00  0.00    -0.080 S 
ATOM      2  N   UNL     1      35.381 -22.933 -15.175  0.00  0.00    -0.294 N 
ATOM      3  N   UNL     1      36.371 -25.028 -15.380  0.00  0.00    -0.251 NA
ATOM      4  C   UNL     1      37.741 -26.014 -13.565  0.00  0.00    +0.038 C 
ATOM      5  C   UNL     1      36.810 -25.563 -12.460  0.00  0.00    +0.067 C 
ATOM      6  C   UNL     1      36.961 -26.245 -14.845  0.00  0.00    +0.128 C 
ATOM      7  C   UNL     1      35.946 -24.061 -14.641  0.00  0.00    +0.155 C 
ATOM      8  H   UNL     1      35.084 -22.245 -14.537  0.00  0.00    +0.154 HD
ENDROOT
BRANCH   2   9
ATOM      9  C   UNL     1      35.184 -22.656 -16.528  0.00  0.00    +0.042 C 
ATOM     10  C   UNL     1      36.206 -22.073 -17.297  0.00  0.00    -0.009 C 
ATOM     11  C   UNL     1      33.960 -22.952 -17.149  0.00  0.00    -0.009 C 
ATOM     12  C   UNL     1      36.008 -21.793 -18.649  0.00  0.00    -0.003 C 
ATOM     13  C   UNL     1      33.762 -22.673 -18.502  0.00  0.00    -0.003 C 
ATOM     14  C   UNL     1      37.524 -21.739 -16.679  0.00  0.00    +0.032 C 
ATOM     15  C   UNL     1      32.845 -23.572 -16.372  0.00  0.00    +0.032 C 
ATOM     16  C   UNL     1      34.786 -22.094 -19.251  0.00  0.00    -0.001 C 
ENDBRANCH   2   9
TORSDOF 1
ENDMDL
MODEL 7
REMARK VINA RESULT:      -7.7      1.719      3.234
REMARK  Name = 5707
REMARK  1 active torsions:
REMARK  status: ('A' for Active; 'I' for Inactive)
REMARK    1  A    between atoms: N_2  and  C_9
REMARK                            x       y       z     vdW  Elec       q    Type
REMARK                         _______ _______ _______ _____ _____    ______ ____
ROOT
ATOM      1  S   UNL     1      34.334 -16.515 -23.490  0.00  0.00    -0.080 S 
ATOM      2  N   UNL     1      34.774 -18.694 -22.125  0.00  0.00    -0.294 N 
ATOM      3  N   UNL     1      34.539 -16.805 -20.789  0.00  0.00    -0.251 NA
ATOM      4  C   UNL     1      34.840 -14.515 -21.690  0.00  0.00    +0.038 C 
ATOM      5  C   UNL     1      34.103 -14.802 -22.981  0.00  0.00    +0.067 C 
ATOM      6  C   UNL     1      34.298 -15.386 -20.573  0.00  0.00    +0.128 C 
ATOM      7  C   UNL     1      34.558 -17.351 -21.955  0.00  0.00    +0.155 C 
ATOM      8  H   UNL     1      34.772 -19.027 -23.051  0.00  0.00    +0.154 HD
ENDROOT
BRANCH   2   9
ATOM      9  C   UNL     1      34.996 -19.639 -21.123  0.00  0.00    +0.042 C 
ATOM     10  C   UNL     1      36.300 -19.925 -20.684  0.00  0.00    -0.009 C 
ATOM     11  C   UNL     1      33.922 -20.325 -20.534  0.00  0.00    -0.009 C 
ATOM     12  C   UNL     1      36.523 -20.872 -19.684  0.00  0.00    -0.003 C 
ATOM     13  C   UNL     1      34.144 -21.272 -19.533  0.00  0.00    -0.003 C 
ATOM     14  C   UNL     1      37.474 -19.221 -21.282  0.00  0.00    +0.032 C 
ATOM     15  C   UNL     1      32.518 -20.054 -20.968  0.00  0.00    +0.032 C 
ATOM     16  C   UNL     1      35.444 -21.544 -19.108  0.00  0.00    -0.001 C 
ENDBRANCH   2   9
TORSDOF 1
ENDMDL
MODEL 8
REMARK VINA RESULT:      -7.7      1.717      2.373
REMARK  Name = 5707
REMARK  1 active torsions:
REMARK  status: ('A' for Active; 'I' for Inactive)
REMARK    1  A    between atoms: N_2  and  C_9
REMARK                            x       y       z     vdW  Elec       q    Type
REMARK                         _______ _______ _______ _____ _____    ______ ____
ROOT
ATOM      1  S   UNL     1      34.320 -16.522 -23.513  0.00  0.00    -0.080 S 
ATOM      2  N   UNL     1      34.772 -18.695 -22.144  0.00  0.00    -0.294 N 
ATOM      3  N   UNL     1      34.523 -16.805 -20.812  0.00  0.00    -0.251 NA
ATOM      4  C   UNL     1      34.809 -14.515 -21.717  0.00  0.00    +0.038 C 
ATOM      5  C   UNL     1      34.076 -14.810 -23.008  0.00  0.00    +0.067 C 
ATOM      6  C   UNL     1      34.271 -15.388 -20.599  0.00  0.00    +0.128 C 
ATOM      7  C   UNL     1      34.547 -17.354 -21.978  0.00  0.00    +0.155 C 
ATOM      8  H   UNL     1      34.775 -19.029 -23.070  0.00  0.00    +0.154 HD
ENDROOT
BRANCH   2   9
ATOM      9  C   UNL     1      35.000 -19.637 -21.141  0.00  0.00    +0.042 C 
ATOM     10  C   UNL     1      33.928 -20.327 -20.549  0.00  0.00    -0.009 C 
ATOM     11  C   UNL     1      36.304 -19.913 -20.700  0.00  0.00    -0.009 C 
ATOM     12  C   UNL     1      34.156 -21.267 -19.543  0.00  0.00    -0.003 C 
ATOM     13  C   UNL     1      36.532 -20.854 -19.695  0.00  0.00    -0.003 C 
ATOM     14  C   UNL     1      32.524 -20.065 -20.984  0.00  0.00    +0.032 C 
ATOM     15  C   UNL     1      37.475 -19.205 -21.300  0.00  0.00    +0.032 C 
ATOM     16  C   UNL     1      35.458 -21.530 -19.117  0.00  0.00    -0.001 C 
ENDBRANCH   2   9
TORSDOF 1
ENDMDL
MODEL 9
REMARK VINA RESULT:      -7.7      9.964     12.885
REMARK  Name = 5707
REMARK  1 active torsions:
REMARK  status: ('A' for Active; 'I' for Inactive)
REMARK    1  A    between atoms: N_2  and  C_9
REMARK                            x       y       z     vdW  Elec       q    Type
REMARK                         _______ _______ _______ _____ _____    ______ ____
ROOT
ATOM      1  S   UNL     1      32.151  -9.251 -19.805  0.00  0.00    -0.080 S 
ATOM      2  N   UNL     1      32.560  -7.485 -21.680  0.00  0.00    -0.294 N 
ATOM      3  N   UNL     1      31.471  -9.395 -22.439  0.00  0.00    -0.251 NA
ATOM      4  C   UNL     1      31.554 -11.535 -21.190  0.00  0.00    +0.038 C 
ATOM      5  C   UNL     1      31.389 -10.883 -19.834  0.00  0.00    +0.067 C 
ATOM      6  C   UNL     1      30.865 -10.705 -22.257  0.00  0.00    +0.128 C 
ATOM      7  C   UNL     1      32.010  -8.724 -21.480  0.00  0.00    +0.155 C 
ATOM      8  H   UNL     1      32.950  -7.044 -20.891  0.00  0.00    +0.154 HD
ENDROOT
BRANCH   2   9
ATOM      9  C   UNL     1      32.625  -6.783 -22.883  0.00  0.00    +0.042 C 
ATOM     10  C   UNL     1      31.634  -5.845 -23.221  0.00  0.00    -0.009 C 
ATOM     11  C   UNL     1      33.681  -6.999 -23.783  0.00  0.00    -0.009 C 
ATOM     12  C   UNL     1      31.698  -5.145 -24.426  0.00  0.00    -0.003 C 
ATOM     13  C   UNL     1      33.746  -6.298 -24.988  0.00  0.00    -0.003 C 
ATOM     14  C   UNL     1      30.491  -5.582 -22.296  0.00  0.00    +0.032 C 
ATOM     15  C   UNL     1      34.758  -7.986 -23.466  0.00  0.00    +0.032 C 
ATOM     16  C   UNL     1      32.755  -5.371 -25.309  0.00  0.00    -0.001 C 
ENDBRANCH   2   9
TORSDOF 1
ENDMDL
