MODEL 1
REMARK VINA RESULT:     -12.2      0.000      0.000
REMARK  Name = 6918388
REMARK  5 active torsions:
REMARK  status: ('A' for Active; 'I' for Inactive)
REMARK    1  A    between atoms: N_1  and  C_4
REMARK    2  A    between atoms: N_1  and  C_15
REMARK    3  A    between atoms: C_4  and  C_6
REMARK    4  A    between atoms: C_15  and  C_17
REMARK    5  A    between atoms: C_19  and  C_23
REMARK                            x       y       z     vdW  Elec       q    Type
REMARK                         _______ _______ _______ _____ _____    ______ ____
ROOT
ATOM      1  N   UNL     1      33.234 -14.345 -23.044  0.00  0.00    +0.389 N 
ATOM      2  H   UNL     1      32.571 -15.117 -23.111  0.00  0.00    -0.084 HD
ATOM      3  H   UNL     1      33.050 -13.788 -22.210  0.00  0.00    -0.084 HD
ENDROOT
BRANCH   1   4
ATOM      4  C   UNL     1      33.091 -13.491 -24.214  0.00  0.00    -0.037 C 
BRANCH   4   6
ATOM      5  O   UNL     1      32.907 -11.274 -23.358  0.00  0.00    -0.482 OA
ATOM      6  C   UNL     1      33.818 -12.167 -24.016  0.00  0.00    +0.145 C 
ATOM      7  C   UNL     1      34.285 -11.598 -25.355  0.00  0.00    +0.046 C 
ATOM      8  C   UNL     1      35.052 -10.305 -25.107  0.00  0.00    +0.033 C 
ATOM      9  C   UNL     1      34.315  -9.435 -24.130  0.00  0.00    +0.012 C 
ATOM     10  C   UNL     1      33.306  -9.964 -23.315  0.00  0.00    +0.134 C 
ATOM     11  C   UNL     1      34.653  -8.081 -24.007  0.00  0.00    -0.001 C 
ATOM     12  C   UNL     1      32.619  -9.139 -22.420  0.00  0.00    +0.037 C 
ATOM     13  C   UNL     1      33.975  -7.262 -23.103  0.00  0.00    -0.000 C 
ATOM     14  C   UNL     1      32.956  -7.791 -22.314  0.00  0.00    +0.003 C 
ENDBRANCH   4   6
ENDBRANCH   1   4
BRANCH   1  15
ATOM     15  C   UNL     1      34.585 -14.883 -22.953  0.00  0.00    -0.053 C 
BRANCH  15  17
ATOM     16  N   UNL     1      34.718 -18.162 -24.803  0.00  0.00    -0.243 NA
ATOM     17  C   UNL     1      34.618 -16.365 -23.213  0.00  0.00    -0.025 C 
ATOM     18  C   UNL     1      34.580 -17.260 -22.161  0.00  0.00    -0.003 C 
ATOM     19  C   UNL     1      34.613 -18.623 -22.432  0.00  0.00    +0.019 C 
ATOM     20  C   UNL     1      34.685 -16.845 -24.501  0.00  0.00    +0.092 C 
ATOM     21  C   UNL     1      34.682 -19.019 -23.758  0.00  0.00    +0.099 C 
BRANCH  19  23
ATOM     22  F   UNL     1      34.468 -22.377 -18.312  0.00  0.00    -0.204 F 
ATOM     23  C   UNL     1      34.576 -19.596 -21.366  0.00  0.00    +0.002 C 
ATOM     24  C   UNL     1      33.351 -20.069 -20.892  0.00  0.00    +0.002 C 
ATOM     25  C   UNL     1      35.764 -20.065 -20.803  0.00  0.00    +0.002 C 
ATOM     26  C   UNL     1      33.314 -21.008 -19.861  0.00  0.00    +0.030 C 
ATOM     27  C   UNL     1      35.728 -21.004 -19.772  0.00  0.00    +0.030 C 
ATOM     28  C   UNL     1      34.503 -21.475 -19.301  0.00  0.00    +0.140 C 
ENDBRANCH  19  23
ENDBRANCH  15  17
ENDBRANCH   1  15
TORSDOF 5
ENDMDL
MODEL 2
REMARK VINA RESULT:     -11.9      0.864      1.907
REMARK  Name = 6918388
REMARK  5 active torsions:
REMARK  status: ('A' for Active; 'I' for Inactive)
REMARK    1  A    between atoms: N_1  and  C_4
REMARK    2  A    between atoms: N_1  and  C_15
REMARK    3  A    between atoms: C_4  and  C_6
REMARK    4  A    between atoms: C_15  and  C_17
REMARK    5  A    between atoms: C_19  and  C_23
REMARK                            x       y       z     vdW  Elec       q    Type
REMARK                         _______ _______ _______ _____ _____    ______ ____
ROOT
ATOM      1  N   UNL     1      34.218 -13.921 -23.221  0.00  0.00    +0.389 N 
ATOM      2  H   UNL     1      34.685 -13.023 -23.103  0.00  0.00    -0.084 HD
ATOM      3  H   UNL     1      34.526 -14.375 -24.081  0.00  0.00    -0.084 HD
ENDROOT
BRANCH   1   4
ATOM      4  C   UNL     1      32.780 -13.703 -23.302  0.00  0.00    -0.037 C 
BRANCH   4   6
ATOM      5  O   UNL     1      33.667 -11.522 -23.669  0.00  0.00    -0.482 OA
ATOM      6  C   UNL     1      32.455 -12.215 -23.338  0.00  0.00    +0.145 C 
ATOM      7  C   UNL     1      31.897 -11.748 -21.995  0.00  0.00    +0.046 C 
ATOM      8  C   UNL     1      31.536 -10.271 -22.091  0.00  0.00    +0.033 C 
ATOM      9  C   UNL     1      32.639  -9.503 -22.761  0.00  0.00    +0.012 C 
ATOM     10  C   UNL     1      33.621 -10.161 -23.511  0.00  0.00    +0.134 C 
ATOM     11  C   UNL     1      32.677  -8.105 -22.663  0.00  0.00    -0.001 C 
ATOM     12  C   UNL     1      34.649  -9.435 -24.118  0.00  0.00    +0.037 C 
ATOM     13  C   UNL     1      33.696  -7.381 -23.281  0.00  0.00    -0.000 C 
ATOM     14  C   UNL     1      34.684  -8.046 -24.004  0.00  0.00    +0.003 C 
ENDBRANCH   4   6
ENDBRANCH   1   4
BRANCH   1  15
ATOM     15  C   UNL     1      34.552 -14.784 -22.096  0.00  0.00    -0.053 C 
BRANCH  15  17
ATOM     16  N   UNL     1      35.026 -17.824 -24.270  0.00  0.00    -0.243 NA
ATOM     17  C   UNL     1      34.683 -16.224 -22.512  0.00  0.00    -0.025 C 
ATOM     18  C   UNL     1      34.586 -17.234 -21.574  0.00  0.00    -0.003 C 
ATOM     19  C   UNL     1      34.712 -18.555 -21.987  0.00  0.00    +0.019 C 
ATOM     20  C   UNL     1      34.899 -16.552 -23.831  0.00  0.00    +0.092 C 
ATOM     21  C   UNL     1      34.929 -18.795 -23.335  0.00  0.00    +0.099 C 
BRANCH  19  23
ATOM     22  F   UNL     1      34.356 -22.763 -18.347  0.00  0.00    -0.204 F 
ATOM     23  C   UNL     1      34.619 -19.644 -21.043  0.00  0.00    +0.002 C 
ATOM     24  C   UNL     1      35.780 -20.231 -20.536  0.00  0.00    +0.002 C 
ATOM     25  C   UNL     1      33.370 -20.115 -20.637  0.00  0.00    +0.002 C 
ATOM     26  C   UNL     1      35.691 -21.284 -19.626  0.00  0.00    +0.030 C 
ATOM     27  C   UNL     1      33.281 -21.168 -19.726  0.00  0.00    +0.030 C 
ATOM     28  C   UNL     1      34.442 -21.752 -19.221  0.00  0.00    +0.140 C 
ENDBRANCH  19  23
ENDBRANCH  15  17
ENDBRANCH   1  15
TORSDOF 5
ENDMDL
MODEL 3
REMARK VINA RESULT:     -11.8      1.611      2.608
REMARK  Name = 6918388
REMARK  5 active torsions:
REMARK  status: ('A' for Active; 'I' for Inactive)
REMARK    1  A    between atoms: N_1  and  C_4
REMARK    2  A    between atoms: N_1  and  C_15
REMARK    3  A    between atoms: C_4  and  C_6
REMARK    4  A    between atoms: C_15  and  C_17
REMARK    5  A    between atoms: C_19  and  C_23
REMARK                            x       y       z     vdW  Elec       q    Type
REMARK                         _______ _______ _______ _____ _____    ______ ____
ROOT
ATOM      1  N   UNL     1      32.906 -14.192 -21.579  0.00  0.00    +0.389 N 
ATOM      2  H   UNL     1      32.439 -15.095 -21.503  0.00  0.00    -0.084 HD
ATOM      3  H   UNL     1      32.937 -13.729 -20.671  0.00  0.00    -0.084 HD
ENDROOT
BRANCH   1   4
ATOM      4  C   UNL     1      32.164 -13.348 -22.505  0.00  0.00    -0.037 C 
BRANCH   4   6
ATOM      5  O   UNL     1      32.460 -10.984 -22.428  0.00  0.00    -0.482 OA
ATOM      6  C   UNL     1      31.718 -12.057 -21.830  0.00  0.00    +0.145 C 
ATOM      7  C   UNL     1      31.955 -12.122 -20.322  0.00  0.00    +0.046 C 
ATOM      8  C   UNL     1      31.447 -10.838 -19.680  0.00  0.00    +0.033 C 
ATOM      9  C   UNL     1      31.902  -9.642 -20.467  0.00  0.00    +0.012 C 
ATOM     10  C   UNL     1      32.365  -9.779 -21.782  0.00  0.00    +0.134 C 
ATOM     11  C   UNL     1      31.840  -8.364 -19.895  0.00  0.00    -0.001 C 
ATOM     12  C   UNL     1      32.798  -8.660 -22.497  0.00  0.00    +0.037 C 
ATOM     13  C   UNL     1      32.260  -7.246 -20.615  0.00  0.00    -0.000 C 
ATOM     14  C   UNL     1      32.742  -7.395 -21.914  0.00  0.00    +0.003 C 
ENDBRANCH   4   6
ENDBRANCH   1   4
BRANCH   1  15
ATOM     15  C   UNL     1      34.272 -14.399 -22.041  0.00  0.00    -0.053 C 
BRANCH  15  17
ATOM     16  N   UNL     1      35.021 -17.308 -24.315  0.00  0.00    -0.243 NA
ATOM     17  C   UNL     1      34.498 -15.811 -22.511  0.00  0.00    -0.025 C 
ATOM     18  C   UNL     1      34.399 -16.866 -21.626  0.00  0.00    -0.003 C 
ATOM     19  C   UNL     1      34.614 -18.159 -22.088  0.00  0.00    +0.019 C 
ATOM     20  C   UNL     1      34.806 -16.065 -23.828  0.00  0.00    +0.092 C 
ATOM     21  C   UNL     1      34.919 -18.325 -23.430  0.00  0.00    +0.099 C 
BRANCH  19  23
ATOM     22  F   UNL     1      34.263 -22.545 -18.664  0.00  0.00    -0.204 F 
ATOM     23  C   UNL     1      34.522 -19.294 -21.200  0.00  0.00    +0.002 C 
ATOM     24  C   UNL     1      35.683 -19.941 -20.770  0.00  0.00    +0.002 C 
ATOM     25  C   UNL     1      33.275 -19.750 -20.772  0.00  0.00    +0.002 C 
ATOM     26  C   UNL     1      35.595 -21.038 -19.913  0.00  0.00    +0.030 C 
ATOM     27  C   UNL     1      33.187 -20.848 -19.915  0.00  0.00    +0.030 C 
ATOM     28  C   UNL     1      34.347 -21.491 -19.487  0.00  0.00    +0.140 C 
ENDBRANCH  19  23
ENDBRANCH  15  17
ENDBRANCH   1  15
TORSDOF 5
ENDMDL
MODEL 4
REMARK VINA RESULT:     -11.6      1.347      1.885
REMARK  Name = 6918388
REMARK  5 active torsions:
REMARK  status: ('A' for Active; 'I' for Inactive)
REMARK    1  A    between atoms: N_1  and  C_4
REMARK    2  A    between atoms: N_1  and  C_15
REMARK    3  A    between atoms: C_4  and  C_6
REMARK    4  A    between atoms: C_15  and  C_17
REMARK    5  A    between atoms: C_19  and  C_23
REMARK                            x       y       z     vdW  Elec       q    Type
REMARK                         _______ _______ _______ _____ _____    ______ ____
ROOT
ATOM      1  N   UNL     1      34.080 -12.989 -23.504  0.00  0.00    +0.389 N 
ATOM      2  H   UNL     1      33.966 -12.581 -22.577  0.00  0.00    -0.084 HD
ATOM      3  H   UNL     1      35.008 -13.401 -23.602  0.00  0.00    -0.084 HD
ENDROOT
BRANCH   1   4
ATOM      4  C   UNL     1      33.927 -11.945 -24.507  0.00  0.00    -0.037 C 
BRANCH   4   6
ATOM      5  O   UNL     1      32.571 -10.065 -23.955  0.00  0.00    -0.482 OA
ATOM      6  C   UNL     1      33.913 -10.566 -23.861  0.00  0.00    +0.145 C 
ATOM      7  C   UNL     1      34.903  -9.630 -24.553  0.00  0.00    +0.046 C 
ATOM      8  C   UNL     1      34.896  -8.282 -23.844  0.00  0.00    +0.033 C 
ATOM      9  C   UNL     1      33.487  -7.833 -23.583  0.00  0.00    +0.012 C 
ATOM     10  C   UNL     1      32.420  -8.739 -23.641  0.00  0.00    +0.134 C 
ATOM     11  C   UNL     1      33.230  -6.497 -23.250  0.00  0.00    -0.001 C 
ATOM     12  C   UNL     1      31.113  -8.305 -23.410  0.00  0.00    +0.037 C 
ATOM     13  C   UNL     1      31.925  -6.067 -23.006  0.00  0.00    -0.000 C 
ATOM     14  C   UNL     1      30.867  -6.970 -23.090  0.00  0.00    +0.003 C 
ENDBRANCH   4   6
ENDBRANCH   1   4
BRANCH   1  15
ATOM     15  C   UNL     1      33.086 -14.039 -23.688  0.00  0.00    -0.053 C 
BRANCH  15  17
ATOM     16  N   UNL     1      34.510 -16.904 -25.677  0.00  0.00    -0.243 NA
ATOM     17  C   UNL     1      33.723 -15.364 -24.011  0.00  0.00    -0.025 C 
ATOM     18  C   UNL     1      34.090 -16.227 -22.998  0.00  0.00    -0.003 C 
ATOM     19  C   UNL     1      34.676 -17.444 -23.326  0.00  0.00    +0.019 C 
ATOM     20  C   UNL     1      33.944 -15.730 -25.319  0.00  0.00    +0.092 C 
ATOM     21  C   UNL     1      34.863 -17.733 -24.669  0.00  0.00    +0.099 C 
BRANCH  19  23
ATOM     22  F   UNL     1      36.222 -21.052 -19.366  0.00  0.00    -0.204 F 
ATOM     23  C   UNL     1      35.078 -18.379 -22.301  0.00  0.00    +0.002 C 
ATOM     24  C   UNL     1      34.139 -19.247 -21.739  0.00  0.00    +0.002 C 
ATOM     25  C   UNL     1      36.403 -18.417 -21.867  0.00  0.00    +0.002 C 
ATOM     26  C   UNL     1      34.526 -20.150 -20.748  0.00  0.00    +0.030 C 
ATOM     27  C   UNL     1      36.790 -19.320 -20.876  0.00  0.00    +0.030 C 
ATOM     28  C   UNL     1      35.851 -20.185 -20.317  0.00  0.00    +0.140 C 
ENDBRANCH  19  23
ENDBRANCH  15  17
ENDBRANCH   1  15
TORSDOF 5
ENDMDL
MODEL 5
REMARK VINA RESULT:     -11.4      4.550     10.433
REMARK  Name = 6918388
REMARK  5 active torsions:
REMARK  status: ('A' for Active; 'I' for Inactive)
REMARK    1  A    between atoms: N_1  and  C_4
REMARK    2  A    between atoms: N_1  and  C_15
REMARK    3  A    between atoms: C_4  and  C_6
REMARK    4  A    between atoms: C_15  and  C_17
REMARK    5  A    between atoms: C_19  and  C_23
REMARK                            x       y       z     vdW  Elec       q    Type
REMARK                         _______ _______ _______ _____ _____    ______ ____
ROOT
ATOM      1  N   UNL     1      31.533 -12.389 -21.985  0.00  0.00    +0.389 N 
ATOM      2  H   UNL     1      30.836 -12.931 -22.494  0.00  0.00    -0.084 HD
ATOM      3  H   UNL     1      32.061 -11.796 -22.626  0.00  0.00    -0.084 HD
ENDROOT
BRANCH   1   4
ATOM      4  C   UNL     1      32.459 -13.300 -21.326  0.00  0.00    -0.037 C 
BRANCH   4   6
ATOM      5  O   UNL     1      33.661 -15.352 -21.481  0.00  0.00    -0.482 OA
ATOM      6  C   UNL     1      32.784 -14.489 -22.221  0.00  0.00    +0.145 C 
ATOM      7  C   UNL     1      33.431 -14.027 -23.526  0.00  0.00    +0.046 C 
ATOM      8  C   UNL     1      33.690 -15.240 -24.412  0.00  0.00    +0.033 C 
ATOM      9  C   UNL     1      34.307 -16.352 -23.613  0.00  0.00    +0.012 C 
ATOM     10  C   UNL     1      34.248 -16.350 -22.213  0.00  0.00    +0.134 C 
ATOM     11  C   UNL     1      34.928 -17.422 -24.270  0.00  0.00    -0.001 C 
ATOM     12  C   UNL     1      34.839 -17.385 -21.483  0.00  0.00    +0.037 C 
ATOM     13  C   UNL     1      35.506 -18.461 -23.539  0.00  0.00    -0.000 C 
ATOM     14  C   UNL     1      35.465 -18.439 -22.146  0.00  0.00    +0.003 C 
ENDBRANCH   4   6
ENDBRANCH   1   4
BRANCH   1  15
ATOM     15  C   UNL     1      30.859 -11.537 -21.014  0.00  0.00    -0.053 C 
BRANCH  15  17
ATOM     16  N   UNL     1      32.346  -8.444 -19.460  0.00  0.00    -0.243 NA
ATOM     17  C   UNL     1      31.528 -10.194 -20.886  0.00  0.00    -0.025 C 
ATOM     18  C   UNL     1      31.922  -9.500 -22.012  0.00  0.00    -0.003 C 
ATOM     19  C   UNL     1      32.538  -8.263 -21.863  0.00  0.00    +0.019 C 
ATOM     20  C   UNL     1      31.752  -9.644 -19.645  0.00  0.00    +0.092 C 
ATOM     21  C   UNL     1      32.725  -7.783 -20.576  0.00  0.00    +0.099 C 
BRANCH  19  23
ATOM     22  F   UNL     1      34.206  -5.316 -26.293  0.00  0.00    -0.204 F 
ATOM     23  C   UNL     1      32.968  -7.500 -23.011  0.00  0.00    +0.002 C 
ATOM     24  C   UNL     1      34.279  -7.620 -23.479  0.00  0.00    +0.002 C 
ATOM     25  C   UNL     1      32.079  -6.640 -23.656  0.00  0.00    +0.002 C 
ATOM     26  C   UNL     1      34.696  -6.882 -24.587  0.00  0.00    +0.030 C 
ATOM     27  C   UNL     1      32.496  -5.902 -24.764  0.00  0.00    +0.030 C 
ATOM     28  C   UNL     1      33.805  -6.024 -25.229  0.00  0.00    +0.140 C 
ENDBRANCH  19  23
ENDBRANCH  15  17
ENDBRANCH   1  15
TORSDOF 5
ENDMDL
MODEL 6
REMARK VINA RESULT:     -11.4      4.712     10.562
REMARK  Name = 6918388
REMARK  5 active torsions:
REMARK  status: ('A' for Active; 'I' for Inactive)
REMARK    1  A    between atoms: N_1  and  C_4
REMARK    2  A    between atoms: N_1  and  C_15
REMARK    3  A    between atoms: C_4  and  C_6
REMARK    4  A    between atoms: C_15  and  C_17
REMARK    5  A    between atoms: C_19  and  C_23
REMARK                            x       y       z     vdW  Elec       q    Type
REMARK                         _______ _______ _______ _____ _____    ______ ____
ROOT
ATOM      1  N   UNL     1      31.958 -12.448 -20.855  0.00  0.00    +0.389 N 
ATOM      2  H   UNL     1      32.813 -12.068 -20.451  0.00  0.00    -0.084 HD
ATOM      3  H   UNL     1      31.576 -13.182 -20.259  0.00  0.00    -0.084 HD
ENDROOT
BRANCH   1   4
ATOM      4  C   UNL     1      32.261 -13.020 -22.160  0.00  0.00    -0.037 C 
BRANCH   4   6
ATOM      5  O   UNL     1      33.288 -14.904 -23.198  0.00  0.00    -0.482 OA
ATOM      6  C   UNL     1      33.393 -14.034 -22.061  0.00  0.00    +0.145 C 
ATOM      7  C   UNL     1      33.309 -14.819 -20.753  0.00  0.00    +0.046 C 
ATOM      8  C   UNL     1      34.487 -15.781 -20.670  0.00  0.00    +0.033 C 
ATOM      9  C   UNL     1      34.669 -16.502 -21.975  0.00  0.00    +0.012 C 
ATOM     10  C   UNL     1      34.077 -16.023 -23.150  0.00  0.00    +0.134 C 
ATOM     11  C   UNL     1      35.463 -17.655 -22.030  0.00  0.00    -0.001 C 
ATOM     12  C   UNL     1      34.244 -16.712 -24.354  0.00  0.00    +0.037 C 
ATOM     13  C   UNL     1      35.639 -18.335 -23.236  0.00  0.00    -0.000 C 
ATOM     14  C   UNL     1      35.026 -17.865 -24.396  0.00  0.00    +0.003 C 
ENDBRANCH   4   6
ENDBRANCH   1   4
BRANCH   1  15
ATOM     15  C   UNL     1      30.970 -11.383 -20.970  0.00  0.00    -0.053 C 
BRANCH  15  17
ATOM     16  N   UNL     1      32.365  -8.204 -19.507  0.00  0.00    -0.243 NA
ATOM     17  C   UNL     1      31.601 -10.020 -20.881  0.00  0.00    -0.025 C 
ATOM     18  C   UNL     1      31.982  -9.350 -22.027  0.00  0.00    -0.003 C 
ATOM     19  C   UNL     1      32.563  -8.093 -21.914  0.00  0.00    +0.019 C 
ATOM     20  C   UNL     1      31.804  -9.425 -19.656  0.00  0.00    +0.092 C 
ATOM     21  C   UNL     1      32.731  -7.568 -20.642  0.00  0.00    +0.099 C 
BRANCH  19  23
ATOM     22  F   UNL     1      34.172  -5.241 -26.427  0.00  0.00    -0.204 F 
ATOM     23  C   UNL     1      32.978  -7.355 -23.083  0.00  0.00    +0.002 C 
ATOM     24  C   UNL     1      34.266  -7.525 -23.597  0.00  0.00    +0.002 C 
ATOM     25  C   UNL     1      32.097  -6.468 -23.703  0.00  0.00    +0.002 C 
ATOM     26  C   UNL     1      34.669  -6.811 -24.726  0.00  0.00    +0.030 C 
ATOM     27  C   UNL     1      32.499  -5.755 -24.832  0.00  0.00    +0.030 C 
ATOM     28  C   UNL     1      33.785  -5.926 -25.343  0.00  0.00    +0.140 C 
ENDBRANCH  19  23
ENDBRANCH  15  17
ENDBRANCH   1  15
TORSDOF 5
ENDMDL
MODEL 7
REMARK VINA RESULT:     -11.4      5.841     11.576
REMARK  Name = 6918388
REMARK  5 active torsions:
REMARK  status: ('A' for Active; 'I' for Inactive)
REMARK    1  A    between atoms: N_1  and  C_4
REMARK    2  A    between atoms: N_1  and  C_15
REMARK    3  A    between atoms: C_4  and  C_6
REMARK    4  A    between atoms: C_15  and  C_17
REMARK    5  A    between atoms: C_19  and  C_23
REMARK                            x       y       z     vdW  Elec       q    Type
REMARK                         _______ _______ _______ _____ _____    ______ ____
ROOT
ATOM      1  N   UNL     1      36.472 -21.329 -17.393  0.00  0.00    +0.389 N 
ATOM      2  H   UNL     1      36.935 -20.431 -17.256  0.00  0.00    -0.084 HD
ATOM      3  H   UNL     1      35.495 -21.273 -17.104  0.00  0.00    -0.084 HD
ENDROOT
BRANCH   1   4
ATOM      4  C   UNL     1      37.138 -22.338 -16.582  0.00  0.00    -0.037 C 
BRANCH   4   6
ATOM      5  O   UNL     1      34.820 -22.829 -16.329  0.00  0.00    -0.482 OA
ATOM      6  C   UNL     1      36.123 -23.241 -15.891  0.00  0.00    +0.145 C 
ATOM      7  C   UNL     1      36.255 -23.144 -14.372  0.00  0.00    +0.046 C 
ATOM      8  C   UNL     1      35.261 -24.100 -13.723  0.00  0.00    +0.033 C 
ATOM      9  C   UNL     1      33.914 -23.980 -14.376  0.00  0.00    +0.012 C 
ATOM     10  C   UNL     1      33.773 -23.370 -15.629  0.00  0.00    +0.134 C 
ATOM     11  C   UNL     1      32.781 -24.506 -13.741  0.00  0.00    -0.001 C 
ATOM     12  C   UNL     1      32.511 -23.253 -16.218  0.00  0.00    +0.037 C 
ATOM     13  C   UNL     1      31.524 -24.401 -14.337  0.00  0.00    -0.000 C 
ATOM     14  C   UNL     1      31.389 -23.771 -15.572  0.00  0.00    +0.003 C 
ENDBRANCH   4   6
ENDBRANCH   1   4
BRANCH   1  15
ATOM     15  C   UNL     1      36.519 -21.680 -18.805  0.00  0.00    -0.053 C 
BRANCH  15  17
ATOM     16  N   UNL     1      32.956 -21.035 -19.845  0.00  0.00    -0.243 NA
ATOM     17  C   UNL     1      35.339 -21.131 -19.561  0.00  0.00    -0.025 C 
ATOM     18  C   UNL     1      35.528 -20.260 -20.616  0.00  0.00    -0.003 C 
ATOM     19  C   UNL     1      34.419 -19.769 -21.294  0.00  0.00    +0.019 C 
ATOM     20  C   UNL     1      34.058 -21.491 -19.209  0.00  0.00    +0.092 C 
ATOM     21  C   UNL     1      33.165 -20.183 -20.873  0.00  0.00    +0.099 C 
BRANCH  19  23
ATOM     22  F   UNL     1      34.996 -16.246 -25.578  0.00  0.00    -0.204 F 
ATOM     23  C   UNL     1      34.567 -18.856 -22.403  0.00  0.00    +0.002 C 
ATOM     24  C   UNL     1      34.544 -19.337 -23.714  0.00  0.00    +0.002 C 
ATOM     25  C   UNL     1      34.737 -17.490 -22.169  0.00  0.00    +0.002 C 
ATOM     26  C   UNL     1      34.689 -18.456 -24.785  0.00  0.00    +0.030 C 
ATOM     27  C   UNL     1      34.881 -16.609 -23.241  0.00  0.00    +0.030 C 
ATOM     28  C   UNL     1      34.857 -17.092 -24.548  0.00  0.00    +0.140 C 
ENDBRANCH  19  23
ENDBRANCH  15  17
ENDBRANCH   1  15
TORSDOF 5
ENDMDL
MODEL 8
REMARK VINA RESULT:     -11.3      5.837     12.342
REMARK  Name = 6918388
REMARK  5 active torsions:
REMARK  status: ('A' for Active; 'I' for Inactive)
REMARK    1  A    between atoms: N_1  and  C_4
REMARK    2  A    between atoms: N_1  and  C_15
REMARK    3  A    between atoms: C_4  and  C_6
REMARK    4  A    between atoms: C_15  and  C_17
REMARK    5  A    between atoms: C_19  and  C_23
REMARK                            x       y       z     vdW  Elec       q    Type
REMARK                         _______ _______ _______ _____ _____    ______ ____
ROOT
ATOM      1  N   UNL     1      36.142 -22.005 -17.902  0.00  0.00    +0.389 N 
ATOM      2  H   UNL     1      35.258 -21.593 -17.606  0.00  0.00    -0.084 HD
ATOM      3  H   UNL     1      36.072 -23.022 -17.926  0.00  0.00    -0.084 HD
ENDROOT
BRANCH   1   4
ATOM      4  C   UNL     1      37.182 -21.634 -16.952  0.00  0.00    -0.037 C 
BRANCH   4   6
ATOM      5  O   UNL     1      37.951 -23.317 -15.449  0.00  0.00    -0.482 OA
ATOM      6  C   UNL     1      36.949 -22.300 -15.601  0.00  0.00    +0.145 C 
ATOM      7  C   UNL     1      35.542 -22.890 -15.521  0.00  0.00    +0.046 C 
ATOM      8  C   UNL     1      35.333 -23.497 -14.139  0.00  0.00    +0.033 C 
ATOM      9  C   UNL     1      36.524 -24.322 -13.742  0.00  0.00    +0.012 C 
ATOM     10  C   UNL     1      37.751 -24.179 -14.403  0.00  0.00    +0.134 C 
ATOM     11  C   UNL     1      36.422 -25.230 -12.680  0.00  0.00    -0.001 C 
ATOM     12  C   UNL     1      38.846 -24.963 -14.031  0.00  0.00    +0.037 C 
ATOM     13  C   UNL     1      37.521 -26.002 -12.301  0.00  0.00    -0.000 C 
ATOM     14  C   UNL     1      38.730 -25.871 -12.980  0.00  0.00    +0.003 C 
ENDBRANCH   4   6
ENDBRANCH   1   4
BRANCH   1  15
ATOM     15  C   UNL     1      36.465 -21.530 -19.240  0.00  0.00    -0.053 C 
BRANCH  15  17
ATOM     16  N   UNL     1      32.883 -20.717 -20.077  0.00  0.00    -0.243 NA
ATOM     17  C   UNL     1      35.271 -20.919 -19.923  0.00  0.00    -0.025 C 
ATOM     18  C   UNL     1      35.442 -20.042 -20.976  0.00  0.00    -0.003 C 
ATOM     19  C   UNL     1      34.321 -19.493 -21.587  0.00  0.00    +0.019 C 
ATOM     20  C   UNL     1      33.997 -21.230 -19.507  0.00  0.00    +0.092 C 
ATOM     21  C   UNL     1      33.074 -19.860 -21.104  0.00  0.00    +0.099 C 
BRANCH  19  23
ATOM     22  F   UNL     1      34.810 -15.928 -25.846  0.00  0.00    -0.204 F 
ATOM     23  C   UNL     1      34.449 -18.571 -22.691  0.00  0.00    +0.002 C 
ATOM     24  C   UNL     1      34.569 -17.201 -22.447  0.00  0.00    +0.002 C 
ATOM     25  C   UNL     1      34.450 -19.044 -24.004  0.00  0.00    +0.002 C 
ATOM     26  C   UNL     1      34.691 -16.309 -23.513  0.00  0.00    +0.030 C 
ATOM     27  C   UNL     1      34.572 -18.151 -25.069  0.00  0.00    +0.030 C 
ATOM     28  C   UNL     1      34.692 -16.784 -24.823  0.00  0.00    +0.140 C 
ENDBRANCH  19  23
ENDBRANCH  15  17
ENDBRANCH   1  15
TORSDOF 5
ENDMDL
MODEL 9
REMARK VINA RESULT:     -11.3      5.900     12.037
REMARK  Name = 6918388
REMARK  5 active torsions:
REMARK  status: ('A' for Active; 'I' for Inactive)
REMARK    1  A    between atoms: N_1  and  C_4
REMARK    2  A    between atoms: N_1  and  C_15
REMARK    3  A    between atoms: C_4  and  C_6
REMARK    4  A    between atoms: C_15  and  C_17
REMARK    5  A    between atoms: C_19  and  C_23
REMARK                            x       y       z     vdW  Elec       q    Type
REMARK                         _______ _______ _______ _____ _____    ______ ____
ROOT
ATOM      1  N   UNL     1      36.787 -21.070 -17.787  0.00  0.00    +0.389 N 
ATOM      2  H   UNL     1      37.386 -20.253 -17.901  0.00  0.00    -0.084 HD
ATOM      3  H   UNL     1      35.892 -20.803 -17.377  0.00  0.00    -0.084 HD
ENDROOT
BRANCH   1   4
ATOM      4  C   UNL     1      37.440 -22.020 -16.898  0.00  0.00    -0.037 C 
BRANCH   4   6
ATOM      5  O   UNL     1      37.441 -22.823 -14.654  0.00  0.00    -0.482 OA
ATOM      6  C   UNL     1      36.576 -22.308 -15.677  0.00  0.00    +0.145 C 
ATOM      7  C   UNL     1      35.466 -23.301 -16.018  0.00  0.00    +0.046 C 
ATOM      8  C   UNL     1      34.595 -23.519 -14.787  0.00  0.00    +0.033 C 
ATOM      9  C   UNL     1      35.450 -23.727 -13.569  0.00  0.00    +0.012 C 
ATOM     10  C   UNL     1      36.802 -23.362 -13.568  0.00  0.00    +0.134 C 
ATOM     11  C   UNL     1      34.887 -24.268 -12.405  0.00  0.00    -0.001 C 
ATOM     12  C   UNL     1      37.588 -23.574 -12.432  0.00  0.00    +0.037 C 
ATOM     13  C   UNL     1      35.670 -24.466 -11.268  0.00  0.00    -0.000 C 
ATOM     14  C   UNL     1      37.021 -24.123 -11.283  0.00  0.00    +0.003 C 
ENDBRANCH   4   6
ENDBRANCH   1   4
BRANCH   1  15
ATOM     15  C   UNL     1      36.539 -21.665 -19.094  0.00  0.00    -0.053 C 
BRANCH  15  17
ATOM     16  N   UNL     1      32.952 -20.846 -19.904  0.00  0.00    -0.243 NA
ATOM     17  C   UNL     1      35.340 -21.054 -19.770  0.00  0.00    -0.025 C 
ATOM     18  C   UNL     1      35.505 -20.183 -20.828  0.00  0.00    -0.003 C 
ATOM     19  C   UNL     1      34.380 -19.634 -21.433  0.00  0.00    +0.019 C 
ATOM     20  C   UNL     1      34.068 -21.359 -19.342  0.00  0.00    +0.092 C 
ATOM     21  C   UNL     1      33.136 -19.994 -20.938  0.00  0.00    +0.099 C 
BRANCH  19  23
ATOM     22  F   UNL     1      34.854 -16.097 -25.718  0.00  0.00    -0.204 F 
ATOM     23  C   UNL     1      34.501 -18.717 -22.542  0.00  0.00    +0.002 C 
ATOM     24  C   UNL     1      34.493 -19.200 -23.852  0.00  0.00    +0.002 C 
ATOM     25  C   UNL     1      34.630 -17.347 -22.309  0.00  0.00    +0.002 C 
ATOM     26  C   UNL     1      34.612 -18.315 -24.925  0.00  0.00    +0.030 C 
ATOM     27  C   UNL     1      34.750 -16.462 -23.381  0.00  0.00    +0.030 C 
ATOM     28  C   UNL     1      34.740 -16.947 -24.688  0.00  0.00    +0.140 C 
ENDBRANCH  19  23
ENDBRANCH  15  17
ENDBRANCH   1  15
TORSDOF 5
ENDMDL
