MODEL 1
REMARK VINA RESULT:      -4.1      0.000      0.000
REMARK  Name = 5641
REMARK  2 active torsions:
REMARK  status: ('A' for Active; 'I' for Inactive)
REMARK    1  A    between atoms: C_3  and  O_6
REMARK    2  A    between atoms: O_6  and  C_7
REMARK                            x       y       z     vdW  Elec       q    Type
REMARK                         _______ _______ _______ _____ _____    ______ ____
ROOT
ATOM      1  O   UNL     1      36.671 -27.259 -16.198  0.00  0.00    -0.227 OA
ATOM      2  N   UNL     1      36.299 -26.052 -14.276  0.00  0.00    -0.295 N 
ATOM      3  C   UNL     1      37.068 -26.804 -15.130  0.00  0.00    +0.398 C 
ATOM      4  H   UNL     1      36.683 -25.718 -13.434  0.00  0.00    +0.148 HD
ATOM      5  H   UNL     1      35.363 -25.848 -14.505  0.00  0.00    +0.148 HD
ENDROOT
BRANCH   3   6
ATOM      6  O   UNL     1      38.323 -26.965 -14.621  0.00  0.00    -0.435 OA
BRANCH   6   7
ATOM      7  C   UNL     1      38.946 -25.779 -14.116  0.00  0.00    +0.210 C 
ATOM      8  C   UNL     1      40.216 -25.518 -14.898  0.00  0.00    +0.051 C 
ENDBRANCH   6   7
ENDBRANCH   3   6
TORSDOF 2
ENDMDL
MODEL 2
REMARK VINA RESULT:      -4.1     11.084     11.963
REMARK  Name = 5641
REMARK  2 active torsions:
REMARK  status: ('A' for Active; 'I' for Inactive)
REMARK    1  A    between atoms: C_3  and  O_6
REMARK    2  A    between atoms: O_6  and  C_7
REMARK                            x       y       z     vdW  Elec       q    Type
REMARK                         _______ _______ _______ _____ _____    ______ ____
ROOT
ATOM      1  O   UNL     1      25.574 -22.026 -15.955  0.00  0.00    -0.227 OA
ATOM      2  N   UNL     1      25.754 -20.883 -17.942  0.00  0.00    -0.295 N 
ATOM      3  C   UNL     1      26.251 -21.617 -16.893  0.00  0.00    +0.398 C 
ATOM      4  H   UNL     1      26.356 -20.586 -18.663  0.00  0.00    +0.148 HD
ATOM      5  H   UNL     1      24.797 -20.653 -17.974  0.00  0.00    +0.148 HD
ENDROOT
BRANCH   3   6
ATOM      6  O   UNL     1      27.591 -21.820 -17.048  0.00  0.00    -0.435 OA
BRANCH   6   7
ATOM      7  C   UNL     1      28.272 -22.362 -15.910  0.00  0.00    +0.210 C 
ATOM      8  C   UNL     1      28.902 -23.683 -16.295  0.00  0.00    +0.051 C 
ENDBRANCH   6   7
ENDBRANCH   3   6
TORSDOF 2
ENDMDL
MODEL 3
REMARK VINA RESULT:      -4.0      3.941      4.323
REMARK  Name = 5641
REMARK  2 active torsions:
REMARK  status: ('A' for Active; 'I' for Inactive)
REMARK    1  A    between atoms: C_3  and  O_6
REMARK    2  A    between atoms: O_6  and  C_7
REMARK                            x       y       z     vdW  Elec       q    Type
REMARK                         _______ _______ _______ _____ _____    ______ ____
ROOT
ATOM      1  O   UNL     1      35.224 -25.070 -10.426  0.00  0.00    -0.227 OA
ATOM      2  N   UNL     1      35.445 -23.502 -12.094  0.00  0.00    -0.295 N 
ATOM      3  C   UNL     1      35.926 -24.344 -11.122  0.00  0.00    +0.398 C 
ATOM      4  H   UNL     1      36.068 -22.946 -12.616  0.00  0.00    +0.148 HD
ATOM      5  H   UNL     1      34.477 -23.454 -12.269  0.00  0.00    +0.148 HD
ENDROOT
BRANCH   3   6
ATOM      6  O   UNL     1      37.285 -24.254 -11.046  0.00  0.00    -0.435 OA
BRANCH   6   7
ATOM      7  C   UNL     1      37.979 -24.261 -12.299  0.00  0.00    +0.210 C 
ATOM      8  C   UNL     1      38.220 -25.694 -12.722  0.00  0.00    +0.051 C 
ENDBRANCH   6   7
ENDBRANCH   3   6
TORSDOF 2
ENDMDL
MODEL 4
REMARK VINA RESULT:      -3.9      9.491     10.002
REMARK  Name = 5641
REMARK  2 active torsions:
REMARK  status: ('A' for Active; 'I' for Inactive)
REMARK    1  A    between atoms: C_3  and  O_6
REMARK    2  A    between atoms: O_6  and  C_7
REMARK                            x       y       z     vdW  Elec       q    Type
REMARK                         _______ _______ _______ _____ _____    ______ ____
ROOT
ATOM      1  O   UNL     1      27.691 -23.888 -17.626  0.00  0.00    -0.227 OA
ATOM      2  N   UNL     1      27.083 -22.284 -16.096  0.00  0.00    -0.295 N 
ATOM      3  C   UNL     1      27.963 -22.903 -16.948  0.00  0.00    +0.398 C 
ATOM      4  H   UNL     1      27.369 -21.495 -15.581  0.00  0.00    +0.148 HD
ATOM      5  H   UNL     1      26.165 -22.628 -15.999  0.00  0.00    +0.148 HD
ENDROOT
BRANCH   3   6
ATOM      6  O   UNL     1      29.170 -22.267 -16.929  0.00  0.00    -0.435 OA
BRANCH   6   7
ATOM      7  C   UNL     1      30.272 -23.042 -16.443  0.00  0.00    +0.210 C 
ATOM      8  C   UNL     1      30.440 -22.785 -14.961  0.00  0.00    +0.051 C 
ENDBRANCH   6   7
ENDBRANCH   3   6
TORSDOF 2
ENDMDL
MODEL 5
REMARK VINA RESULT:      -3.9     11.551     12.133
REMARK  Name = 5641
REMARK  2 active torsions:
REMARK  status: ('A' for Active; 'I' for Inactive)
REMARK    1  A    between atoms: C_3  and  O_6
REMARK    2  A    between atoms: O_6  and  C_7
REMARK                            x       y       z     vdW  Elec       q    Type
REMARK                         _______ _______ _______ _____ _____    ______ ____
ROOT
ATOM      1  O   UNL     1      42.507 -16.570 -15.750  0.00  0.00    -0.227 OA
ATOM      2  N   UNL     1      42.172 -16.862 -18.006  0.00  0.00    -0.295 N 
ATOM      3  C   UNL     1      41.949 -16.254 -16.795  0.00  0.00    +0.398 C 
ATOM      4  H   UNL     1      41.688 -16.556 -18.806  0.00  0.00    +0.148 HD
ATOM      5  H   UNL     1      42.816 -17.604 -18.074  0.00  0.00    +0.148 HD
ENDROOT
BRANCH   3   6
ATOM      6  O   UNL     1      41.026 -15.258 -16.927  0.00  0.00    -0.435 OA
BRANCH   6   7
ATOM      7  C   UNL     1      41.253 -14.338 -18.001  0.00  0.00    +0.210 C 
ATOM      8  C   UNL     1      42.020 -13.144 -17.474  0.00  0.00    +0.051 C 
ENDBRANCH   6   7
ENDBRANCH   3   6
TORSDOF 2
ENDMDL
MODEL 6
REMARK VINA RESULT:      -3.9     12.628     13.046
REMARK  Name = 5641
REMARK  2 active torsions:
REMARK  status: ('A' for Active; 'I' for Inactive)
REMARK    1  A    between atoms: C_3  and  O_6
REMARK    2  A    between atoms: O_6  and  C_7
REMARK                            x       y       z     vdW  Elec       q    Type
REMARK                         _______ _______ _______ _____ _____    ______ ____
ROOT
ATOM      1  O   UNL     1      40.792 -15.176 -14.555  0.00  0.00    -0.227 OA
ATOM      2  N   UNL     1      40.619 -13.063 -13.666  0.00  0.00    -0.295 N 
ATOM      3  C   UNL     1      40.962 -13.965 -14.643  0.00  0.00    +0.398 C 
ATOM      4  H   UNL     1      40.784 -12.102 -13.804  0.00  0.00    +0.148 HD
ATOM      5  H   UNL     1      40.210 -13.376 -12.827  0.00  0.00    +0.148 HD
ENDROOT
BRANCH   3   6
ATOM      6  O   UNL     1      41.511 -13.320 -15.713  0.00  0.00    -0.435 OA
BRANCH   6   7
ATOM      7  C   UNL     1      42.112 -14.163 -16.703  0.00  0.00    +0.210 C 
ATOM      8  C   UNL     1      41.222 -14.197 -17.927  0.00  0.00    +0.051 C 
ENDBRANCH   6   7
ENDBRANCH   3   6
TORSDOF 2
ENDMDL
MODEL 7
REMARK VINA RESULT:      -3.9      1.959      2.149
REMARK  Name = 5641
REMARK  2 active torsions:
REMARK  status: ('A' for Active; 'I' for Inactive)
REMARK    1  A    between atoms: C_3  and  O_6
REMARK    2  A    between atoms: O_6  and  C_7
REMARK                            x       y       z     vdW  Elec       q    Type
REMARK                         _______ _______ _______ _____ _____    ______ ____
ROOT
ATOM      1  O   UNL     1      36.718 -27.368 -16.229  0.00  0.00    -0.227 OA
ATOM      2  N   UNL     1      36.846 -26.884 -13.985  0.00  0.00    -0.295 N 
ATOM      3  C   UNL     1      36.675 -26.560 -15.308  0.00  0.00    +0.398 C 
ATOM      4  H   UNL     1      36.798 -26.182 -13.296  0.00  0.00    +0.148 HD
ATOM      5  H   UNL     1      37.015 -27.819 -13.725  0.00  0.00    +0.148 HD
ENDROOT
BRANCH   3   6
ATOM      6  O   UNL     1      36.454 -25.220 -15.444  0.00  0.00    -0.435 OA
BRANCH   6   7
ATOM      7  C   UNL     1      37.480 -24.366 -14.926  0.00  0.00    +0.210 C 
ATOM      8  C   UNL     1      37.447 -23.049 -15.671  0.00  0.00    +0.051 C 
ENDBRANCH   6   7
ENDBRANCH   3   6
TORSDOF 2
ENDMDL
MODEL 8
REMARK VINA RESULT:      -3.9      2.165      3.205
REMARK  Name = 5641
REMARK  2 active torsions:
REMARK  status: ('A' for Active; 'I' for Inactive)
REMARK    1  A    between atoms: C_3  and  O_6
REMARK    2  A    between atoms: O_6  and  C_7
REMARK                            x       y       z     vdW  Elec       q    Type
REMARK                         _______ _______ _______ _____ _____    ______ ____
ROOT
ATOM      1  O   UNL     1      41.091 -25.387 -14.591  0.00  0.00    -0.227 OA
ATOM      2  N   UNL     1      39.181 -24.579 -15.584  0.00  0.00    -0.295 N 
ATOM      3  C   UNL     1      39.911 -25.518 -14.898  0.00  0.00    +0.398 C 
ATOM      4  H   UNL     1      38.236 -24.751 -15.798  0.00  0.00    +0.148 HD
ATOM      5  H   UNL     1      39.603 -23.733 -15.862  0.00  0.00    +0.148 HD
ENDROOT
BRANCH   3   6
ATOM      6  O   UNL     1      39.138 -26.606 -14.614  0.00  0.00    -0.435 OA
BRANCH   6   7
ATOM      7  C   UNL     1      37.759 -26.332 -14.338  0.00  0.00    +0.210 C 
ATOM      8  C   UNL     1      37.588 -26.115 -12.850  0.00  0.00    +0.051 C 
ENDBRANCH   6   7
ENDBRANCH   3   6
TORSDOF 2
ENDMDL
MODEL 9
REMARK VINA RESULT:      -3.8      1.921      2.403
REMARK  Name = 5641
REMARK  2 active torsions:
REMARK  status: ('A' for Active; 'I' for Inactive)
REMARK    1  A    between atoms: C_3  and  O_6
REMARK    2  A    between atoms: O_6  and  C_7
REMARK                            x       y       z     vdW  Elec       q    Type
REMARK                         _______ _______ _______ _____ _____    ______ ____
ROOT
ATOM      1  O   UNL     1      38.415 -26.983 -14.639  0.00  0.00    -0.227 OA
ATOM      2  N   UNL     1      36.141 -26.802 -14.930  0.00  0.00    -0.295 N 
ATOM      3  C   UNL     1      37.290 -26.820 -14.178  0.00  0.00    +0.398 C 
ATOM      4  H   UNL     1      35.269 -26.666 -14.493  0.00  0.00    +0.148 HD
ATOM      5  H   UNL     1      36.188 -26.924 -15.906  0.00  0.00    +0.148 HD
ENDROOT
BRANCH   3   6
ATOM      6  O   UNL     1      36.997 -26.633 -12.859  0.00  0.00    -0.435 OA
BRANCH   6   7
ATOM      7  C   UNL     1      36.669 -25.291 -12.480  0.00  0.00    +0.210 C 
ATOM      8  C   UNL     1      37.937 -24.569 -12.078  0.00  0.00    +0.051 C 
ENDBRANCH   6   7
ENDBRANCH   3   6
TORSDOF 2
ENDMDL
