MODEL 1
REMARK VINA RESULT:      -5.5      0.000      0.000
REMARK  Name = 347402
REMARK  6 active torsions:
REMARK  status: ('A' for Active; 'I' for Inactive)
REMARK    1  A    between atoms: C_1  and  C_2
REMARK    2  A    between atoms: C_1  and  C_7
REMARK    3  A    between atoms: C_2  and  C_3
REMARK    4  A    between atoms: C_3  and  C_4
REMARK    5  A    between atoms: C_4  and  C_5
REMARK    6  A    between atoms: C_7  and  N_9
REMARK                            x       y       z     vdW  Elec       q    Type
REMARK                         _______ _______ _______ _____ _____    ______ ____
ROOT
ATOM      1  C   UNL     1      32.940 -20.288 -20.617  0.00  0.00    +0.021 C 
ENDROOT
BRANCH   1   2
ATOM      2  C   UNL     1      33.744 -19.059 -21.055  0.00  0.00    +0.002 C 
BRANCH   2   3
ATOM      3  C   UNL     1      35.146 -19.401 -21.566  0.00  0.00    +0.000 C 
BRANCH   3   4
ATOM      4  C   UNL     1      35.553 -18.606 -22.810  0.00  0.00    +0.000 C 
BRANCH   4   5
ATOM      5  C   UNL     1      34.776 -19.073 -24.043  0.00  0.00    +0.000 C 
ATOM      6  C   UNL     1      34.523 -17.927 -25.008  0.00  0.00    +0.000 C 
ENDBRANCH   4   5
ENDBRANCH   3   4
ENDBRANCH   2   3
ENDBRANCH   1   2
BRANCH   1   7
ATOM      7  C   UNL     1      33.731 -21.199 -19.683  0.00  0.00    +0.090 C 
BRANCH   7   9
ATOM      8  O   UNL     1      34.518 -23.111 -17.602  0.00  0.00    -0.265 OA
ATOM      9  N   UNL     1      32.886 -22.080 -18.924  0.00  0.00    -0.297 N 
ATOM     10  C   UNL     1      33.358 -22.948 -17.960  0.00  0.00    +0.300 C 
ATOM     11  H   UNL     1      31.918 -22.063 -19.101  0.00  0.00    +0.150 HD
ENDBRANCH   7   9
ENDBRANCH   1   7
TORSDOF 6
ENDMDL
MODEL 2
REMARK VINA RESULT:      -5.5      4.100      6.268
REMARK  Name = 347402
REMARK  6 active torsions:
REMARK  status: ('A' for Active; 'I' for Inactive)
REMARK    1  A    between atoms: C_1  and  C_2
REMARK    2  A    between atoms: C_1  and  C_7
REMARK    3  A    between atoms: C_2  and  C_3
REMARK    4  A    between atoms: C_3  and  C_4
REMARK    5  A    between atoms: C_4  and  C_5
REMARK    6  A    between atoms: C_7  and  N_9
REMARK                            x       y       z     vdW  Elec       q    Type
REMARK                         _______ _______ _______ _____ _____    ______ ____
ROOT
ATOM      1  C   UNL     1      35.566 -18.262 -22.418  0.00  0.00    +0.021 C 
ENDROOT
BRANCH   1   2
ATOM      2  C   UNL     1      34.575 -19.405 -22.171  0.00  0.00    +0.002 C 
BRANCH   2   3
ATOM      3  C   UNL     1      34.589 -19.920 -20.729  0.00  0.00    +0.000 C 
BRANCH   3   4
ATOM      4  C   UNL     1      33.225 -20.426 -20.249  0.00  0.00    +0.000 C 
BRANCH   4   5
ATOM      5  C   UNL     1      33.374 -21.671 -19.374  0.00  0.00    +0.000 C 
ATOM      6  C   UNL     1      34.835 -22.004 -19.122  0.00  0.00    +0.000 C 
ENDBRANCH   4   5
ENDBRANCH   3   4
ENDBRANCH   2   3
ENDBRANCH   1   2
BRANCH   1   7
ATOM      7  C   UNL     1      34.869 -16.957 -22.789  0.00  0.00    +0.090 C 
BRANCH   7   9
ATOM      8  O   UNL     1      33.935 -17.657 -25.480  0.00  0.00    -0.265 OA
ATOM      9  N   UNL     1      35.319 -16.430 -24.049  0.00  0.00    -0.297 N 
ATOM     10  C   UNL     1      34.810 -16.828 -25.269  0.00  0.00    +0.300 C 
ATOM     11  H   UNL     1      36.027 -15.746 -24.040  0.00  0.00    +0.150 HD
ENDBRANCH   7   9
ENDBRANCH   1   7
TORSDOF 6
ENDMDL
MODEL 3
REMARK VINA RESULT:      -5.4      4.588      6.646
REMARK  Name = 347402
REMARK  6 active torsions:
REMARK  status: ('A' for Active; 'I' for Inactive)
REMARK    1  A    between atoms: C_1  and  C_2
REMARK    2  A    between atoms: C_1  and  C_7
REMARK    3  A    between atoms: C_2  and  C_3
REMARK    4  A    between atoms: C_3  and  C_4
REMARK    5  A    between atoms: C_4  and  C_5
REMARK    6  A    between atoms: C_7  and  N_9
REMARK                            x       y       z     vdW  Elec       q    Type
REMARK                         _______ _______ _______ _____ _____    ______ ____
ROOT
ATOM      1  C   UNL     1      34.671 -18.915 -23.922  0.00  0.00    +0.021 C 
ENDROOT
BRANCH   1   2
ATOM      2  C   UNL     1      35.471 -18.317 -22.760  0.00  0.00    +0.002 C 
BRANCH   2   3
ATOM      3  C   UNL     1      34.745 -18.404 -21.415  0.00  0.00    +0.000 C 
BRANCH   3   4
ATOM      4  C   UNL     1      34.726 -19.817 -20.823  0.00  0.00    +0.000 C 
BRANCH   4   5
ATOM      5  C   UNL     1      33.305 -20.240 -20.450  0.00  0.00    +0.000 C 
ATOM      6  C   UNL     1      33.309 -21.408 -19.476  0.00  0.00    +0.000 C 
ENDBRANCH   4   5
ENDBRANCH   3   4
ENDBRANCH   2   3
ENDBRANCH   1   2
BRANCH   1   7
ATOM      7  C   UNL     1      34.489 -17.929 -25.072  0.00  0.00    +0.090 C 
BRANCH   7   9
ATOM      8  O   UNL     1      33.351 -15.690 -26.587  0.00  0.00    -0.265 OA
ATOM      9  N   UNL     1      34.236 -16.589 -24.617  0.00  0.00    -0.297 N 
ATOM     10  C   UNL     1      33.694 -15.602 -25.415  0.00  0.00    +0.300 C 
ATOM     11  H   UNL     1      34.462 -16.364 -23.686  0.00  0.00    +0.150 HD
ENDBRANCH   7   9
ENDBRANCH   1   7
TORSDOF 6
ENDMDL
MODEL 4
REMARK VINA RESULT:      -5.4      1.523      1.821
REMARK  Name = 347402
REMARK  6 active torsions:
REMARK  status: ('A' for Active; 'I' for Inactive)
REMARK    1  A    between atoms: C_1  and  C_2
REMARK    2  A    between atoms: C_1  and  C_7
REMARK    3  A    between atoms: C_2  and  C_3
REMARK    4  A    between atoms: C_3  and  C_4
REMARK    5  A    between atoms: C_4  and  C_5
REMARK    6  A    between atoms: C_7  and  N_9
REMARK                            x       y       z     vdW  Elec       q    Type
REMARK                         _______ _______ _______ _____ _____    ______ ____
ROOT
ATOM      1  C   UNL     1      32.910 -20.274 -20.140  0.00  0.00    +0.021 C 
ENDROOT
BRANCH   1   2
ATOM      2  C   UNL     1      33.589 -19.657 -21.367  0.00  0.00    +0.002 C 
BRANCH   2   3
ATOM      3  C   UNL     1      35.118 -19.726 -21.314  0.00  0.00    +0.000 C 
BRANCH   3   4
ATOM      4  C   UNL     1      35.782 -18.365 -21.089  0.00  0.00    +0.000 C 
BRANCH   4   5
ATOM      5  C   UNL     1      35.018 -17.251 -21.806  0.00  0.00    +0.000 C 
ATOM      6  C   UNL     1      34.724 -16.087 -20.873  0.00  0.00    +0.000 C 
ENDBRANCH   4   5
ENDBRANCH   3   4
ENDBRANCH   2   3
ENDBRANCH   1   2
BRANCH   1   7
ATOM      7  C   UNL     1      33.693 -21.454 -19.572  0.00  0.00    +0.090 C 
BRANCH   7   9
ATOM      8  O   UNL     1      34.525 -23.165 -17.340  0.00  0.00    -0.265 OA
ATOM      9  N   UNL     1      32.877 -22.326 -18.772  0.00  0.00    -0.297 N 
ATOM     10  C   UNL     1      33.369 -23.095 -17.736  0.00  0.00    +0.300 C 
ATOM     11  H   UNL     1      31.915 -22.377 -18.973  0.00  0.00    +0.150 HD
ENDBRANCH   7   9
ENDBRANCH   1   7
TORSDOF 6
ENDMDL
MODEL 5
REMARK VINA RESULT:      -5.4      4.647      6.365
REMARK  Name = 347402
REMARK  6 active torsions:
REMARK  status: ('A' for Active; 'I' for Inactive)
REMARK    1  A    between atoms: C_1  and  C_2
REMARK    2  A    between atoms: C_1  and  C_7
REMARK    3  A    between atoms: C_2  and  C_3
REMARK    4  A    between atoms: C_3  and  C_4
REMARK    5  A    between atoms: C_4  and  C_5
REMARK    6  A    between atoms: C_7  and  N_9
REMARK                            x       y       z     vdW  Elec       q    Type
REMARK                         _______ _______ _______ _____ _____    ______ ____
ROOT
ATOM      1  C   UNL     1      34.070 -15.839 -21.825  0.00  0.00    +0.021 C 
ENDROOT
BRANCH   1   2
ATOM      2  C   UNL     1      34.927 -16.930 -21.173  0.00  0.00    +0.002 C 
BRANCH   2   3
ATOM      3  C   UNL     1      35.408 -17.996 -22.161  0.00  0.00    +0.000 C 
BRANCH   3   4
ATOM      4  C   UNL     1      34.520 -19.244 -22.192  0.00  0.00    +0.000 C 
BRANCH   4   5
ATOM      5  C   UNL     1      34.349 -19.835 -20.792  0.00  0.00    +0.000 C 
ATOM      6  C   UNL     1      32.888 -20.124 -20.485  0.00  0.00    +0.000 C 
ENDBRANCH   4   5
ENDBRANCH   3   4
ENDBRANCH   2   3
ENDBRANCH   1   2
BRANCH   1   7
ATOM      7  C   UNL     1      34.646 -15.363 -23.155  0.00  0.00    +0.090 C 
BRANCH   7   9
ATOM      8  O   UNL     1      34.789 -16.674 -25.775  0.00  0.00    -0.265 OA
ATOM      9  N   UNL     1      33.667 -15.349 -24.208  0.00  0.00    -0.297 N 
ATOM     10  C   UNL     1      33.832 -16.003 -25.412  0.00  0.00    +0.300 C 
ATOM     11  H   UNL     1      32.834 -14.845 -24.062  0.00  0.00    +0.150 HD
ENDBRANCH   7   9
ENDBRANCH   1   7
TORSDOF 6
ENDMDL
MODEL 6
REMARK VINA RESULT:      -5.2      3.781      5.665
REMARK  Name = 347402
REMARK  6 active torsions:
REMARK  status: ('A' for Active; 'I' for Inactive)
REMARK    1  A    between atoms: C_1  and  C_2
REMARK    2  A    between atoms: C_1  and  C_7
REMARK    3  A    between atoms: C_2  and  C_3
REMARK    4  A    between atoms: C_3  and  C_4
REMARK    5  A    between atoms: C_4  and  C_5
REMARK    6  A    between atoms: C_7  and  N_9
REMARK                            x       y       z     vdW  Elec       q    Type
REMARK                         _______ _______ _______ _____ _____    ______ ____
ROOT
ATOM      1  C   UNL     1      34.799 -18.027 -22.605  0.00  0.00    +0.021 C 
ENDROOT
BRANCH   1   2
ATOM      2  C   UNL     1      35.790 -18.796 -21.724  0.00  0.00    +0.002 C 
BRANCH   2   3
ATOM      3  C   UNL     1      35.115 -19.790 -20.775  0.00  0.00    +0.000 C 
BRANCH   3   4
ATOM      4  C   UNL     1      33.589 -19.813 -20.901  0.00  0.00    +0.000 C 
BRANCH   4   5
ATOM      5  C   UNL     1      32.958 -20.689 -19.817  0.00  0.00    +0.000 C 
ATOM      6  C   UNL     1      33.886 -21.821 -19.406  0.00  0.00    +0.000 C 
ENDBRANCH   4   5
ENDBRANCH   3   4
ENDBRANCH   2   3
ENDBRANCH   1   2
BRANCH   1   7
ATOM      7  C   UNL     1      35.243 -16.591 -22.864  0.00  0.00    +0.090 C 
BRANCH   7   9
ATOM      8  O   UNL     1      34.945 -15.561 -20.134  0.00  0.00    -0.265 OA
ATOM      9  N   UNL     1      34.296 -15.624 -22.380  0.00  0.00    -0.297 N 
ATOM     10  C   UNL     1      34.238 -15.203 -21.067  0.00  0.00    +0.300 C 
ATOM     11  H   UNL     1      33.655 -15.241 -23.021  0.00  0.00    +0.150 HD
ENDBRANCH   7   9
ENDBRANCH   1   7
TORSDOF 6
ENDMDL
MODEL 7
REMARK VINA RESULT:      -5.1      2.326      2.922
REMARK  Name = 347402
REMARK  6 active torsions:
REMARK  status: ('A' for Active; 'I' for Inactive)
REMARK    1  A    between atoms: C_1  and  C_2
REMARK    2  A    between atoms: C_1  and  C_7
REMARK    3  A    between atoms: C_2  and  C_3
REMARK    4  A    between atoms: C_3  and  C_4
REMARK    5  A    between atoms: C_4  and  C_5
REMARK    6  A    between atoms: C_7  and  N_9
REMARK                            x       y       z     vdW  Elec       q    Type
REMARK                         _______ _______ _______ _____ _____    ______ ____
ROOT
ATOM      1  C   UNL     1      33.650 -19.382 -21.034  0.00  0.00    +0.021 C 
ENDROOT
BRANCH   1   2
ATOM      2  C   UNL     1      34.566 -19.098 -22.229  0.00  0.00    +0.002 C 
BRANCH   2   3
ATOM      3  C   UNL     1      35.083 -17.657 -22.270  0.00  0.00    +0.000 C 
BRANCH   3   4
ATOM      4  C   UNL     1      34.953 -16.925 -20.932  0.00  0.00    +0.000 C 
BRANCH   4   5
ATOM      5  C   UNL     1      34.330 -15.541 -21.117  0.00  0.00    +0.000 C 
ATOM      6  C   UNL     1      32.826 -15.573 -20.894  0.00  0.00    +0.000 C 
ENDBRANCH   4   5
ENDBRANCH   3   4
ENDBRANCH   2   3
ENDBRANCH   1   2
BRANCH   1   7
ATOM      7  C   UNL     1      34.113 -20.584 -20.217  0.00  0.00    +0.090 C 
BRANCH   7   9
ATOM      8  O   UNL     1      35.632 -22.295 -18.382  0.00  0.00    -0.265 OA
ATOM      9  N   UNL     1      35.523 -20.552 -19.938  0.00  0.00    -0.297 N 
ATOM     10  C   UNL     1      36.145 -21.408 -19.051  0.00  0.00    +0.300 C 
ATOM     11  H   UNL     1      36.075 -19.885 -20.406  0.00  0.00    +0.150 HD
ENDBRANCH   7   9
ENDBRANCH   1   7
TORSDOF 6
ENDMDL
MODEL 8
REMARK VINA RESULT:      -5.1      3.421      5.658
REMARK  Name = 347402
REMARK  6 active torsions:
REMARK  status: ('A' for Active; 'I' for Inactive)
REMARK    1  A    between atoms: C_1  and  C_2
REMARK    2  A    between atoms: C_1  and  C_7
REMARK    3  A    between atoms: C_2  and  C_3
REMARK    4  A    between atoms: C_3  and  C_4
REMARK    5  A    between atoms: C_4  and  C_5
REMARK    6  A    between atoms: C_7  and  N_9
REMARK                            x       y       z     vdW  Elec       q    Type
REMARK                         _______ _______ _______ _____ _____    ______ ____
ROOT
ATOM      1  C   UNL     1      33.295 -19.754 -20.667  0.00  0.00    +0.021 C 
ENDROOT
BRANCH   1   2
ATOM      2  C   UNL     1      33.412 -21.025 -19.818  0.00  0.00    +0.002 C 
BRANCH   2   3
ATOM      3  C   UNL     1      34.835 -21.587 -19.759  0.00  0.00    +0.000 C 
BRANCH   3   4
ATOM      4  C   UNL     1      35.257 -22.032 -18.356  0.00  0.00    +0.000 C 
BRANCH   4   5
ATOM      5  C   UNL     1      36.694 -21.607 -18.051  0.00  0.00    +0.000 C 
ATOM      6  C   UNL     1      37.129 -22.067 -16.669  0.00  0.00    +0.000 C 
ENDBRANCH   4   5
ENDBRANCH   3   4
ENDBRANCH   2   3
ENDBRANCH   1   2
BRANCH   1   7
ATOM      7  C   UNL     1      34.586 -19.431 -21.413  0.00  0.00    +0.090 C 
BRANCH   7   9
ATOM      8  O   UNL     1      35.188 -16.736 -20.424  0.00  0.00    -0.265 OA
ATOM      9  N   UNL     1      34.513 -18.187 -22.130  0.00  0.00    -0.297 N 
ATOM     10  C   UNL     1      34.820 -16.964 -21.569  0.00  0.00    +0.300 C 
ATOM     11  H   UNL     1      34.230 -18.210 -23.073  0.00  0.00    +0.150 HD
ENDBRANCH   7   9
ENDBRANCH   1   7
TORSDOF 6
ENDMDL
MODEL 9
REMARK VINA RESULT:      -5.1      4.322      5.524
REMARK  Name = 347402
REMARK  6 active torsions:
REMARK  status: ('A' for Active; 'I' for Inactive)
REMARK    1  A    between atoms: C_1  and  C_2
REMARK    2  A    between atoms: C_1  and  C_7
REMARK    3  A    between atoms: C_2  and  C_3
REMARK    4  A    between atoms: C_3  and  C_4
REMARK    5  A    between atoms: C_4  and  C_5
REMARK    6  A    between atoms: C_7  and  N_9
REMARK                            x       y       z     vdW  Elec       q    Type
REMARK                         _______ _______ _______ _____ _____    ______ ____
ROOT
ATOM      1  C   UNL     1      37.359 -21.823 -16.392  0.00  0.00    +0.021 C 
ENDROOT
BRANCH   1   2
ATOM      2  C   UNL     1      36.242 -22.071 -17.412  0.00  0.00    +0.002 C 
BRANCH   2   3
ATOM      3  C   UNL     1      36.510 -21.427 -18.775  0.00  0.00    +0.000 C 
BRANCH   3   4
ATOM      4  C   UNL     1      35.429 -21.730 -19.816  0.00  0.00    +0.000 C 
BRANCH   4   5
ATOM      5  C   UNL     1      34.725 -20.450 -20.271  0.00  0.00    +0.000 C 
ATOM      6  C   UNL     1      33.215 -20.570 -20.144  0.00  0.00    +0.000 C 
ENDBRANCH   4   5
ENDBRANCH   3   4
ENDBRANCH   2   3
ENDBRANCH   1   2
BRANCH   1   7
ATOM      7  C   UNL     1      37.303 -22.797 -15.219  0.00  0.00    +0.090 C 
BRANCH   7   9
ATOM      8  O   UNL     1      38.892 -24.551 -13.487  0.00  0.00    -0.265 OA
ATOM      9  N   UNL     1      37.871 -24.079 -15.538  0.00  0.00    -0.297 N 
ATOM     10  C   UNL     1      38.608 -24.830 -14.644  0.00  0.00    +0.300 C 
ATOM     11  H   UNL     1      37.726 -24.440 -16.441  0.00  0.00    +0.150 HD
ENDBRANCH   7   9
ENDBRANCH   1   7
TORSDOF 6
ENDMDL
