MODEL 1
REMARK VINA RESULT:      -9.7      0.000      0.000
REMARK  Name = 1981
REMARK  8 active torsions:
REMARK  status: ('A' for Active; 'I' for Inactive)
REMARK    1  A    between atoms: C_3  and  C_22
REMARK    2  A    between atoms: C_10  and  C_14
REMARK    3  A    between atoms: C_11  and  O_20
REMARK    4  A    between atoms: C_22  and  C_24
REMARK    5  A    between atoms: C_24  and  O_25
REMARK    6  A    between atoms: O_25  and  C_26
REMARK    7  A    between atoms: C_26  and  C_28
REMARK    8  A    between atoms: C_28  and  O_29
REMARK                            x       y       z     vdW  Elec       q    Type
REMARK                         _______ _______ _______ _____ _____    ______ ____
ROOT
ATOM      1  O   UNL     1      35.701 -18.083 -24.048  0.00  0.00    -0.267 OA
ATOM      2  N   UNL     1      34.196 -16.563 -23.308  0.00  0.00    -0.279 N 
ATOM      3  C   UNL     1      33.206 -14.775 -24.248  0.00  0.00    +0.003 A 
ATOM      4  C   UNL     1      33.089 -14.646 -22.845  0.00  0.00    +0.017 A 
ATOM      5  C   UNL     1      33.875 -15.946 -24.503  0.00  0.00    +0.041 A 
ATOM      6  C   UNL     1      33.704 -15.766 -22.268  0.00  0.00    +0.066 A 
ATOM      7  C   UNL     1      32.506 -13.668 -22.012  0.00  0.00    +0.038 C 
ATOM      8  C   UNL     1      33.755 -15.918 -20.869  0.00  0.00    +0.021 C 
ATOM      9  C   UNL     1      34.222 -16.498 -25.835  0.00  0.00    +0.050 C 
ATOM     10  C   UNL     1      34.869 -17.798 -23.193  0.00  0.00    +0.264 C 
ATOM     11  C   UNL     1      32.553 -13.824 -20.625  0.00  0.00    +0.139 C 
ATOM     12  C   UNL     1      33.171 -14.934 -20.064  0.00  0.00    +0.038 C 
ENDROOT
BRANCH  10  14
ATOM     13 CL   UNL     1      34.007 -21.745 -18.782  0.00  0.00    -0.082 Cl
ATOM     14  C   UNL     1      34.656 -18.772 -22.104  0.00  0.00    +0.057 C 
ATOM     15  C   UNL     1      35.747 -19.258 -21.387  0.00  0.00    +0.006 C 
ATOM     16  C   UNL     1      33.367 -19.200 -21.800  0.00  0.00    +0.006 C 
ATOM     17  C   UNL     1      35.546 -20.179 -20.358  0.00  0.00    +0.012 C 
ATOM     18  C   UNL     1      33.166 -20.120 -20.772  0.00  0.00    +0.012 C 
ATOM     19  C   UNL     1      34.256 -20.609 -20.051  0.00  0.00    +0.058 C 
ENDBRANCH  10  14
BRANCH  11  20
ATOM     20  O   UNL     1      31.991 -12.880 -19.821  0.00  0.00    -0.471 OA
ATOM     21  C   UNL     1      31.600 -11.654 -20.435  0.00  0.00    +0.252 C 
ENDBRANCH  11  20
BRANCH   3  22
ATOM     22  C   UNL     1      32.697 -13.824 -25.259  0.00  0.00    +0.137 C 
BRANCH  22  24
ATOM     23  O   UNL     1      34.039 -12.480 -26.783  0.00  0.00    -0.250 OA
ATOM     24  C   UNL     1      33.718 -12.764 -25.638  0.00  0.00    +0.322 C 
BRANCH  24  25
ATOM     25  O   UNL     1      34.212 -12.185 -24.502  0.00  0.00    -0.436 OA
BRANCH  25  26
ATOM     26  C   UNL     1      33.757 -10.854 -24.241  0.00  0.00    +0.317 C 
BRANCH  26  28
ATOM     27  O   UNL     1      35.040  -8.842 -23.783  0.00  0.00    -0.246 OA
ATOM     28  C   UNL     1      34.897  -9.886 -24.400  0.00  0.00    +0.359 C 
BRANCH  28  29
ATOM     29  O   UNL     1      35.768 -10.337 -25.338  0.00  0.00    -0.478 OA
ATOM     30  H   UNL     1      35.698 -11.215 -25.658  0.00  0.00    +0.295 HD
ENDBRANCH  28  29
ENDBRANCH  26  28
ENDBRANCH  25  26
ENDBRANCH  24  25
ENDBRANCH  22  24
ENDBRANCH   3  22
TORSDOF 8
ENDMDL
MODEL 2
REMARK VINA RESULT:      -9.3      6.160      9.683
REMARK  Name = 1981
REMARK  8 active torsions:
REMARK  status: ('A' for Active; 'I' for Inactive)
REMARK    1  A    between atoms: C_3  and  C_22
REMARK    2  A    between atoms: C_10  and  C_14
REMARK    3  A    between atoms: C_11  and  O_20
REMARK    4  A    between atoms: C_22  and  C_24
REMARK    5  A    between atoms: C_24  and  O_25
REMARK    6  A    between atoms: O_25  and  C_26
REMARK    7  A    between atoms: C_26  and  C_28
REMARK    8  A    between atoms: C_28  and  O_29
REMARK                            x       y       z     vdW  Elec       q    Type
REMARK                         _______ _______ _______ _____ _____    ______ ____
ROOT
ATOM      1  O   UNL     1      37.578 -21.760 -16.171  0.00  0.00    -0.267 OA
ATOM      2  N   UNL     1      35.541 -22.579 -16.720  0.00  0.00    -0.279 N 
ATOM      3  C   UNL     1      34.187 -22.309 -18.496  0.00  0.00    +0.003 A 
ATOM      4  C   UNL     1      33.405 -22.801 -17.426  0.00  0.00    +0.017 A 
ATOM      5  C   UNL     1      35.478 -22.189 -18.046  0.00  0.00    +0.041 A 
ATOM      6  C   UNL     1      34.257 -22.971 -16.326  0.00  0.00    +0.066 A 
ATOM      7  C   UNL     1      32.036 -23.121 -17.301  0.00  0.00    +0.038 C 
ATOM      8  C   UNL     1      33.759 -23.445 -15.098  0.00  0.00    +0.021 C 
ATOM      9  C   UNL     1      36.649 -21.716 -18.822  0.00  0.00    +0.050 C 
ATOM     10  C   UNL     1      36.717 -22.603 -15.941  0.00  0.00    +0.264 C 
ATOM     11  C   UNL     1      31.547 -23.598 -16.083  0.00  0.00    +0.139 C 
ATOM     12  C   UNL     1      32.399 -23.756 -14.997  0.00  0.00    +0.038 C 
ENDROOT
BRANCH  10  14
ATOM     13 CL   UNL     1      37.805 -26.498 -11.534  0.00  0.00    -0.082 Cl
ATOM     14  C   UNL     1      36.986 -23.564 -14.854  0.00  0.00    +0.057 C 
ATOM     15  C   UNL     1      37.171 -24.912 -15.151  0.00  0.00    +0.006 C 
ATOM     16  C   UNL     1      37.053 -23.119 -13.537  0.00  0.00    +0.006 C 
ATOM     17  C   UNL     1      37.424 -25.821 -14.123  0.00  0.00    +0.012 C 
ATOM     18  C   UNL     1      37.306 -24.027 -12.509  0.00  0.00    +0.012 C 
ATOM     19  C   UNL     1      37.492 -25.378 -12.802  0.00  0.00    +0.058 C 
ENDBRANCH  10  14
BRANCH  11  20
ATOM     20  O   UNL     1      30.226 -23.906 -15.961  0.00  0.00    -0.471 OA
ATOM     21  C   UNL     1      29.894 -25.027 -15.143  0.00  0.00    +0.252 C 
ENDBRANCH  11  20
BRANCH   3  22
ATOM     22  C   UNL     1      33.705 -21.986 -19.856  0.00  0.00    +0.137 C 
BRANCH  22  24
ATOM     23  O   UNL     1      32.193 -20.078 -19.914  0.00  0.00    -0.250 OA
ATOM     24  C   UNL     1      33.327 -20.524 -20.016  0.00  0.00    +0.322 C 
BRANCH  24  25
ATOM     25  O   UNL     1      34.451 -19.794 -20.288  0.00  0.00    -0.436 OA
BRANCH  25  26
ATOM     26  C   UNL     1      34.519 -19.236 -21.605  0.00  0.00    +0.317 C 
BRANCH  26  28
ATOM     27  O   UNL     1      35.307 -17.135 -20.674  0.00  0.00    -0.246 OA
ATOM     28  C   UNL     1      35.310 -17.958 -21.576  0.00  0.00    +0.359 C 
BRANCH  28  29
ATOM     29  O   UNL     1      36.048 -17.838 -22.710  0.00  0.00    -0.478 OA
ATOM     30  H   UNL     1      35.654 -18.005 -23.543  0.00  0.00    +0.295 HD
ENDBRANCH  28  29
ENDBRANCH  26  28
ENDBRANCH  25  26
ENDBRANCH  24  25
ENDBRANCH  22  24
ENDBRANCH   3  22
TORSDOF 8
ENDMDL
MODEL 3
REMARK VINA RESULT:      -9.3      4.826      9.300
REMARK  Name = 1981
REMARK  8 active torsions:
REMARK  status: ('A' for Active; 'I' for Inactive)
REMARK    1  A    between atoms: C_3  and  C_22
REMARK    2  A    between atoms: C_10  and  C_14
REMARK    3  A    between atoms: C_11  and  O_20
REMARK    4  A    between atoms: C_22  and  C_24
REMARK    5  A    between atoms: C_24  and  O_25
REMARK    6  A    between atoms: O_25  and  C_26
REMARK    7  A    between atoms: C_26  and  C_28
REMARK    8  A    between atoms: C_28  and  O_29
REMARK                            x       y       z     vdW  Elec       q    Type
REMARK                         _______ _______ _______ _____ _____    ______ ____
ROOT
ATOM      1  O   UNL     1      31.564  -9.048 -20.197  0.00  0.00    -0.267 OA
ATOM      2  N   UNL     1      32.344  -9.912 -22.138  0.00  0.00    -0.279 N 
ATOM      3  C   UNL     1      32.607 -12.008 -22.909  0.00  0.00    +0.003 A 
ATOM      4  C   UNL     1      33.425 -11.155 -23.685  0.00  0.00    +0.017 A 
ATOM      5  C   UNL     1      31.958 -11.230 -21.983  0.00  0.00    +0.041 A 
ATOM      6  C   UNL     1      33.251  -9.851 -23.201  0.00  0.00    +0.066 A 
ATOM      7  C   UNL     1      34.302 -11.384 -24.767  0.00  0.00    +0.038 C 
ATOM      8  C   UNL     1      33.950  -8.772 -23.775  0.00  0.00    +0.021 C 
ATOM      9  C   UNL     1      30.992 -11.691 -20.958  0.00  0.00    +0.050 C 
ATOM     10  C   UNL     1      31.859  -8.833 -21.367  0.00  0.00    +0.264 C 
ATOM     11  C   UNL     1      34.989 -10.310 -25.338  0.00  0.00    +0.139 C 
ATOM     12  C   UNL     1      34.814  -9.023 -24.846  0.00  0.00    +0.038 C 
ENDROOT
BRANCH  10  14
ATOM     13 CL   UNL     1      31.188  -3.241 -23.381  0.00  0.00    -0.082 Cl
ATOM     14  C   UNL     1      31.693  -7.453 -21.864  0.00  0.00    +0.057 C 
ATOM     15  C   UNL     1      32.136  -6.382 -21.093  0.00  0.00    +0.006 C 
ATOM     16  C   UNL     1      31.096  -7.229 -23.101  0.00  0.00    +0.006 C 
ATOM     17  C   UNL     1      31.980  -5.077 -21.562  0.00  0.00    +0.012 C 
ATOM     18  C   UNL     1      30.939  -5.925 -23.571  0.00  0.00    +0.012 C 
ATOM     19  C   UNL     1      31.382  -4.849 -22.801  0.00  0.00    +0.058 C 
ENDBRANCH  10  14
BRANCH  11  20
ATOM     20  O   UNL     1      35.836 -10.530 -26.382  0.00  0.00    -0.471 OA
ATOM     21  C   UNL     1      35.408 -11.453 -27.381  0.00  0.00    +0.252 C 
ENDBRANCH  11  20
BRANCH   3  22
ATOM     22  C   UNL     1      32.471 -13.471 -23.068  0.00  0.00    +0.137 C 
BRANCH  22  24
ATOM     23  O   UNL     1      33.629 -14.413 -21.143  0.00  0.00    -0.250 OA
ATOM     24  C   UNL     1      33.565 -14.246 -22.353  0.00  0.00    +0.322 C 
BRANCH  24  25
ATOM     25  O   UNL     1      34.457 -14.722 -23.273  0.00  0.00    -0.436 OA
BRANCH  25  26
ATOM     26  C   UNL     1      33.880 -15.329 -24.434  0.00  0.00    +0.317 C 
BRANCH  26  28
ATOM     27  O   UNL     1      34.609 -17.115 -25.911  0.00  0.00    -0.246 OA
ATOM     28  C   UNL     1      34.702 -16.516 -24.850  0.00  0.00    +0.359 C 
BRANCH  28  29
ATOM     29  O   UNL     1      35.585 -16.842 -23.871  0.00  0.00    -0.478 OA
ATOM     30  H   UNL     1      35.444 -17.607 -23.350  0.00  0.00    +0.295 HD
ENDBRANCH  28  29
ENDBRANCH  26  28
ENDBRANCH  25  26
ENDBRANCH  24  25
ENDBRANCH  22  24
ENDBRANCH   3  22
TORSDOF 8
ENDMDL
MODEL 4
REMARK VINA RESULT:      -9.0      4.546      8.997
REMARK  Name = 1981
REMARK  8 active torsions:
REMARK  status: ('A' for Active; 'I' for Inactive)
REMARK    1  A    between atoms: C_3  and  C_22
REMARK    2  A    between atoms: C_10  and  C_14
REMARK    3  A    between atoms: C_11  and  O_20
REMARK    4  A    between atoms: C_22  and  C_24
REMARK    5  A    between atoms: C_24  and  O_25
REMARK    6  A    between atoms: O_25  and  C_26
REMARK    7  A    between atoms: C_26  and  C_28
REMARK    8  A    between atoms: C_28  and  O_29
REMARK                            x       y       z     vdW  Elec       q    Type
REMARK                         _______ _______ _______ _____ _____    ______ ____
ROOT
ATOM      1  O   UNL     1      32.265  -9.085 -20.188  0.00  0.00    -0.267 OA
ATOM      2  N   UNL     1      32.409 -10.503 -21.946  0.00  0.00    -0.279 N 
ATOM      3  C   UNL     1      32.451 -12.744 -22.133  0.00  0.00    +0.003 A 
ATOM      4  C   UNL     1      32.969 -12.200 -23.331  0.00  0.00    +0.017 A 
ATOM      5  C   UNL     1      32.113 -11.697 -21.314  0.00  0.00    +0.041 A 
ATOM      6  C   UNL     1      32.934 -10.804 -23.207  0.00  0.00    +0.066 A 
ATOM      7  C   UNL     1      33.465 -12.780 -24.518  0.00  0.00    +0.038 C 
ATOM      8  C   UNL     1      33.399  -9.978 -24.249  0.00  0.00    +0.021 C 
ATOM      9  C   UNL     1      31.526 -11.786 -19.956  0.00  0.00    +0.050 C 
ATOM     10  C   UNL     1      32.173  -9.222 -21.403  0.00  0.00    +0.264 C 
ATOM     11  C   UNL     1      33.919 -11.958 -25.552  0.00  0.00    +0.139 C 
ATOM     12  C   UNL     1      33.886 -10.576 -25.416  0.00  0.00    +0.038 C 
ENDROOT
BRANCH  10  14
ATOM     13 CL   UNL     1      30.808  -4.361 -24.611  0.00  0.00    -0.082 Cl
ATOM     14  C   UNL     1      31.836  -8.022 -22.195  0.00  0.00    +0.057 C 
ATOM     15  C   UNL     1      31.028  -8.141 -23.323  0.00  0.00    +0.006 C 
ATOM     16  C   UNL     1      32.327  -6.778 -21.810  0.00  0.00    +0.006 C 
ATOM     17  C   UNL     1      30.710  -7.008 -24.071  0.00  0.00    +0.012 C 
ATOM     18  C   UNL     1      32.010  -5.644 -22.558  0.00  0.00    +0.012 C 
ATOM     19  C   UNL     1      31.200  -5.760 -23.689  0.00  0.00    +0.058 C 
ENDBRANCH  10  14
BRANCH  11  20
ATOM     20  O   UNL     1      34.398 -12.517 -26.698  0.00  0.00    -0.471 OA
ATOM     21  C   UNL     1      33.517 -13.376 -27.418  0.00  0.00    +0.252 C 
ENDBRANCH  11  20
BRANCH   3  22
ATOM     22  C   UNL     1      32.297 -14.181 -21.821  0.00  0.00    +0.137 C 
BRANCH  22  24
ATOM     23  O   UNL     1      34.507 -14.777 -20.992  0.00  0.00    -0.250 OA
ATOM     24  C   UNL     1      33.619 -14.929 -21.818  0.00  0.00    +0.322 C 
BRANCH  24  25
ATOM     25  O   UNL     1      33.653 -15.791 -22.879  0.00  0.00    -0.436 OA
BRANCH  25  26
ATOM     26  C   UNL     1      34.950 -16.038 -23.430  0.00  0.00    +0.317 C 
BRANCH  26  28
ATOM     27  O   UNL     1      34.625 -16.568 -25.779  0.00  0.00    -0.246 OA
ATOM     28  C   UNL     1      34.831 -16.934 -24.632  0.00  0.00    +0.359 C 
BRANCH  28  29
ATOM     29  O   UNL     1      34.987 -18.232 -24.266  0.00  0.00    -0.478 OA
ATOM     30  H   UNL     1      35.820 -18.536 -23.966  0.00  0.00    +0.295 HD
ENDBRANCH  28  29
ENDBRANCH  26  28
ENDBRANCH  25  26
ENDBRANCH  24  25
ENDBRANCH  22  24
ENDBRANCH   3  22
TORSDOF 8
ENDMDL
MODEL 5
REMARK VINA RESULT:      -9.0      4.562      9.131
REMARK  Name = 1981
REMARK  8 active torsions:
REMARK  status: ('A' for Active; 'I' for Inactive)
REMARK    1  A    between atoms: C_3  and  C_22
REMARK    2  A    between atoms: C_10  and  C_14
REMARK    3  A    between atoms: C_11  and  O_20
REMARK    4  A    between atoms: C_22  and  C_24
REMARK    5  A    between atoms: C_24  and  O_25
REMARK    6  A    between atoms: O_25  and  C_26
REMARK    7  A    between atoms: C_26  and  C_28
REMARK    8  A    between atoms: C_28  and  O_29
REMARK                            x       y       z     vdW  Elec       q    Type
REMARK                         _______ _______ _______ _____ _____    ______ ____
ROOT
ATOM      1  O   UNL     1      32.255  -9.066 -20.163  0.00  0.00    -0.267 OA
ATOM      2  N   UNL     1      32.378 -10.516 -21.896  0.00  0.00    -0.279 N 
ATOM      3  C   UNL     1      32.390 -12.761 -22.044  0.00  0.00    +0.003 A 
ATOM      4  C   UNL     1      32.915 -12.245 -23.251  0.00  0.00    +0.017 A 
ATOM      5  C   UNL     1      32.067 -11.694 -21.243  0.00  0.00    +0.041 A 
ATOM      6  C   UNL     1      32.899 -10.846 -23.152  0.00  0.00    +0.066 A 
ATOM      7  C   UNL     1      33.402 -12.853 -24.428  0.00  0.00    +0.038 C 
ATOM      8  C   UNL     1      33.374 -10.046 -24.208  0.00  0.00    +0.021 C 
ATOM      9  C   UNL     1      31.479 -11.752 -19.883  0.00  0.00    +0.050 C 
ATOM     10  C   UNL     1      32.161  -9.223 -21.376  0.00  0.00    +0.264 C 
ATOM     11  C   UNL     1      33.866 -12.055 -25.476  0.00  0.00    +0.139 C 
ATOM     12  C   UNL     1      33.853 -10.671 -25.364  0.00  0.00    +0.038 C 
ENDROOT
BRANCH  10  14
ATOM     13 CL   UNL     1      30.861  -4.401 -24.668  0.00  0.00    -0.082 Cl
ATOM     14  C   UNL     1      31.840  -8.033 -22.188  0.00  0.00    +0.057 C 
ATOM     15  C   UNL     1      31.024  -8.159 -23.310  0.00  0.00    +0.006 C 
ATOM     16  C   UNL     1      32.354  -6.790 -21.830  0.00  0.00    +0.006 C 
ATOM     17  C   UNL     1      30.721  -7.035 -24.078  0.00  0.00    +0.012 C 
ATOM     18  C   UNL     1      32.052  -5.666 -22.598  0.00  0.00    +0.012 C 
ATOM     19  C   UNL     1      31.235  -5.788 -23.722  0.00  0.00    +0.058 C 
ENDBRANCH  10  14
BRANCH  11  20
ATOM     20  O   UNL     1      34.337 -12.641 -26.612  0.00  0.00    -0.471 OA
ATOM     21  C   UNL     1      33.436 -13.481 -27.330  0.00  0.00    +0.252 C 
ENDBRANCH  11  20
BRANCH   3  22
ATOM     22  C   UNL     1      32.216 -14.189 -21.706  0.00  0.00    +0.137 C 
BRANCH  22  24
ATOM     23  O   UNL     1      34.308 -14.747 -20.593  0.00  0.00    -0.250 OA
ATOM     24  C   UNL     1      33.537 -14.918 -21.526  0.00  0.00    +0.322 C 
BRANCH  24  25
ATOM     25  O   UNL     1      33.720 -15.786 -22.565  0.00  0.00    -0.436 OA
BRANCH  25  26
ATOM     26  C   UNL     1      35.020 -16.379 -22.652  0.00  0.00    +0.317 C 
BRANCH  26  28
ATOM     27  O   UNL     1      34.633 -18.774 -22.519  0.00  0.00    -0.246 OA
ATOM     28  C   UNL     1      35.006 -17.733 -22.000  0.00  0.00    +0.359 C 
BRANCH  28  29
ATOM     29  O   UNL     1      35.476 -17.646 -20.729  0.00  0.00    -0.478 OA
ATOM     30  H   UNL     1      35.869 -18.394 -20.323  0.00  0.00    +0.295 HD
ENDBRANCH  28  29
ENDBRANCH  26  28
ENDBRANCH  25  26
ENDBRANCH  24  25
ENDBRANCH  22  24
ENDBRANCH   3  22
TORSDOF 8
ENDMDL
MODEL 6
REMARK VINA RESULT:      -8.8      9.127     13.617
REMARK  Name = 1981
REMARK  8 active torsions:
REMARK  status: ('A' for Active; 'I' for Inactive)
REMARK    1  A    between atoms: C_3  and  C_22
REMARK    2  A    between atoms: C_10  and  C_14
REMARK    3  A    between atoms: C_11  and  O_20
REMARK    4  A    between atoms: C_22  and  C_24
REMARK    5  A    between atoms: C_24  and  O_25
REMARK    6  A    between atoms: O_25  and  C_26
REMARK    7  A    between atoms: C_26  and  C_28
REMARK    8  A    between atoms: C_28  and  O_29
REMARK                            x       y       z     vdW  Elec       q    Type
REMARK                         _______ _______ _______ _____ _____    ______ ____
ROOT
ATOM      1  O   UNL     1      32.064 -23.241 -12.309  0.00  0.00    -0.267 OA
ATOM      2  N   UNL     1      33.748 -23.496 -13.800  0.00  0.00    -0.279 N 
ATOM      3  C   UNL     1      35.970 -23.777 -13.599  0.00  0.00    +0.003 A 
ATOM      4  C   UNL     1      35.708 -23.334 -14.916  0.00  0.00    +0.017 A 
ATOM      5  C   UNL     1      34.767 -23.873 -12.946  0.00  0.00    +0.041 A 
ATOM      6  C   UNL     1      34.321 -23.166 -15.033  0.00  0.00    +0.066 A 
ATOM      7  C   UNL     1      36.537 -23.062 -16.025  0.00  0.00    +0.038 C 
ATOM      8  C   UNL     1      33.751 -22.719 -16.241  0.00  0.00    +0.021 C 
ATOM      9  C   UNL     1      34.550 -24.305 -11.545  0.00  0.00    +0.050 C 
ATOM     10  C   UNL     1      32.376 -23.492 -13.469  0.00  0.00    +0.264 C 
ATOM     11  C   UNL     1      35.968 -22.625 -17.222  0.00  0.00    +0.139 C 
ATOM     12  C   UNL     1      34.593 -22.456 -17.326  0.00  0.00    +0.038 C 
ENDROOT
BRANCH  10  14
ATOM     13 CL   UNL     1      27.936 -24.555 -17.333  0.00  0.00    -0.082 Cl
ATOM     14  C   UNL     1      31.280 -23.754 -14.422  0.00  0.00    +0.057 C 
ATOM     15  C   UNL     1      30.659 -22.691 -15.073  0.00  0.00    +0.006 C 
ATOM     16  C   UNL     1      30.873 -25.063 -14.666  0.00  0.00    +0.006 C 
ATOM     17  C   UNL     1      29.623 -22.939 -15.974  0.00  0.00    +0.012 C 
ATOM     18  C   UNL     1      29.837 -25.311 -15.567  0.00  0.00    +0.012 C 
ATOM     19  C   UNL     1      29.213 -24.248 -16.221  0.00  0.00    +0.058 C 
ENDBRANCH  10  14
BRANCH  11  20
ATOM     20  O   UNL     1      36.768 -22.363 -18.293  0.00  0.00    -0.471 OA
ATOM     21  C   UNL     1      36.466 -21.198 -19.058  0.00  0.00    +0.252 C 
ENDBRANCH  11  20
BRANCH   3  22
ATOM     22  C   UNL     1      37.299 -24.086 -13.029  0.00  0.00    +0.137 C 
BRANCH  22  24
ATOM     23  O   UNL     1      37.055 -26.244 -11.928  0.00  0.00    -0.250 OA
ATOM     24  C   UNL     1      37.525 -25.576 -12.837  0.00  0.00    +0.322 C 
BRANCH  24  25
ATOM     25  O   UNL     1      38.332 -26.043 -13.838  0.00  0.00    -0.436 OA
BRANCH  25  26
ATOM     26  C   UNL     1      39.524 -25.287 -14.072  0.00  0.00    +0.317 C 
BRANCH  26  28
ATOM     27  O   UNL     1      41.328 -26.914 -14.091  0.00  0.00    -0.246 OA
ATOM     28  C   UNL     1      40.572 -26.168 -14.693  0.00  0.00    +0.359 C 
BRANCH  28  29
ATOM     29  O   UNL     1      40.565 -26.024 -16.043  0.00  0.00    -0.478 OA
ATOM     30  H   UNL     1      40.584 -26.781 -16.594  0.00  0.00    +0.295 HD
ENDBRANCH  28  29
ENDBRANCH  26  28
ENDBRANCH  25  26
ENDBRANCH  24  25
ENDBRANCH  22  24
ENDBRANCH   3  22
TORSDOF 8
ENDMDL
MODEL 7
REMARK VINA RESULT:      -8.6      8.335     12.692
REMARK  Name = 1981
REMARK  8 active torsions:
REMARK  status: ('A' for Active; 'I' for Inactive)
REMARK    1  A    between atoms: C_3  and  C_22
REMARK    2  A    between atoms: C_10  and  C_14
REMARK    3  A    between atoms: C_11  and  O_20
REMARK    4  A    between atoms: C_22  and  C_24
REMARK    5  A    between atoms: C_24  and  O_25
REMARK    6  A    between atoms: O_25  and  C_26
REMARK    7  A    between atoms: C_26  and  C_28
REMARK    8  A    between atoms: C_28  and  O_29
REMARK                            x       y       z     vdW  Elec       q    Type
REMARK                         _______ _______ _______ _____ _____    ______ ____
ROOT
ATOM      1  O   UNL     1      37.476 -22.873 -17.275  0.00  0.00    -0.267 OA
ATOM      2  N   UNL     1      35.554 -22.916 -16.080  0.00  0.00    -0.279 N 
ATOM      3  C   UNL     1      35.069 -23.406 -13.939  0.00  0.00    +0.003 A 
ATOM      4  C   UNL     1      33.873 -23.502 -14.686  0.00  0.00    +0.017 A 
ATOM      5  C   UNL     1      36.071 -23.044 -14.803  0.00  0.00    +0.041 A 
ATOM      6  C   UNL     1      34.184 -23.191 -16.017  0.00  0.00    +0.066 A 
ATOM      7  C   UNL     1      32.544 -23.827 -14.341  0.00  0.00    +0.038 C 
ATOM      8  C   UNL     1      33.187 -23.210 -17.012  0.00  0.00    +0.021 C 
ATOM      9  C   UNL     1      37.497 -22.819 -14.466  0.00  0.00    +0.050 C 
ATOM     10  C   UNL     1      36.298 -22.536 -17.218  0.00  0.00    +0.264 C 
ATOM     11  C   UNL     1      31.557 -23.839 -15.328  0.00  0.00    +0.139 C 
ATOM     12  C   UNL     1      31.877 -23.535 -16.645  0.00  0.00    +0.038 C 
ENDROOT
BRANCH  10  14
ATOM     13 CL   UNL     1      34.104 -19.439 -21.840  0.00  0.00    -0.082 Cl
ATOM     14  C   UNL     1      35.756 -21.772 -18.358  0.00  0.00    +0.057 C 
ATOM     15  C   UNL     1      36.588 -20.914 -19.074  0.00  0.00    +0.006 C 
ATOM     16  C   UNL     1      34.418 -21.912 -18.714  0.00  0.00    +0.006 C 
ATOM     17  C   UNL     1      36.076 -20.192 -20.152  0.00  0.00    +0.012 C 
ATOM     18  C   UNL     1      33.906 -21.190 -19.791  0.00  0.00    +0.012 C 
ATOM     19  C   UNL     1      34.736 -20.330 -20.511  0.00  0.00    +0.058 C 
ENDBRANCH  10  14
BRANCH  11  20
ATOM     20  O   UNL     1      30.273 -24.152 -14.995  0.00  0.00    -0.471 OA
ATOM     21  C   UNL     1      30.025 -25.486 -14.554  0.00  0.00    +0.252 C 
ENDBRANCH  11  20
BRANCH   3  22
ATOM     22  C   UNL     1      35.214 -23.646 -12.487  0.00  0.00    +0.137 C 
BRANCH  22  24
ATOM     23  O   UNL     1      37.178 -24.527 -11.348  0.00  0.00    -0.250 OA
ATOM     24  C   UNL     1      36.281 -24.679 -12.165  0.00  0.00    +0.322 C 
BRANCH  24  25
ATOM     25  O   UNL     1      36.075 -25.795 -12.928  0.00  0.00    -0.436 OA
BRANCH  25  26
ATOM     26  C   UNL     1      37.257 -26.415 -13.444  0.00  0.00    +0.317 C 
BRANCH  26  28
ATOM     27  O   UNL     1      36.212 -26.685 -15.620  0.00  0.00    -0.246 OA
ATOM     28  C   UNL     1      37.201 -26.446 -14.946  0.00  0.00    +0.359 C 
BRANCH  28  29
ATOM     29  O   UNL     1      38.423 -26.164 -15.466  0.00  0.00    -0.478 OA
ATOM     30  H   UNL     1      39.176 -26.641 -15.177  0.00  0.00    +0.295 HD
ENDBRANCH  28  29
ENDBRANCH  26  28
ENDBRANCH  25  26
ENDBRANCH  24  25
ENDBRANCH  22  24
ENDBRANCH   3  22
TORSDOF 8
ENDMDL
MODEL 8
REMARK VINA RESULT:      -8.4      8.896     13.262
REMARK  Name = 1981
REMARK  8 active torsions:
REMARK  status: ('A' for Active; 'I' for Inactive)
REMARK    1  A    between atoms: C_3  and  C_22
REMARK    2  A    between atoms: C_10  and  C_14
REMARK    3  A    between atoms: C_11  and  O_20
REMARK    4  A    between atoms: C_22  and  C_24
REMARK    5  A    between atoms: C_24  and  O_25
REMARK    6  A    between atoms: O_25  and  C_26
REMARK    7  A    between atoms: C_26  and  C_28
REMARK    8  A    between atoms: C_28  and  O_29
REMARK                            x       y       z     vdW  Elec       q    Type
REMARK                         _______ _______ _______ _____ _____    ______ ____
ROOT
ATOM      1  O   UNL     1      32.423 -23.187 -12.323  0.00  0.00    -0.267 OA
ATOM      2  N   UNL     1      34.048 -23.348 -13.890  0.00  0.00    -0.279 N 
ATOM      3  C   UNL     1      36.293 -23.454 -13.792  0.00  0.00    +0.003 A 
ATOM      4  C   UNL     1      35.934 -23.065 -15.103  0.00  0.00    +0.017 A 
ATOM      5  C   UNL     1      35.133 -23.626 -13.079  0.00  0.00    +0.041 A 
ATOM      6  C   UNL     1      34.534 -23.006 -15.156  0.00  0.00    +0.066 A 
ATOM      7  C   UNL     1      36.686 -22.758 -16.257  0.00  0.00    +0.038 C 
ATOM      8  C   UNL     1      33.875 -22.634 -16.343  0.00  0.00    +0.021 C 
ATOM      9  C   UNL     1      35.017 -24.038 -11.660  0.00  0.00    +0.050 C 
ATOM     10  C   UNL     1      32.697 -23.441 -13.491  0.00  0.00    +0.264 C 
ATOM     11  C   UNL     1      36.029 -22.396 -17.434  0.00  0.00    +0.139 C 
ATOM     12  C   UNL     1      34.642 -22.334 -17.474  0.00  0.00    +0.038 C 
ENDROOT
BRANCH  10  14
ATOM     13 CL   UNL     1      28.173 -24.934 -17.107  0.00  0.00    -0.082 Cl
ATOM     14  C   UNL     1      31.581 -23.810 -14.384  0.00  0.00    +0.057 C 
ATOM     15  C   UNL     1      31.141 -25.130 -14.433  0.00  0.00    +0.006 C 
ATOM     16  C   UNL     1      30.973 -22.836 -15.170  0.00  0.00    +0.006 C 
ATOM     17  C   UNL     1      30.085 -25.478 -15.277  0.00  0.00    +0.012 C 
ATOM     18  C   UNL     1      29.918 -23.183 -16.014  0.00  0.00    +0.012 C 
ATOM     19  C   UNL     1      29.474 -24.505 -16.067  0.00  0.00    +0.058 C 
ENDBRANCH  10  14
BRANCH  11  20
ATOM     20  O   UNL     1      36.754 -22.099 -18.549  0.00  0.00    -0.471 OA
ATOM     21  C   UNL     1      36.087 -21.381 -19.585  0.00  0.00    +0.252 C 
ENDBRANCH  11  20
BRANCH   3  22
ATOM     22  C   UNL     1      37.667 -23.647 -13.282  0.00  0.00    +0.137 C 
BRANCH  22  24
ATOM     23  O   UNL     1      39.447 -24.833 -14.445  0.00  0.00    -0.250 OA
ATOM     24  C   UNL     1      38.357 -24.855 -13.891  0.00  0.00    +0.322 C 
BRANCH  24  25
ATOM     25  O   UNL     1      37.570 -25.960 -13.721  0.00  0.00    -0.436 OA
BRANCH  25  26
ATOM     26  C   UNL     1      37.720 -26.983 -14.710  0.00  0.00    +0.317 C 
BRANCH  26  28
ATOM     27  O   UNL     1      35.568 -26.249 -15.566  0.00  0.00    -0.246 OA
ATOM     28  C   UNL     1      36.588 -26.907 -15.696  0.00  0.00    +0.359 C 
BRANCH  28  29
ATOM     29  O   UNL     1      36.856 -27.683 -16.778  0.00  0.00    -0.478 OA
ATOM     30  H   UNL     1      37.694 -28.094 -16.863  0.00  0.00    +0.295 HD
ENDBRANCH  28  29
ENDBRANCH  26  28
ENDBRANCH  25  26
ENDBRANCH  24  25
ENDBRANCH  22  24
ENDBRANCH   3  22
TORSDOF 8
ENDMDL
MODEL 9
REMARK VINA RESULT:      -8.1      8.055     12.827
REMARK  Name = 1981
REMARK  8 active torsions:
REMARK  status: ('A' for Active; 'I' for Inactive)
REMARK    1  A    between atoms: C_3  and  C_22
REMARK    2  A    between atoms: C_10  and  C_14
REMARK    3  A    between atoms: C_11  and  O_20
REMARK    4  A    between atoms: C_22  and  C_24
REMARK    5  A    between atoms: C_24  and  O_25
REMARK    6  A    between atoms: O_25  and  C_26
REMARK    7  A    between atoms: C_26  and  C_28
REMARK    8  A    between atoms: C_28  and  O_29
REMARK                            x       y       z     vdW  Elec       q    Type
REMARK                         _______ _______ _______ _____ _____    ______ ____
ROOT
ATOM      1  O   UNL     1      32.227 -23.009 -13.299  0.00  0.00    -0.267 OA
ATOM      2  N   UNL     1      33.619 -23.118 -15.080  0.00  0.00    -0.279 N 
ATOM      3  C   UNL     1      35.857 -23.125 -15.302  0.00  0.00    +0.003 A 
ATOM      4  C   UNL     1      35.300 -22.768 -16.551  0.00  0.00    +0.017 A 
ATOM      5  C   UNL     1      34.820 -23.339 -14.430  0.00  0.00    +0.041 A 
ATOM      6  C   UNL     1      33.905 -22.770 -16.404  0.00  0.00    +0.066 A 
ATOM      7  C   UNL     1      35.866 -22.443 -17.802  0.00  0.00    +0.038 C 
ATOM      8  C   UNL     1      33.068 -22.442 -17.488  0.00  0.00    +0.021 C 
ATOM      9  C   UNL     1      34.925 -23.739 -13.007  0.00  0.00    +0.050 C 
ATOM     10  C   UNL     1      32.344 -23.265 -14.493  0.00  0.00    +0.264 C 
ATOM     11  C   UNL     1      35.033 -22.123 -18.876  0.00  0.00    +0.139 C 
ATOM     12  C   UNL     1      33.653 -22.123 -18.718  0.00  0.00    +0.038 C 
ENDROOT
BRANCH  10  14
ATOM     13 CL   UNL     1      27.424 -24.995 -17.420  0.00  0.00    -0.082 Cl
ATOM     14  C   UNL     1      31.130 -23.692 -15.215  0.00  0.00    +0.057 C 
ATOM     15  C   UNL     1      30.757 -25.033 -15.209  0.00  0.00    +0.006 C 
ATOM     16  C   UNL     1      30.364 -22.752 -15.898  0.00  0.00    +0.006 C 
ATOM     17  C   UNL     1      29.609 -25.437 -15.892  0.00  0.00    +0.012 C 
ATOM     18  C   UNL     1      29.217 -23.155 -16.581  0.00  0.00    +0.012 C 
ATOM     19  C   UNL     1      28.839 -24.498 -16.577  0.00  0.00    +0.058 C 
ENDBRANCH  10  14
BRANCH  11  20
ATOM     20  O   UNL     1      35.579 -21.809 -20.084  0.00  0.00    -0.471 OA
ATOM     21  C   UNL     1      35.576 -20.433 -20.459  0.00  0.00    +0.252 C 
ENDBRANCH  11  20
BRANCH   3  22
ATOM     22  C   UNL     1      37.297 -23.252 -14.992  0.00  0.00    +0.137 C 
BRANCH  22  24
ATOM     23  O   UNL     1      37.212 -25.641 -15.459  0.00  0.00    -0.250 OA
ATOM     24  C   UNL     1      37.755 -24.698 -14.900  0.00  0.00    +0.322 C 
BRANCH  24  25
ATOM     25  O   UNL     1      38.862 -24.772 -14.101  0.00  0.00    -0.436 OA
BRANCH  25  26
ATOM     26  C   UNL     1      38.856 -25.831 -13.138  0.00  0.00    +0.317 C 
BRANCH  26  28
ATOM     27  O   UNL     1      37.898 -24.564 -11.301  0.00  0.00    -0.246 OA
ATOM     28  C   UNL     1      37.864 -25.527 -12.051  0.00  0.00    +0.359 C 
BRANCH  28  29
ATOM     29  O   UNL     1      36.901 -26.483 -12.015  0.00  0.00    -0.478 OA
ATOM     30  H   UNL     1      36.449 -26.661 -11.214  0.00  0.00    +0.295 HD
ENDBRANCH  28  29
ENDBRANCH  26  28
ENDBRANCH  25  26
ENDBRANCH  24  25
ENDBRANCH  22  24
ENDBRANCH   3  22
TORSDOF 8
ENDMDL
