MODEL 1
REMARK VINA RESULT:     -10.1      0.000      0.000
REMARK  Name = 34328
REMARK  9 active torsions:
REMARK  status: ('A' for Active; 'I' for Inactive)
REMARK    1  A    between atoms: N_1  and  C_18
REMARK    2  A    between atoms: C_2  and  C_8
REMARK    3  A    between atoms: C_2  and  C_15
REMARK    4  A    between atoms: C_15  and  O_16
REMARK    5  A    between atoms: C_18  and  C_19
REMARK    6  A    between atoms: C_19  and  C_20
REMARK    7  A    between atoms: C_20  and  C_21
REMARK    8  A    between atoms: C_20  and  C_27
REMARK    9  A    between atoms: C_20  and  C_34
REMARK                            x       y       z     vdW  Elec       q    Type
REMARK                         _______ _______ _______ _____ _____    ______ ____
ROOT
ATOM      1  N   UNL     1      34.282 -16.602 -23.348  0.00  0.00    +0.387 N 
ATOM      2  C   UNL     1      35.024 -18.824 -21.503  0.00  0.00    +0.104 C 
ATOM      3  C   UNL     1      34.419 -17.473 -21.042  0.00  0.00    -0.008 C 
ATOM      4  C   UNL     1      34.656 -19.028 -22.996  0.00  0.00    -0.008 C 
ATOM      5  C   UNL     1      34.736 -16.309 -21.986  0.00  0.00    -0.076 C 
ATOM      6  C   UNL     1      34.944 -17.801 -23.870  0.00  0.00    -0.076 C 
ATOM      7  H   UNL     1      33.278 -16.780 -23.319  0.00  0.00    -0.080 HD
ENDROOT
BRANCH   2   8
ATOM      8  C   UNL     1      34.569 -20.033 -20.670  0.00  0.00    -0.013 C 
ATOM      9  C   UNL     1      35.498 -20.994 -20.279  0.00  0.00    -0.004 C 
ATOM     10  C   UNL     1      33.230 -20.163 -20.311  0.00  0.00    -0.004 C 
ATOM     11  C   UNL     1      35.085 -22.092 -19.524  0.00  0.00    -0.000 C 
ATOM     12  C   UNL     1      32.817 -21.259 -19.555  0.00  0.00    -0.000 C 
ATOM     13  C   UNL     1      33.745 -22.224 -19.161  0.00  0.00    -0.000 C 
ENDBRANCH   2   8
BRANCH   2  15
ATOM     14  O   UNL     1      37.315 -18.615 -22.296  0.00  0.00    -0.250 OA
ATOM     15  C   UNL     1      36.530 -18.722 -21.365  0.00  0.00    +0.316 C 
BRANCH  15  16
ATOM     16  O   UNL     1      36.895 -18.765 -20.061  0.00  0.00    -0.480 OA
ATOM     17  H   UNL     1      37.690 -18.354 -19.782  0.00  0.00    +0.295 HD
ENDBRANCH  15  16
ENDBRANCH   2  15
BRANCH   1  18
ATOM     18  C   UNL     1      34.524 -15.459 -24.228  0.00  0.00    -0.076 C 
BRANCH  18  19
ATOM     19  C   UNL     1      34.457 -14.151 -23.422  0.00  0.00    -0.000 C 
BRANCH  19  20
ATOM     20  C   UNL     1      33.460 -13.067 -23.981  0.00  0.00    +0.115 C 
BRANCH  20  21
ATOM     21  C   UNL     1      34.180 -11.851 -24.623  0.00  0.00    -0.006 C 
ATOM     22  C   UNL     1      34.570 -11.958 -25.928  0.00  0.00    -0.003 C 
ATOM     23  C   UNL     1      34.380 -10.746 -23.847  0.00  0.00    -0.003 C 
ATOM     24  C   UNL     1      35.218 -10.866 -26.505  0.00  0.00    -0.000 C 
ATOM     25  C   UNL     1      35.027  -9.654 -24.424  0.00  0.00    -0.000 C 
ATOM     26  C   UNL     1      35.446  -9.713 -25.753  0.00  0.00    -0.000 C 
ENDBRANCH  20  21
BRANCH  20  27
ATOM     27  C   UNL     1      32.566 -12.577 -22.817  0.00  0.00    -0.006 C 
ATOM     28  C   UNL     1      31.770 -11.486 -23.035  0.00  0.00    -0.003 C 
ATOM     29  C   UNL     1      32.622 -13.262 -21.634  0.00  0.00    -0.003 C 
ATOM     30  C   UNL     1      30.965 -11.044 -21.985  0.00  0.00    -0.000 C 
ATOM     31  C   UNL     1      31.817 -12.819 -20.584  0.00  0.00    -0.000 C 
ATOM     32  C   UNL     1      30.988 -11.711 -20.760  0.00  0.00    -0.000 C 
ENDBRANCH  20  27
BRANCH  20  34
ATOM     33  N   UNL     1      32.112 -14.241 -25.946  0.00  0.00    -0.195 NA
ATOM     34  C   UNL     1      32.695 -13.731 -25.081  0.00  0.00    +0.079 C 
ENDBRANCH  20  34
ENDBRANCH  19  20
ENDBRANCH  18  19
ENDBRANCH   1  18
TORSDOF 9
ENDMDL
MODEL 2
REMARK VINA RESULT:      -9.5      9.803     13.169
REMARK  Name = 34328
REMARK  9 active torsions:
REMARK  status: ('A' for Active; 'I' for Inactive)
REMARK    1  A    between atoms: N_1  and  C_18
REMARK    2  A    between atoms: C_2  and  C_8
REMARK    3  A    between atoms: C_2  and  C_15
REMARK    4  A    between atoms: C_15  and  O_16
REMARK    5  A    between atoms: C_18  and  C_19
REMARK    6  A    between atoms: C_19  and  C_20
REMARK    7  A    between atoms: C_20  and  C_21
REMARK    8  A    between atoms: C_20  and  C_27
REMARK    9  A    between atoms: C_20  and  C_34
REMARK                            x       y       z     vdW  Elec       q    Type
REMARK                         _______ _______ _______ _____ _____    ______ ____
ROOT
ATOM      1  N   UNL     1      32.487 -23.092 -14.320  0.00  0.00    +0.387 N 
ATOM      2  C   UNL     1      29.731 -23.516 -15.376  0.00  0.00    +0.104 C 
ATOM      3  C   UNL     1      30.050 -23.075 -13.924  0.00  0.00    -0.008 C 
ATOM      4  C   UNL     1      30.949 -23.155 -16.265  0.00  0.00    -0.008 C 
ATOM      5  C   UNL     1      31.419 -23.553 -13.429  0.00  0.00    -0.076 C 
ATOM      6  C   UNL     1      32.291 -23.610 -15.678  0.00  0.00    -0.076 C 
ATOM      7  H   UNL     1      32.453 -22.074 -14.360  0.00  0.00    -0.080 HD
ENDROOT
BRANCH   2   8
ATOM      8  C   UNL     1      28.446 -22.898 -15.952  0.00  0.00    -0.013 C 
ATOM      9  C   UNL     1      28.227 -22.911 -17.327  0.00  0.00    -0.004 C 
ATOM     10  C   UNL     1      27.508 -22.327 -15.096  0.00  0.00    -0.004 C 
ATOM     11  C   UNL     1      27.062 -22.349 -17.850  0.00  0.00    -0.000 C 
ATOM     12  C   UNL     1      26.342 -21.766 -15.618  0.00  0.00    -0.000 C 
ATOM     13  C   UNL     1      26.119 -21.777 -16.996  0.00  0.00    -0.000 C 
ENDBRANCH   2   8
BRANCH   2  15
ATOM     14  O   UNL     1      30.018 -25.792 -16.185  0.00  0.00    -0.250 OA
ATOM     15  C   UNL     1      29.542 -25.020 -15.367  0.00  0.00    +0.316 C 
BRANCH  15  16
ATOM     16  O   UNL     1      28.768 -25.399 -14.321  0.00  0.00    -0.480 OA
ATOM     17  H   UNL     1      29.144 -25.485 -13.466  0.00  0.00    +0.295 HD
ENDBRANCH  15  16
ENDBRANCH   2  15
BRANCH   1  18
ATOM     18  C   UNL     1      33.795 -23.492 -13.804  0.00  0.00    -0.076 C 
BRANCH  18  19
ATOM     19  C   UNL     1      34.356 -24.659 -14.636  0.00  0.00    -0.000 C 
BRANCH  19  20
ATOM     20  C   UNL     1      35.897 -24.582 -14.949  0.00  0.00    +0.115 C 
BRANCH  20  21
ATOM     21  C   UNL     1      36.762 -24.310 -13.689  0.00  0.00    -0.006 C 
ATOM     22  C   UNL     1      37.820 -25.141 -13.451  0.00  0.00    -0.003 C 
ATOM     23  C   UNL     1      36.416 -23.256 -12.893  0.00  0.00    -0.003 C 
ATOM     24  C   UNL     1      38.597 -24.898 -12.319  0.00  0.00    -0.000 C 
ATOM     25  C   UNL     1      37.193 -23.012 -11.761  0.00  0.00    -0.000 C 
ATOM     26  C   UNL     1      38.283 -23.833 -11.474  0.00  0.00    -0.000 C 
ENDBRANCH  20  21
BRANCH  20  27
ATOM     27  C   UNL     1      36.130 -23.454 -15.983  0.00  0.00    -0.006 C 
ATOM     28  C   UNL     1      35.162 -23.237 -16.924  0.00  0.00    -0.003 C 
ATOM     29  C   UNL     1      37.292 -22.736 -15.898  0.00  0.00    -0.003 C 
ATOM     30  C   UNL     1      35.373 -22.221 -17.857  0.00  0.00    -0.000 C 
ATOM     31  C   UNL     1      37.503 -21.720 -16.830  0.00  0.00    -0.000 C 
ATOM     32  C   UNL     1      36.543 -21.462 -17.809  0.00  0.00    -0.000 C 
ENDBRANCH  20  27
BRANCH  20  34
ATOM     33  N   UNL     1      36.594 -26.983 -15.845  0.00  0.00    -0.195 NA
ATOM     34  C   UNL     1      36.291 -25.936 -15.445  0.00  0.00    +0.079 C 
ENDBRANCH  20  34
ENDBRANCH  19  20
ENDBRANCH  18  19
ENDBRANCH   1  18
TORSDOF 9
ENDMDL
MODEL 3
REMARK VINA RESULT:      -9.4      3.593     10.892
REMARK  Name = 34328
REMARK  9 active torsions:
REMARK  status: ('A' for Active; 'I' for Inactive)
REMARK    1  A    between atoms: N_1  and  C_18
REMARK    2  A    between atoms: C_2  and  C_8
REMARK    3  A    between atoms: C_2  and  C_15
REMARK    4  A    between atoms: C_15  and  O_16
REMARK    5  A    between atoms: C_18  and  C_19
REMARK    6  A    between atoms: C_19  and  C_20
REMARK    7  A    between atoms: C_20  and  C_21
REMARK    8  A    between atoms: C_20  and  C_27
REMARK    9  A    between atoms: C_20  and  C_34
REMARK                            x       y       z     vdW  Elec       q    Type
REMARK                         _______ _______ _______ _____ _____    ______ ____
ROOT
ATOM      1  N   UNL     1      34.787 -20.438 -19.747  0.00  0.00    +0.387 N 
ATOM      2  C   UNL     1      34.724 -18.231 -21.751  0.00  0.00    +0.104 C 
ATOM      3  C   UNL     1      33.461 -18.916 -21.170  0.00  0.00    -0.008 C 
ATOM      4  C   UNL     1      35.894 -18.464 -20.760  0.00  0.00    -0.008 C 
ATOM      5  C   UNL     1      33.701 -20.364 -20.729  0.00  0.00    -0.076 C 
ATOM      6  C   UNL     1      36.037 -19.924 -20.315  0.00  0.00    -0.076 C 
ATOM      7  H   UNL     1      34.536 -19.855 -18.949  0.00  0.00    -0.080 HD
ENDROOT
BRANCH   2   8
ATOM      8  C   UNL     1      34.551 -16.729 -22.031  0.00  0.00    -0.013 C 
ATOM      9  C   UNL     1      34.512 -15.827 -20.971  0.00  0.00    -0.004 C 
ATOM     10  C   UNL     1      34.432 -16.278 -23.343  0.00  0.00    -0.004 C 
ATOM     11  C   UNL     1      34.354 -14.464 -21.226  0.00  0.00    -0.000 C 
ATOM     12  C   UNL     1      34.275 -14.916 -23.598  0.00  0.00    -0.000 C 
ATOM     13  C   UNL     1      34.236 -14.008 -22.539  0.00  0.00    -0.000 C 
ENDBRANCH   2   8
BRANCH   2  15
ATOM     14  O   UNL     1      34.251 -19.557 -23.735  0.00  0.00    -0.250 OA
ATOM     15  C   UNL     1      35.041 -18.902 -23.072  0.00  0.00    +0.316 C 
BRANCH  15  16
ATOM     16  O   UNL     1      36.331 -18.679 -23.425  0.00  0.00    -0.480 OA
ATOM     17  H   UNL     1      36.732 -17.852 -23.237  0.00  0.00    +0.295 HD
ENDBRANCH  15  16
ENDBRANCH   2  15
BRANCH   1  18
ATOM     18  C   UNL     1      34.963 -21.812 -19.279  0.00  0.00    -0.076 C 
BRANCH  18  19
ATOM     19  C   UNL     1      34.848 -21.865 -17.746  0.00  0.00    -0.000 C 
BRANCH  19  20
ATOM     20  C   UNL     1      34.319 -23.227 -17.158  0.00  0.00    +0.115 C 
BRANCH  20  21
ATOM     21  C   UNL     1      32.995 -23.074 -16.364  0.00  0.00    -0.006 C 
ATOM     22  C   UNL     1      33.067 -23.074 -14.999  0.00  0.00    -0.003 C 
ATOM     23  C   UNL     1      31.835 -22.949 -17.074  0.00  0.00    -0.003 C 
ATOM     24  C   UNL     1      31.877 -22.937 -14.285  0.00  0.00    -0.000 C 
ATOM     25  C   UNL     1      30.646 -22.813 -16.360  0.00  0.00    -0.000 C 
ATOM     26  C   UNL     1      30.666 -22.807 -14.965  0.00  0.00    -0.000 C 
ENDBRANCH  20  21
BRANCH  20  27
ATOM     27  C   UNL     1      35.409 -23.814 -16.229  0.00  0.00    -0.006 C 
ATOM     28  C   UNL     1      35.224 -25.080 -15.744  0.00  0.00    -0.003 C 
ATOM     29  C   UNL     1      36.497 -23.035 -15.944  0.00  0.00    -0.003 C 
ATOM     30  C   UNL     1      36.206 -25.609 -14.906  0.00  0.00    -0.000 C 
ATOM     31  C   UNL     1      37.479 -23.564 -15.106  0.00  0.00    -0.000 C 
ATOM     32  C   UNL     1      37.333 -24.851 -14.588  0.00  0.00    -0.000 C 
ENDBRANCH  20  27
BRANCH  20  34
ATOM     33  N   UNL     1      33.769 -24.760 -19.256  0.00  0.00    -0.195 NA
ATOM     34  C   UNL     1      34.006 -24.096 -18.334  0.00  0.00    +0.079 C 
ENDBRANCH  20  34
ENDBRANCH  19  20
ENDBRANCH  18  19
ENDBRANCH   1  18
TORSDOF 9
ENDMDL
MODEL 4
REMARK VINA RESULT:      -9.4      2.406      8.224
REMARK  Name = 34328
REMARK  9 active torsions:
REMARK  status: ('A' for Active; 'I' for Inactive)
REMARK    1  A    between atoms: N_1  and  C_18
REMARK    2  A    between atoms: C_2  and  C_8
REMARK    3  A    between atoms: C_2  and  C_15
REMARK    4  A    between atoms: C_15  and  O_16
REMARK    5  A    between atoms: C_18  and  C_19
REMARK    6  A    between atoms: C_19  and  C_20
REMARK    7  A    between atoms: C_20  and  C_21
REMARK    8  A    between atoms: C_20  and  C_27
REMARK    9  A    between atoms: C_20  and  C_34
REMARK                            x       y       z     vdW  Elec       q    Type
REMARK                         _______ _______ _______ _____ _____    ______ ____
ROOT
ATOM      1  N   UNL     1      33.681 -15.267 -21.024  0.00  0.00    +0.387 N 
ATOM      2  C   UNL     1      33.081 -12.983 -22.845  0.00  0.00    +0.104 C 
ATOM      3  C   UNL     1      32.075 -13.569 -21.821  0.00  0.00    -0.008 C 
ATOM      4  C   UNL     1      34.511 -13.367 -22.385  0.00  0.00    -0.008 C 
ATOM      5  C   UNL     1      32.315 -15.050 -21.509  0.00  0.00    -0.076 C 
ATOM      6  C   UNL     1      34.662 -14.851 -22.031  0.00  0.00    -0.076 C 
ATOM      7  H   UNL     1      33.818 -14.695 -20.191  0.00  0.00    -0.080 HD
ENDROOT
BRANCH   2   8
ATOM      8  C   UNL     1      32.969 -11.461 -23.035  0.00  0.00    -0.013 C 
ATOM      9  C   UNL     1      33.895 -10.793 -23.832  0.00  0.00    -0.004 C 
ATOM     10  C   UNL     1      31.944 -10.758 -22.408  0.00  0.00    -0.004 C 
ATOM     11  C   UNL     1      33.794  -9.412 -24.003  0.00  0.00    -0.000 C 
ATOM     12  C   UNL     1      31.843  -9.378 -22.579  0.00  0.00    -0.000 C 
ATOM     13  C   UNL     1      32.768  -8.704 -23.377  0.00  0.00    -0.000 C 
ENDBRANCH   2   8
BRANCH   2  15
ATOM     14  O   UNL     1      33.641 -13.941 -25.011  0.00  0.00    -0.250 OA
ATOM     15  C   UNL     1      32.794 -13.627 -24.187  0.00  0.00    +0.316 C 
BRANCH  15  16
ATOM     16  O   UNL     1      31.462 -13.809 -24.356  0.00  0.00    -0.480 OA
ATOM     17  H   UNL     1      31.031 -13.450 -25.107  0.00  0.00    +0.295 HD
ENDBRANCH  15  16
ENDBRANCH   2  15
BRANCH   1  18
ATOM     18  C   UNL     1      33.881 -16.670 -20.662  0.00  0.00    -0.076 C 
BRANCH  18  19
ATOM     19  C   UNL     1      35.349 -17.068 -20.893  0.00  0.00    -0.000 C 
BRANCH  19  20
ATOM     20  C   UNL     1      35.564 -18.431 -21.653  0.00  0.00    +0.115 C 
BRANCH  20  21
ATOM     21  C   UNL     1      35.062 -18.395 -23.121  0.00  0.00    -0.006 C 
ATOM     22  C   UNL     1      34.955 -17.176 -23.728  0.00  0.00    -0.003 C 
ATOM     23  C   UNL     1      34.758 -19.584 -23.720  0.00  0.00    -0.003 C 
ATOM     24  C   UNL     1      34.503 -17.143 -25.047  0.00  0.00    -0.000 C 
ATOM     25  C   UNL     1      34.306 -19.551 -25.039  0.00  0.00    -0.000 C 
ATOM     26  C   UNL     1      34.179 -18.331 -25.703  0.00  0.00    -0.000 C 
ENDBRANCH  20  21
BRANCH  20  27
ATOM     27  C   UNL     1      34.814 -19.544 -20.883  0.00  0.00    -0.006 C 
ATOM     28  C   UNL     1      33.446 -19.518 -20.887  0.00  0.00    -0.003 C 
ATOM     29  C   UNL     1      35.561 -20.494 -20.240  0.00  0.00    -0.003 C 
ATOM     30  C   UNL     1      32.771 -20.521 -20.192  0.00  0.00    -0.000 C 
ATOM     31  C   UNL     1      34.885 -21.497 -19.545  0.00  0.00    -0.000 C 
ATOM     32  C   UNL     1      33.490 -21.511 -19.522  0.00  0.00    -0.000 C 
ENDBRANCH  20  27
BRANCH  20  34
ATOM     33  N   UNL     1      38.191 -18.797 -21.782  0.00  0.00    -0.195 NA
ATOM     34  C   UNL     1      37.042 -18.644 -21.720  0.00  0.00    +0.079 C 
ENDBRANCH  20  34
ENDBRANCH  19  20
ENDBRANCH  18  19
ENDBRANCH   1  18
TORSDOF 9
ENDMDL
MODEL 5
REMARK VINA RESULT:      -9.3      5.241     10.572
REMARK  Name = 34328
REMARK  9 active torsions:
REMARK  status: ('A' for Active; 'I' for Inactive)
REMARK    1  A    between atoms: N_1  and  C_18
REMARK    2  A    between atoms: C_2  and  C_8
REMARK    3  A    between atoms: C_2  and  C_15
REMARK    4  A    between atoms: C_15  and  O_16
REMARK    5  A    between atoms: C_18  and  C_19
REMARK    6  A    between atoms: C_19  and  C_20
REMARK    7  A    between atoms: C_20  and  C_21
REMARK    8  A    between atoms: C_20  and  C_27
REMARK    9  A    between atoms: C_20  and  C_34
REMARK                            x       y       z     vdW  Elec       q    Type
REMARK                         _______ _______ _______ _____ _____    ______ ____
ROOT
ATOM      1  N   UNL     1      32.060  -9.168 -23.135  0.00  0.00    +0.387 N 
ATOM      2  C   UNL     1      31.775  -6.256 -23.709  0.00  0.00    +0.104 C 
ATOM      3  C   UNL     1      33.106  -6.938 -23.302  0.00  0.00    -0.008 C 
ATOM      4  C   UNL     1      30.837  -7.346 -24.290  0.00  0.00    -0.008 C 
ATOM      5  C   UNL     1      32.912  -8.194 -22.447  0.00  0.00    -0.076 C 
ATOM      6  C   UNL     1      30.738  -8.599 -23.412  0.00  0.00    -0.076 C 
ATOM      7  H   UNL     1      32.499  -9.402 -24.026  0.00  0.00    -0.080 HD
ENDROOT
BRANCH   2   8
ATOM      8  C   UNL     1      31.941  -5.102 -24.713  0.00  0.00    -0.013 C 
ATOM      9  C   UNL     1      31.132  -3.973 -24.610  0.00  0.00    -0.004 C 
ATOM     10  C   UNL     1      32.898  -5.193 -25.720  0.00  0.00    -0.004 C 
ATOM     11  C   UNL     1      31.282  -2.928 -25.522  0.00  0.00    -0.000 C 
ATOM     12  C   UNL     1      33.049  -4.147 -26.631  0.00  0.00    -0.000 C 
ATOM     13  C   UNL     1      32.240  -3.014 -26.531  0.00  0.00    -0.000 C 
ENDBRANCH   2   8
BRANCH   2  15
ATOM     14  O   UNL     1      29.955  -5.574 -22.245  0.00  0.00    -0.250 OA
ATOM     15  C   UNL     1      31.155  -5.675 -22.454  0.00  0.00    +0.316 C 
BRANCH  15  16
ATOM     16  O   UNL     1      32.117  -5.279 -21.585  0.00  0.00    -0.480 OA
ATOM     17  H   UNL     1      31.902  -4.700 -20.880  0.00  0.00    +0.295 HD
ENDBRANCH  15  16
ENDBRANCH   2  15
BRANCH   1  18
ATOM     18  C   UNL     1      31.936 -10.392 -22.344  0.00  0.00    -0.076 C 
BRANCH  18  19
ATOM     19  C   UNL     1      31.797 -11.608 -23.275  0.00  0.00    -0.000 C 
BRANCH  19  20
ATOM     20  C   UNL     1      33.140 -12.364 -23.598  0.00  0.00    +0.115 C 
BRANCH  20  21
ATOM     21  C   UNL     1      33.125 -13.071 -24.979  0.00  0.00    -0.006 C 
ATOM     22  C   UNL     1      32.767 -14.390 -25.017  0.00  0.00    -0.003 C 
ATOM     23  C   UNL     1      33.468 -12.335 -26.077  0.00  0.00    -0.003 C 
ATOM     24  C   UNL     1      32.754 -15.025 -26.258  0.00  0.00    -0.000 C 
ATOM     25  C   UNL     1      33.455 -12.970 -27.318  0.00  0.00    -0.000 C 
ATOM     26  C   UNL     1      33.097 -14.316 -27.409  0.00  0.00    -0.000 C 
ENDBRANCH  20  21
BRANCH  20  27
ATOM     27  C   UNL     1      33.389 -13.414 -22.489  0.00  0.00    -0.006 C 
ATOM     28  C   UNL     1      34.541 -14.151 -22.549  0.00  0.00    -0.003 C 
ATOM     29  C   UNL     1      32.444 -13.548 -21.508  0.00  0.00    -0.003 C 
ATOM     30  C   UNL     1      34.765 -15.097 -21.549  0.00  0.00    -0.000 C 
ATOM     31  C   UNL     1      32.668 -14.495 -20.509  0.00  0.00    -0.000 C 
ATOM     32  C   UNL     1      33.829 -15.269 -20.529  0.00  0.00    -0.000 C 
ENDBRANCH  20  27
BRANCH  20  34
ATOM     33  N   UNL     1      35.024 -10.498 -23.750  0.00  0.00    -0.195 NA
ATOM     34  C   UNL     1      34.203 -11.315 -23.675  0.00  0.00    +0.079 C 
ENDBRANCH  20  34
ENDBRANCH  19  20
ENDBRANCH  18  19
ENDBRANCH   1  18
TORSDOF 9
ENDMDL
MODEL 6
REMARK VINA RESULT:      -9.0      1.355      2.311
REMARK  Name = 34328
REMARK  9 active torsions:
REMARK  status: ('A' for Active; 'I' for Inactive)
REMARK    1  A    between atoms: N_1  and  C_18
REMARK    2  A    between atoms: C_2  and  C_8
REMARK    3  A    between atoms: C_2  and  C_15
REMARK    4  A    between atoms: C_15  and  O_16
REMARK    5  A    between atoms: C_18  and  C_19
REMARK    6  A    between atoms: C_19  and  C_20
REMARK    7  A    between atoms: C_20  and  C_21
REMARK    8  A    between atoms: C_20  and  C_27
REMARK    9  A    between atoms: C_20  and  C_34
REMARK                            x       y       z     vdW  Elec       q    Type
REMARK                         _______ _______ _______ _____ _____    ______ ____
ROOT
ATOM      1  N   UNL     1      35.073 -16.535 -23.345  0.00  0.00    +0.387 N 
ATOM      2  C   UNL     1      34.554 -18.747 -21.414  0.00  0.00    +0.104 C 
ATOM      3  C   UNL     1      34.785 -18.952 -22.934  0.00  0.00    -0.008 C 
ATOM      4  C   UNL     1      35.173 -17.381 -21.017  0.00  0.00    -0.008 C 
ATOM      5  C   UNL     1      34.371 -17.745 -23.782  0.00  0.00    -0.076 C 
ATOM      6  C   UNL     1      34.764 -16.231 -21.945  0.00  0.00    -0.076 C 
ATOM      7  H   UNL     1      36.076 -16.703 -23.421  0.00  0.00    -0.080 HD
ENDROOT
BRANCH   2   8
ATOM      8  C   UNL     1      35.127 -19.871 -20.535  0.00  0.00    -0.013 C 
ATOM      9  C   UNL     1      34.269 -20.800 -19.953  0.00  0.00    -0.004 C 
ATOM     10  C   UNL     1      36.501 -19.953 -20.323  0.00  0.00    -0.004 C 
ATOM     11  C   UNL     1      34.789 -21.819 -19.154  0.00  0.00    -0.000 C 
ATOM     12  C   UNL     1      37.021 -20.972 -19.525  0.00  0.00    -0.000 C 
ATOM     13  C   UNL     1      36.164 -21.905 -18.940  0.00  0.00    -0.000 C 
ENDBRANCH   2   8
BRANCH   2  15
ATOM     14  O   UNL     1      32.444 -17.761 -20.713  0.00  0.00    -0.250 OA
ATOM     15  C   UNL     1      33.057 -18.709 -21.180  0.00  0.00    +0.316 C 
BRANCH  15  16
ATOM     16  O   UNL     1      32.484 -19.877 -21.558  0.00  0.00    -0.480 OA
ATOM     17  H   UNL     1      31.834 -19.883 -22.233  0.00  0.00    +0.295 HD
ENDBRANCH  15  16
ENDBRANCH   2  15
BRANCH   1  18
ATOM     18  C   UNL     1      34.727 -15.402 -24.203  0.00  0.00    -0.076 C 
BRANCH  18  19
ATOM     19  C   UNL     1      34.506 -14.142 -23.348  0.00  0.00    -0.000 C 
BRANCH  19  20
ATOM     20  C   UNL     1      33.496 -13.093 -23.946  0.00  0.00    +0.115 C 
BRANCH  20  21
ATOM     21  C   UNL     1      34.199 -11.878 -24.608  0.00  0.00    -0.006 C 
ATOM     22  C   UNL     1      34.452 -10.785 -23.828  0.00  0.00    -0.003 C 
ATOM     23  C   UNL     1      34.526 -11.973 -25.931  0.00  0.00    -0.003 C 
ATOM     24  C   UNL     1      35.083  -9.694 -24.423  0.00  0.00    -0.000 C 
ATOM     25  C   UNL     1      35.157 -10.882 -26.525  0.00  0.00    -0.000 C 
ATOM     26  C   UNL     1      35.436  -9.742 -25.772  0.00  0.00    -0.000 C 
ENDBRANCH  20  21
BRANCH  20  27
ATOM     27  C   UNL     1      32.578 -12.593 -22.805  0.00  0.00    -0.006 C 
ATOM     28  C   UNL     1      32.626 -13.252 -21.607  0.00  0.00    -0.003 C 
ATOM     29  C   UNL     1      31.768 -11.519 -23.057  0.00  0.00    -0.003 C 
ATOM     30  C   UNL     1      31.798 -12.801 -20.579  0.00  0.00    -0.000 C 
ATOM     31  C   UNL     1      30.940 -11.069 -22.029  0.00  0.00    -0.000 C 
ATOM     32  C   UNL     1      30.955 -11.710 -20.790  0.00  0.00    -0.000 C 
ENDBRANCH  20  27
BRANCH  20  34
ATOM     33  N   UNL     1      32.199 -14.347 -25.896  0.00  0.00    -0.195 NA
ATOM     34  C   UNL     1      32.758 -13.798 -25.039  0.00  0.00    +0.079 C 
ENDBRANCH  20  34
ENDBRANCH  19  20
ENDBRANCH  18  19
ENDBRANCH   1  18
TORSDOF 9
ENDMDL
MODEL 7
REMARK VINA RESULT:      -8.8      4.060     10.659
REMARK  Name = 34328
REMARK  9 active torsions:
REMARK  status: ('A' for Active; 'I' for Inactive)
REMARK    1  A    between atoms: N_1  and  C_18
REMARK    2  A    between atoms: C_2  and  C_8
REMARK    3  A    between atoms: C_2  and  C_15
REMARK    4  A    between atoms: C_15  and  O_16
REMARK    5  A    between atoms: C_18  and  C_19
REMARK    6  A    between atoms: C_19  and  C_20
REMARK    7  A    between atoms: C_20  and  C_21
REMARK    8  A    between atoms: C_20  and  C_27
REMARK    9  A    between atoms: C_20  and  C_34
REMARK                            x       y       z     vdW  Elec       q    Type
REMARK                         _______ _______ _______ _____ _____    ______ ____
ROOT
ATOM      1  N   UNL     1      35.611 -20.925 -20.175  0.00  0.00    +0.387 N 
ATOM      2  C   UNL     1      34.940 -18.502 -21.778  0.00  0.00    +0.104 C 
ATOM      3  C   UNL     1      36.385 -18.995 -21.507  0.00  0.00    -0.008 C 
ATOM      4  C   UNL     1      33.980 -19.705 -21.590  0.00  0.00    -0.008 C 
ATOM      5  C   UNL     1      36.525 -19.780 -20.199  0.00  0.00    -0.076 C 
ATOM      6  C   UNL     1      34.218 -20.481 -20.289  0.00  0.00    -0.076 C 
ATOM      7  H   UNL     1      35.822 -21.519 -20.977  0.00  0.00    -0.080 HD
ENDROOT
BRANCH   2   8
ATOM      8  C   UNL     1      34.742 -17.871 -23.167  0.00  0.00    -0.013 C 
ATOM      9  C   UNL     1      34.558 -18.688 -24.279  0.00  0.00    -0.004 C 
ATOM     10  C   UNL     1      34.749 -16.485 -23.305  0.00  0.00    -0.004 C 
ATOM     11  C   UNL     1      34.380 -18.115 -25.538  0.00  0.00    -0.000 C 
ATOM     12  C   UNL     1      34.570 -15.912 -24.564  0.00  0.00    -0.000 C 
ATOM     13  C   UNL     1      34.385 -16.727 -25.681  0.00  0.00    -0.000 C 
ENDBRANCH   2   8
BRANCH   2  15
ATOM     14  O   UNL     1      35.449 -16.798 -20.119  0.00  0.00    -0.250 OA
ATOM     15  C   UNL     1      34.620 -17.437 -20.749  0.00  0.00    +0.316 C 
BRANCH  15  16
ATOM     16  O   UNL     1      33.279 -17.286 -20.618  0.00  0.00    -0.480 OA
ATOM     17  H   UNL     1      32.736 -17.240 -21.380  0.00  0.00    +0.295 HD
ENDBRANCH  15  16
ENDBRANCH   2  15
BRANCH   1  18
ATOM     18  C   UNL     1      35.800 -21.709 -18.955  0.00  0.00    -0.076 C 
BRANCH  18  19
ATOM     19  C   UNL     1      34.510 -21.698 -18.117  0.00  0.00    -0.000 C 
BRANCH  19  20
ATOM     20  C   UNL     1      34.187 -23.042 -17.363  0.00  0.00    +0.115 C 
BRANCH  20  21
ATOM     21  C   UNL     1      32.885 -22.971 -16.521  0.00  0.00    -0.006 C 
ATOM     22  C   UNL     1      33.002 -23.032 -15.161  0.00  0.00    -0.003 C 
ATOM     23  C   UNL     1      31.700 -22.850 -17.189  0.00  0.00    -0.003 C 
ATOM     24  C   UNL     1      31.832 -22.969 -14.404  0.00  0.00    -0.000 C 
ATOM     25  C   UNL     1      30.531 -22.787 -16.432  0.00  0.00    -0.000 C 
ATOM     26  C   UNL     1      30.596 -22.846 -15.040  0.00  0.00    -0.000 C 
ENDBRANCH  20  21
BRANCH  20  27
ATOM     27  C   UNL     1      35.379 -23.380 -16.435  0.00  0.00    -0.006 C 
ATOM     28  C   UNL     1      36.351 -22.433 -16.268  0.00  0.00    -0.003 C 
ATOM     29  C   UNL     1      35.394 -24.609 -15.832  0.00  0.00    -0.003 C 
ATOM     30  C   UNL     1      37.425 -22.738 -15.432  0.00  0.00    -0.000 C 
ATOM     31  C   UNL     1      36.468 -24.914 -14.996  0.00  0.00    -0.000 C 
ATOM     32  C   UNL     1      37.483 -23.979 -14.796  0.00  0.00    -0.000 C 
ENDBRANCH  20  27
BRANCH  20  34
ATOM     33  N   UNL     1      33.775 -24.865 -19.251  0.00  0.00    -0.195 NA
ATOM     34  C   UNL     1      33.947 -24.069 -18.423  0.00  0.00    +0.079 C 
ENDBRANCH  20  34
ENDBRANCH  19  20
ENDBRANCH  18  19
ENDBRANCH   1  18
TORSDOF 9
ENDMDL
MODEL 8
REMARK VINA RESULT:      -8.5      2.497      8.114
REMARK  Name = 34328
REMARK  9 active torsions:
REMARK  status: ('A' for Active; 'I' for Inactive)
REMARK    1  A    between atoms: N_1  and  C_18
REMARK    2  A    between atoms: C_2  and  C_8
REMARK    3  A    between atoms: C_2  and  C_15
REMARK    4  A    between atoms: C_15  and  O_16
REMARK    5  A    between atoms: C_18  and  C_19
REMARK    6  A    between atoms: C_19  and  C_20
REMARK    7  A    between atoms: C_20  and  C_21
REMARK    8  A    between atoms: C_20  and  C_27
REMARK    9  A    between atoms: C_20  and  C_34
REMARK                            x       y       z     vdW  Elec       q    Type
REMARK                         _______ _______ _______ _____ _____    ______ ____
ROOT
ATOM      1  N   UNL     1      33.969 -15.944 -23.892  0.00  0.00    +0.387 N 
ATOM      2  C   UNL     1      33.296 -13.040 -23.983  0.00  0.00    +0.104 C 
ATOM      3  C   UNL     1      32.286 -14.178 -24.276  0.00  0.00    -0.008 C 
ATOM      4  C   UNL     1      34.451 -13.632 -23.134  0.00  0.00    -0.008 C 
ATOM      5  C   UNL     1      32.943 -15.453 -24.816  0.00  0.00    -0.076 C 
ATOM      6  C   UNL     1      35.019 -14.939 -23.700  0.00  0.00    -0.076 C 
ATOM      7  H   UNL     1      33.528 -16.119 -22.989  0.00  0.00    -0.080 HD
ENDROOT
BRANCH   2   8
ATOM      8  C   UNL     1      32.681 -11.821 -23.274  0.00  0.00    -0.013 C 
ATOM      9  C   UNL     1      31.796 -12.009 -22.216  0.00  0.00    -0.004 C 
ATOM     10  C   UNL     1      33.012 -10.536 -23.695  0.00  0.00    -0.004 C 
ATOM     11  C   UNL     1      31.237 -10.903 -21.575  0.00  0.00    -0.000 C 
ATOM     12  C   UNL     1      32.455  -9.430 -23.053  0.00  0.00    -0.000 C 
ATOM     13  C   UNL     1      31.567  -9.614 -21.993  0.00  0.00    -0.000 C 
ENDBRANCH   2   8
BRANCH   2  15
ATOM     14  O   UNL     1      33.430 -12.908 -26.408  0.00  0.00    -0.250 OA
ATOM     15  C   UNL     1      33.844 -12.560 -25.312  0.00  0.00    +0.316 C 
BRANCH  15  16
ATOM     16  O   UNL     1      34.862 -11.686 -25.123  0.00  0.00    -0.480 OA
ATOM     17  H   UNL     1      34.824 -10.832 -25.507  0.00  0.00    +0.295 HD
ENDBRANCH  15  16
ENDBRANCH   2  15
BRANCH   1  18
ATOM     18  C   UNL     1      34.543 -17.197 -24.379  0.00  0.00    -0.076 C 
BRANCH  18  19
ATOM     19  C   UNL     1      34.132 -18.357 -23.455  0.00  0.00    -0.000 C 
BRANCH  19  20
ATOM     20  C   UNL     1      34.697 -18.279 -21.987  0.00  0.00    +0.115 C 
BRANCH  20  21
ATOM     21  C   UNL     1      34.366 -19.536 -21.140  0.00  0.00    -0.006 C 
ATOM     22  C   UNL     1      35.412 -20.252 -20.627  0.00  0.00    -0.003 C 
ATOM     23  C   UNL     1      33.051 -19.854 -20.955  0.00  0.00    -0.003 C 
ATOM     24  C   UNL     1      35.116 -21.382 -19.866  0.00  0.00    -0.000 C 
ATOM     25  C   UNL     1      32.755 -20.984 -20.194  0.00  0.00    -0.000 C 
ATOM     26  C   UNL     1      33.787 -21.748 -19.649  0.00  0.00    -0.000 C 
ENDBRANCH  20  21
BRANCH  20  27
ATOM     27  C   UNL     1      34.100 -17.027 -21.300  0.00  0.00    -0.006 C 
ATOM     28  C   UNL     1      34.959 -16.169 -20.671  0.00  0.00    -0.003 C 
ATOM     29  C   UNL     1      32.744 -16.848 -21.360  0.00  0.00    -0.003 C 
ATOM     30  C   UNL     1      34.421 -15.042 -20.051  0.00  0.00    -0.000 C 
ATOM     31  C   UNL     1      32.206 -15.720 -20.740  0.00  0.00    -0.000 C 
ATOM     32  C   UNL     1      33.045 -14.817 -20.086  0.00  0.00    -0.000 C 
ENDBRANCH  20  27
BRANCH  20  34
ATOM     33  N   UNL     1      37.343 -18.219 -22.209  0.00  0.00    -0.195 NA
ATOM     34  C   UNL     1      36.186 -18.237 -22.113  0.00  0.00    +0.079 C 
ENDBRANCH  20  34
ENDBRANCH  19  20
ENDBRANCH  18  19
ENDBRANCH   1  18
TORSDOF 9
ENDMDL
MODEL 9
REMARK VINA RESULT:      -8.5      3.118      5.363
REMARK  Name = 34328
REMARK  9 active torsions:
REMARK  status: ('A' for Active; 'I' for Inactive)
REMARK    1  A    between atoms: N_1  and  C_18
REMARK    2  A    between atoms: C_2  and  C_8
REMARK    3  A    between atoms: C_2  and  C_15
REMARK    4  A    between atoms: C_15  and  O_16
REMARK    5  A    between atoms: C_18  and  C_19
REMARK    6  A    between atoms: C_19  and  C_20
REMARK    7  A    between atoms: C_20  and  C_21
REMARK    8  A    between atoms: C_20  and  C_27
REMARK    9  A    between atoms: C_20  and  C_34
REMARK                            x       y       z     vdW  Elec       q    Type
REMARK                         _______ _______ _______ _____ _____    ______ ____
ROOT
ATOM      1  N   UNL     1      31.260 -12.691 -21.434  0.00  0.00    +0.387 N 
ATOM      2  C   UNL     1      33.335 -14.816 -21.689  0.00  0.00    +0.104 C 
ATOM      3  C   UNL     1      32.543 -14.523 -20.389  0.00  0.00    -0.008 C 
ATOM      4  C   UNL     1      32.516 -14.262 -22.883  0.00  0.00    -0.008 C 
ATOM      5  C   UNL     1      32.074 -13.068 -20.276  0.00  0.00    -0.076 C 
ATOM      6  C   UNL     1      32.028 -12.824 -22.675  0.00  0.00    -0.076 C 
ATOM      7  H   UNL     1      30.462 -13.325 -21.484  0.00  0.00    -0.080 HD
ENDROOT
BRANCH   2   8
ATOM      8  C   UNL     1      33.658 -16.304 -21.905  0.00  0.00    -0.013 C 
ATOM      9  C   UNL     1      34.240 -16.720 -23.100  0.00  0.00    -0.004 C 
ATOM     10  C   UNL     1      33.366 -17.229 -20.905  0.00  0.00    -0.004 C 
ATOM     11  C   UNL     1      34.531 -18.070 -23.296  0.00  0.00    -0.000 C 
ATOM     12  C   UNL     1      33.659 -18.578 -21.101  0.00  0.00    -0.000 C 
ATOM     13  C   UNL     1      34.242 -18.999 -22.297  0.00  0.00    -0.000 C 
ENDBRANCH   2   8
BRANCH   2  15
ATOM     14  O   UNL     1      35.343 -13.991 -20.591  0.00  0.00    -0.250 OA
ATOM     15  C   UNL     1      34.656 -14.077 -21.597  0.00  0.00    +0.316 C 
BRANCH  15  16
ATOM     16  O   UNL     1      34.975 -13.518 -22.789  0.00  0.00    -0.480 OA
ATOM     17  H   UNL     1      35.080 -14.059 -23.548  0.00  0.00    +0.295 HD
ENDBRANCH  15  16
ENDBRANCH   2  15
BRANCH   1  18
ATOM     18  C   UNL     1      30.757 -11.325 -21.286  0.00  0.00    -0.076 C 
BRANCH  18  19
ATOM     19  C   UNL     1      31.066 -10.511 -22.554  0.00  0.00    -0.000 C 
BRANCH  19  20
ATOM     20  C   UNL     1      32.106  -9.344 -22.367  0.00  0.00    +0.115 C 
BRANCH  20  21
ATOM     21  C   UNL     1      31.503  -7.940 -22.640  0.00  0.00    -0.006 C 
ATOM     22  C   UNL     1      31.529  -7.027 -21.624  0.00  0.00    -0.003 C 
ATOM     23  C   UNL     1      30.983  -7.700 -23.880  0.00  0.00    -0.003 C 
ATOM     24  C   UNL     1      30.987  -5.766 -21.869  0.00  0.00    -0.000 C 
ATOM     25  C   UNL     1      30.441  -6.438 -24.124  0.00  0.00    -0.000 C 
ATOM     26  C   UNL     1      30.443  -5.471 -23.119  0.00  0.00    -0.000 C 
ENDBRANCH  20  21
BRANCH  20  27
ATOM     27  C   UNL     1      33.293  -9.587 -23.331  0.00  0.00    -0.006 C 
ATOM     28  C   UNL     1      33.300 -10.744 -24.061  0.00  0.00    -0.003 C 
ATOM     29  C   UNL     1      34.270  -8.632 -23.399  0.00  0.00    -0.003 C 
ATOM     30  C   UNL     1      34.369 -10.964 -24.928  0.00  0.00    -0.000 C 
ATOM     31  C   UNL     1      35.339  -8.851 -24.267  0.00  0.00    -0.000 C 
ATOM     32  C   UNL     1      35.389 -10.017 -25.032  0.00  0.00    -0.000 C 
ENDBRANCH  20  27
BRANCH  20  34
ATOM     33  N   UNL     1      32.787  -9.380 -19.800  0.00  0.00    -0.195 NA
ATOM     34  C   UNL     1      32.497  -9.360 -20.924  0.00  0.00    +0.079 C 
ENDBRANCH  20  34
ENDBRANCH  19  20
ENDBRANCH  18  19
ENDBRANCH   1  18
TORSDOF 9
ENDMDL
