MODEL 1
REMARK VINA RESULT:      -8.0      0.000      0.000
REMARK  Name = 4753
REMARK  2 active torsions:
REMARK  status: ('A' for Active; 'I' for Inactive)
REMARK    1  A    between atoms: C_5  and  C_10
REMARK    2  A    between atoms: C_10  and  C_11
REMARK                            x       y       z     vdW  Elec       q    Type
REMARK                         _______ _______ _______ _____ _____    ______ ____
ROOT
ATOM      1  O   UNL     1      35.219 -19.239 -24.123  0.00  0.00    -0.274 OA
ATOM      2  O   UNL     1      34.055 -17.230 -25.719  0.00  0.00    -0.253 OA
ATOM      3  N   UNL     1      34.752 -17.042 -23.498  0.00  0.00    -0.240 N 
ATOM      4  N   UNL     1      33.824 -15.240 -24.592  0.00  0.00    -0.313 N 
ATOM      5  C   UNL     1      35.225 -18.339 -23.287  0.00  0.00    +0.234 C 
ATOM      6  C   UNL     1      34.200 -16.568 -24.691  0.00  0.00    +0.303 C 
ATOM      7  H   UNL     1      34.814 -16.409 -22.745  0.00  0.00    +0.159 HD
ATOM      8  H   UNL     1      33.420 -14.784 -25.364  0.00  0.00    +0.146 HD
ATOM      9  H   UNL     1      33.962 -14.752 -23.748  0.00  0.00    +0.146 HD
ENDROOT
BRANCH   5  10
ATOM     10  C   UNL     1      35.760 -18.509 -21.878  0.00  0.00    +0.112 C 
BRANCH  10  11
ATOM     11  C   UNL     1      34.989 -19.514 -21.064  0.00  0.00    -0.013 C 
ATOM     12  C   UNL     1      35.675 -20.501 -20.370  0.00  0.00    -0.004 C 
ATOM     13  C   UNL     1      33.605 -19.438 -21.018  0.00  0.00    -0.004 C 
ATOM     14  C   UNL     1      34.962 -21.432 -19.615  0.00  0.00    -0.000 C 
ATOM     15  C   UNL     1      32.891 -20.369 -20.262  0.00  0.00    -0.000 C 
ATOM     16  C   UNL     1      33.569 -21.365 -19.561  0.00  0.00    -0.000 C 
ENDBRANCH  10  11
ENDBRANCH   5  10
TORSDOF 2
ENDMDL
MODEL 2
REMARK VINA RESULT:      -7.9      2.033      2.069
REMARK  Name = 4753
REMARK  2 active torsions:
REMARK  status: ('A' for Active; 'I' for Inactive)
REMARK    1  A    between atoms: C_5  and  C_10
REMARK    2  A    between atoms: C_10  and  C_11
REMARK                            x       y       z     vdW  Elec       q    Type
REMARK                         _______ _______ _______ _____ _____    ______ ____
ROOT
ATOM      1  O   UNL     1      35.309 -16.764 -20.375  0.00  0.00    -0.274 OA
ATOM      2  O   UNL     1      34.337 -14.496 -21.735  0.00  0.00    -0.253 OA
ATOM      3  N   UNL     1      34.873 -16.573 -22.657  0.00  0.00    -0.240 N 
ATOM      4  N   UNL     1      34.089 -14.865 -23.989  0.00  0.00    -0.313 N 
ATOM      5  C   UNL     1      35.284 -17.246 -21.504  0.00  0.00    +0.234 C 
ATOM      6  C   UNL     1      34.428 -15.249 -22.703  0.00  0.00    +0.303 C 
ATOM      7  H   UNL     1      34.897 -17.072 -23.506  0.00  0.00    +0.159 HD
ATOM      8  H   UNL     1      33.760 -13.954 -24.160  0.00  0.00    +0.146 HD
ATOM      9  H   UNL     1      34.177 -15.505 -24.732  0.00  0.00    +0.146 HD
ENDROOT
BRANCH   5  10
ATOM     10  C   UNL     1      35.700 -18.671 -21.816  0.00  0.00    +0.112 C 
BRANCH  10  11
ATOM     11  C   UNL     1      34.980 -19.699 -20.985  0.00  0.00    -0.013 C 
ATOM     12  C   UNL     1      35.714 -20.626 -20.258  0.00  0.00    -0.004 C 
ATOM     13  C   UNL     1      33.593 -19.703 -20.955  0.00  0.00    -0.004 C 
ATOM     14  C   UNL     1      35.047 -21.578 -19.488  0.00  0.00    -0.000 C 
ATOM     15  C   UNL     1      32.926 -20.655 -20.184  0.00  0.00    -0.000 C 
ATOM     16  C   UNL     1      33.653 -21.593 -19.451  0.00  0.00    -0.000 C 
ENDBRANCH  10  11
ENDBRANCH   5  10
TORSDOF 2
ENDMDL
MODEL 3
REMARK VINA RESULT:      -7.3      3.306      5.654
REMARK  Name = 4753
REMARK  2 active torsions:
REMARK  status: ('A' for Active; 'I' for Inactive)
REMARK    1  A    between atoms: C_5  and  C_10
REMARK    2  A    between atoms: C_10  and  C_11
REMARK                            x       y       z     vdW  Elec       q    Type
REMARK                         _______ _______ _______ _____ _____    ______ ____
ROOT
ATOM      1  O   UNL     1      33.155 -19.262 -20.900  0.00  0.00    -0.274 OA
ATOM      2  O   UNL     1      32.579 -21.410 -19.170  0.00  0.00    -0.253 OA
ATOM      3  N   UNL     1      34.669 -20.797 -20.014  0.00  0.00    -0.240 N 
ATOM      4  N   UNL     1      34.458 -22.607 -18.605  0.00  0.00    -0.313 N 
ATOM      5  C   UNL     1      34.300 -19.692 -20.783  0.00  0.00    +0.234 C 
ATOM      6  C   UNL     1      33.794 -21.584 -19.259  0.00  0.00    +0.303 C 
ATOM      7  H   UNL     1      35.623 -21.042 -20.000  0.00  0.00    +0.159 HD
ATOM      8  H   UNL     1      33.956 -23.236 -18.038  0.00  0.00    +0.146 HD
ATOM      9  H   UNL     1      35.433 -22.704 -18.706  0.00  0.00    +0.146 HD
ENDROOT
BRANCH   5  10
ATOM     10  C   UNL     1      35.501 -19.070 -21.468  0.00  0.00    +0.112 C 
BRANCH  10  11
ATOM     11  C   UNL     1      35.155 -18.347 -22.742  0.00  0.00    -0.013 C 
ATOM     12  C   UNL     1      35.212 -16.960 -22.777  0.00  0.00    -0.004 C 
ATOM     13  C   UNL     1      34.785 -19.076 -23.862  0.00  0.00    -0.004 C 
ATOM     14  C   UNL     1      34.891 -16.290 -23.957  0.00  0.00    -0.000 C 
ATOM     15  C   UNL     1      34.465 -18.405 -25.043  0.00  0.00    -0.000 C 
ATOM     16  C   UNL     1      34.518 -17.012 -25.090  0.00  0.00    -0.000 C 
ENDBRANCH  10  11
ENDBRANCH   5  10
TORSDOF 2
ENDMDL
MODEL 4
REMARK VINA RESULT:      -7.3      5.521      7.154
REMARK  Name = 4753
REMARK  2 active torsions:
REMARK  status: ('A' for Active; 'I' for Inactive)
REMARK    1  A    between atoms: C_5  and  C_10
REMARK    2  A    between atoms: C_10  and  C_11
REMARK                            x       y       z     vdW  Elec       q    Type
REMARK                         _______ _______ _______ _____ _____    ______ ____
ROOT
ATOM      1  O   UNL     1      34.240 -22.891 -16.805  0.00  0.00    -0.274 OA
ATOM      2  O   UNL     1      31.820 -22.818 -15.365  0.00  0.00    -0.253 OA
ATOM      3  N   UNL     1      32.082 -22.906 -17.684  0.00  0.00    -0.240 N 
ATOM      4  N   UNL     1      29.980 -22.854 -16.742  0.00  0.00    -0.313 N 
ATOM      5  C   UNL     1      33.476 -22.920 -17.765  0.00  0.00    +0.234 C 
ATOM      6  C   UNL     1      31.343 -22.856 -16.499  0.00  0.00    +0.303 C 
ATOM      7  H   UNL     1      31.578 -22.934 -18.530  0.00  0.00    +0.159 HD
ATOM      8  H   UNL     1      29.346 -22.821 -15.990  0.00  0.00    +0.146 HD
ATOM      9  H   UNL     1      29.646 -22.887 -17.668  0.00  0.00    +0.146 HD
ENDROOT
BRANCH   5  10
ATOM     10  C   UNL     1      33.944 -22.981 -19.207  0.00  0.00    +0.112 C 
BRANCH  10  11
ATOM     11  C   UNL     1      34.166 -21.623 -19.819  0.00  0.00    -0.013 C 
ATOM     12  C   UNL     1      33.072 -20.847 -20.174  0.00  0.00    -0.004 C 
ATOM     13  C   UNL     1      35.461 -21.168 -20.019  0.00  0.00    -0.004 C 
ATOM     14  C   UNL     1      33.277 -19.590 -20.741  0.00  0.00    -0.000 C 
ATOM     15  C   UNL     1      35.667 -19.910 -20.585  0.00  0.00    -0.000 C 
ATOM     16  C   UNL     1      34.575 -19.121 -20.947  0.00  0.00    -0.000 C 
ENDBRANCH  10  11
ENDBRANCH   5  10
TORSDOF 2
ENDMDL
MODEL 5
REMARK VINA RESULT:      -7.3      1.931      1.984
REMARK  Name = 4753
REMARK  2 active torsions:
REMARK  status: ('A' for Active; 'I' for Inactive)
REMARK    1  A    between atoms: C_5  and  C_10
REMARK    2  A    between atoms: C_10  and  C_11
REMARK                            x       y       z     vdW  Elec       q    Type
REMARK                         _______ _______ _______ _____ _____    ______ ____
ROOT
ATOM      1  O   UNL     1      34.927 -17.303 -23.850  0.00  0.00    -0.274 OA
ATOM      2  O   UNL     1      34.074 -14.833 -22.797  0.00  0.00    -0.253 OA
ATOM      3  N   UNL     1      35.101 -16.582 -21.640  0.00  0.00    -0.240 N 
ATOM      4  N   UNL     1      34.494 -14.649 -20.546  0.00  0.00    -0.313 N 
ATOM      5  C   UNL     1      35.270 -17.492 -22.686  0.00  0.00    +0.234 C 
ATOM      6  C   UNL     1      34.518 -15.317 -21.757  0.00  0.00    +0.303 C 
ATOM      7  H   UNL     1      35.420 -16.853 -20.749  0.00  0.00    +0.159 HD
ATOM      8  H   UNL     1      34.109 -13.745 -20.489  0.00  0.00    +0.146 HD
ATOM      9  H   UNL     1      34.864 -15.078 -19.740  0.00  0.00    +0.146 HD
ENDROOT
BRANCH   5  10
ATOM     10  C   UNL     1      35.940 -18.765 -22.207  0.00  0.00    +0.112 C 
BRANCH  10  11
ATOM     11  C   UNL     1      35.062 -19.604 -21.317  0.00  0.00    -0.013 C 
ATOM     12  C   UNL     1      35.645 -20.507 -20.438  0.00  0.00    -0.004 C 
ATOM     13  C   UNL     1      33.684 -19.461 -21.386  0.00  0.00    -0.004 C 
ATOM     14  C   UNL     1      34.832 -21.283 -19.613  0.00  0.00    -0.000 C 
ATOM     15  C   UNL     1      32.871 -20.237 -20.560  0.00  0.00    -0.000 C 
ATOM     16  C   UNL     1      33.445 -21.149 -19.674  0.00  0.00    -0.000 C 
ENDBRANCH  10  11
ENDBRANCH   5  10
TORSDOF 2
ENDMDL
MODEL 6
REMARK VINA RESULT:      -7.3      3.332      5.651
REMARK  Name = 4753
REMARK  2 active torsions:
REMARK  status: ('A' for Active; 'I' for Inactive)
REMARK    1  A    between atoms: C_5  and  C_10
REMARK    2  A    between atoms: C_10  and  C_11
REMARK                            x       y       z     vdW  Elec       q    Type
REMARK                         _______ _______ _______ _____ _____    ______ ____
ROOT
ATOM      1  O   UNL     1      33.193 -19.686 -21.142  0.00  0.00    -0.274 OA
ATOM      2  O   UNL     1      32.683 -21.739 -19.281  0.00  0.00    -0.253 OA
ATOM      3  N   UNL     1      34.765 -20.886 -19.908  0.00  0.00    -0.240 N 
ATOM      4  N   UNL     1      34.610 -22.578 -18.352  0.00  0.00    -0.313 N 
ATOM      5  C   UNL     1      34.358 -19.922 -20.832  0.00  0.00    +0.234 C 
ATOM      6  C   UNL     1      33.910 -21.730 -19.193  0.00  0.00    +0.303 C 
ATOM      7  H   UNL     1      35.732 -20.978 -19.745  0.00  0.00    +0.159 HD
ATOM      8  H   UNL     1      34.126 -23.225 -17.791  0.00  0.00    +0.146 HD
ATOM      9  H   UNL     1      35.594 -22.532 -18.315  0.00  0.00    +0.146 HD
ENDROOT
BRANCH   5  10
ATOM     10  C   UNL     1      35.546 -19.184 -21.419  0.00  0.00    +0.112 C 
BRANCH  10  11
ATOM     11  C   UNL     1      35.210 -18.405 -22.663  0.00  0.00    -0.013 C 
ATOM     12  C   UNL     1      34.889 -19.086 -23.829  0.00  0.00    -0.004 C 
ATOM     13  C   UNL     1      35.226 -17.019 -22.625  0.00  0.00    -0.004 C 
ATOM     14  C   UNL     1      34.577 -18.365 -24.981  0.00  0.00    -0.000 C 
ATOM     15  C   UNL     1      34.913 -16.297 -23.778  0.00  0.00    -0.000 C 
ATOM     16  C   UNL     1      34.589 -16.970 -24.955  0.00  0.00    -0.000 C 
ENDBRANCH  10  11
ENDBRANCH   5  10
TORSDOF 2
ENDMDL
MODEL 7
REMARK VINA RESULT:      -7.2      1.764      2.389
REMARK  Name = 4753
REMARK  2 active torsions:
REMARK  status: ('A' for Active; 'I' for Inactive)
REMARK    1  A    between atoms: C_5  and  C_10
REMARK    2  A    between atoms: C_10  and  C_11
REMARK                            x       y       z     vdW  Elec       q    Type
REMARK                         _______ _______ _______ _____ _____    ______ ____
ROOT
ATOM      1  O   UNL     1      34.575 -17.172 -20.899  0.00  0.00    -0.274 OA
ATOM      2  O   UNL     1      35.473 -15.767 -23.170  0.00  0.00    -0.253 OA
ATOM      3  N   UNL     1      34.439 -17.860 -23.122  0.00  0.00    -0.240 N 
ATOM      4  N   UNL     1      35.084 -16.916 -25.121  0.00  0.00    -0.313 N 
ATOM      5  C   UNL     1      34.246 -17.998 -21.746  0.00  0.00    +0.234 C 
ATOM      6  C   UNL     1      35.036 -16.761 -23.747  0.00  0.00    +0.303 C 
ATOM      7  H   UNL     1      34.129 -18.595 -23.699  0.00  0.00    +0.159 HD
ATOM      8  H   UNL     1      35.481 -16.212 -25.682  0.00  0.00    +0.146 HD
ATOM      9  H   UNL     1      34.719 -17.731 -25.537  0.00  0.00    +0.146 HD
ENDROOT
BRANCH   5  10
ATOM     10  C   UNL     1      33.566 -19.313 -21.413  0.00  0.00    +0.112 C 
BRANCH  10  11
ATOM     11  C   UNL     1      34.401 -20.213 -20.541  0.00  0.00    -0.013 C 
ATOM     12  C   UNL     1      33.775 -21.147 -19.727  0.00  0.00    -0.004 C 
ATOM     13  C   UNL     1      35.783 -20.097 -20.565  0.00  0.00    -0.004 C 
ATOM     14  C   UNL     1      34.548 -21.981 -18.920  0.00  0.00    -0.000 C 
ATOM     15  C   UNL     1      36.557 -20.932 -19.758  0.00  0.00    -0.000 C 
ATOM     16  C   UNL     1      35.939 -21.873 -18.936  0.00  0.00    -0.000 C 
ENDBRANCH  10  11
ENDBRANCH   5  10
TORSDOF 2
ENDMDL
MODEL 8
REMARK VINA RESULT:      -7.2      3.998      6.049
REMARK  Name = 4753
REMARK  2 active torsions:
REMARK  status: ('A' for Active; 'I' for Inactive)
REMARK    1  A    between atoms: C_5  and  C_10
REMARK    2  A    between atoms: C_10  and  C_11
REMARK                            x       y       z     vdW  Elec       q    Type
REMARK                         _______ _______ _______ _____ _____    ______ ____
ROOT
ATOM      1  O   UNL     1      35.289 -20.763 -19.868  0.00  0.00    -0.274 OA
ATOM      2  O   UNL     1      34.935 -22.795 -17.949  0.00  0.00    -0.253 OA
ATOM      3  N   UNL     1      33.274 -21.714 -19.184  0.00  0.00    -0.240 N 
ATOM      4  N   UNL     1      32.725 -23.356 -17.665  0.00  0.00    -0.313 N 
ATOM      5  C   UNL     1      34.066 -20.841 -19.934  0.00  0.00    +0.234 C 
ATOM      6  C   UNL     1      33.752 -22.631 -18.243  0.00  0.00    +0.303 C 
ATOM      7  H   UNL     1      32.300 -21.681 -19.329  0.00  0.00    +0.159 HD
ATOM      8  H   UNL     1      32.926 -24.037 -16.984  0.00  0.00    +0.146 HD
ATOM      9  H   UNL     1      31.793 -23.189 -17.935  0.00  0.00    +0.146 HD
ENDROOT
BRANCH   5  10
ATOM     10  C   UNL     1      33.221 -19.987 -20.859  0.00  0.00    +0.112 C 
BRANCH  10  11
ATOM     11  C   UNL     1      34.020 -18.966 -21.624  0.00  0.00    -0.013 C 
ATOM     12  C   UNL     1      34.156 -17.683 -21.112  0.00  0.00    -0.004 C 
ATOM     13  C   UNL     1      34.608 -19.322 -22.829  0.00  0.00    -0.004 C 
ATOM     14  C   UNL     1      34.897 -16.737 -21.820  0.00  0.00    -0.000 C 
ATOM     15  C   UNL     1      35.349 -18.375 -23.537  0.00  0.00    -0.000 C 
ATOM     16  C   UNL     1      35.493 -17.083 -23.033  0.00  0.00    -0.000 C 
ENDBRANCH  10  11
ENDBRANCH   5  10
TORSDOF 2
ENDMDL
MODEL 9
REMARK VINA RESULT:      -7.1      7.769      9.732
REMARK  Name = 4753
REMARK  2 active torsions:
REMARK  status: ('A' for Active; 'I' for Inactive)
REMARK    1  A    between atoms: C_5  and  C_10
REMARK    2  A    between atoms: C_10  and  C_11
REMARK                            x       y       z     vdW  Elec       q    Type
REMARK                         _______ _______ _______ _____ _____    ______ ____
ROOT
ATOM      1  O   UNL     1      36.060 -25.537 -15.481  0.00  0.00    -0.274 OA
ATOM      2  O   UNL     1      38.443 -26.851 -14.751  0.00  0.00    -0.253 OA
ATOM      3  N   UNL     1      38.005 -24.559 -14.649  0.00  0.00    -0.240 N 
ATOM      4  N   UNL     1      40.048 -25.393 -13.989  0.00  0.00    -0.313 N 
ATOM      5  C   UNL     1      36.695 -24.546 -15.132  0.00  0.00    +0.234 C 
ATOM      6  C   UNL     1      38.795 -25.701 -14.489  0.00  0.00    +0.303 C 
ATOM      7  H   UNL     1      38.405 -23.694 -14.401  0.00  0.00    +0.159 HD
ATOM      8  H   UNL     1      40.704 -26.109 -13.830  0.00  0.00    +0.146 HD
ATOM      9  H   UNL     1      40.283 -24.457 -13.794  0.00  0.00    +0.146 HD
ENDROOT
BRANCH   5  10
ATOM     10  C   UNL     1      36.136 -23.136 -15.174  0.00  0.00    +0.112 C 
BRANCH  10  11
ATOM     11  C   UNL     1      35.811 -22.664 -16.566  0.00  0.00    -0.013 C 
ATOM     12  C   UNL     1      34.552 -22.914 -17.094  0.00  0.00    -0.004 C 
ATOM     13  C   UNL     1      36.773 -21.984 -17.298  0.00  0.00    -0.004 C 
ATOM     14  C   UNL     1      34.250 -22.476 -18.383  0.00  0.00    -0.000 C 
ATOM     15  C   UNL     1      36.470 -21.545 -18.588  0.00  0.00    -0.000 C 
ATOM     16  C   UNL     1      35.209 -21.792 -19.130  0.00  0.00    -0.000 C 
ENDBRANCH  10  11
ENDBRANCH   5  10
TORSDOF 2
ENDMDL
