MODEL 1
REMARK VINA RESULT:      -9.9      0.000      0.000
REMARK  Name = 5726921
REMARK  5 active torsions:
REMARK  status: ('A' for Active; 'I' for Inactive)
REMARK    1  A    between atoms: N_4  and  C_20
REMARK    2  A    between atoms: C_8  and  C_9
REMARK    3  A    between atoms: C_10  and  O_18
REMARK    4  A    between atoms: C_12  and  N_17
REMARK    5  A    between atoms: C_20  and  C_21
REMARK                            x       y       z     vdW  Elec       q    Type
REMARK                         _______ _______ _______ _____ _____    ______ ____
ROOT
ATOM      1  S   UNL     1      33.618 -15.573 -23.478  0.00  0.00    -0.060 S 
ATOM      2  S   UNL     1      34.449 -18.037 -24.991  0.00  0.00    -0.027 S 
ATOM      3  O   UNL     1      35.235 -16.589 -20.174  0.00  0.00    -0.269 OA
ATOM      4  N   UNL     1      34.992 -17.442 -22.352  0.00  0.00    -0.240 N 
ATOM      5  C   UNL     1      34.824 -16.512 -21.324  0.00  0.00    +0.260 C 
ATOM      6  C   UNL     1      34.039 -15.360 -21.829  0.00  0.00    +0.085 C 
ATOM      7  C   UNL     1      34.425 -17.137 -23.584  0.00  0.00    +0.121 C 
ATOM      8  C   UNL     1      33.716 -14.308 -21.077  0.00  0.00    +0.014 C 
ENDROOT
BRANCH   8   9
ATOM      9  C   UNL     1      32.940 -13.134 -21.520  0.00  0.00    +0.036 C 
ATOM     10  C   UNL     1      33.369 -12.370 -22.593  0.00  0.00    +0.156 C 
ATOM     11  C   UNL     1      31.777 -12.822 -20.834  0.00  0.00    +0.003 C 
ATOM     12  C   UNL     1      32.616 -11.265 -22.991  0.00  0.00    +0.176 C 
ATOM     13  C   UNL     1      31.023 -11.717 -21.233  0.00  0.00    +0.002 C 
ATOM     14  C   UNL     1      31.443 -10.939 -22.311  0.00  0.00    +0.027 C 
BRANCH  12  17
ATOM     15  O   UNL     1      33.488 -11.017 -25.112  0.00  0.00    -0.126 OA
ATOM     16  O   UNL     1      32.914  -9.212 -24.000  0.00  0.00    -0.126 OA
ATOM     17  N   UNL     1      33.027 -10.459 -24.088  0.00  0.00    +0.061 N 
ENDBRANCH  12  17
BRANCH  10  18
ATOM     18  O   UNL     1      34.518 -12.687 -23.261  0.00  0.00    -0.504 OA
ATOM     19  H   UNL     1      34.969 -13.484 -23.064  0.00  0.00    +0.292 HD
ENDBRANCH  10  18
ENDBRANCH   8   9
BRANCH   4  20
ATOM     20  C   UNL     1      35.732 -18.682 -22.141  0.00  0.00    +0.126 C 
BRANCH  20  21
ATOM     21  C   UNL     1      35.002 -19.624 -21.228  0.00  0.00    -0.002 C 
ATOM     22  C   UNL     1      33.612 -19.634 -21.218  0.00  0.00    -0.003 C 
ATOM     23  C   UNL     1      35.723 -20.475 -20.399  0.00  0.00    -0.003 C 
ATOM     24  C   UNL     1      32.934 -20.508 -20.369  0.00  0.00    -0.000 C 
ATOM     25  C   UNL     1      35.045 -21.350 -19.550  0.00  0.00    -0.000 C 
ATOM     26  C   UNL     1      33.651 -21.366 -19.535  0.00  0.00    -0.000 C 
ENDBRANCH  20  21
ENDBRANCH   4  20
TORSDOF 5
ENDMDL
MODEL 2
REMARK VINA RESULT:      -9.9      2.974      8.442
REMARK  Name = 5726921
REMARK  5 active torsions:
REMARK  status: ('A' for Active; 'I' for Inactive)
REMARK    1  A    between atoms: N_4  and  C_20
REMARK    2  A    between atoms: C_8  and  C_9
REMARK    3  A    between atoms: C_10  and  O_18
REMARK    4  A    between atoms: C_12  and  N_17
REMARK    5  A    between atoms: C_20  and  C_21
REMARK                            x       y       z     vdW  Elec       q    Type
REMARK                         _______ _______ _______ _____ _____    ______ ____
ROOT
ATOM      1  S   UNL     1      33.815 -15.798 -21.838  0.00  0.00    -0.060 S 
ATOM      2  S   UNL     1      32.281 -13.211 -21.794  0.00  0.00    -0.027 S 
ATOM      3  O   UNL     1      34.095 -16.012 -25.638  0.00  0.00    -0.269 OA
ATOM      4  N   UNL     1      33.184 -14.574 -24.017  0.00  0.00    -0.240 N 
ATOM      5  C   UNL     1      33.867 -15.701 -24.476  0.00  0.00    +0.260 C 
ATOM      6  C   UNL     1      34.301 -16.517 -23.318  0.00  0.00    +0.085 C 
ATOM      7  C   UNL     1      33.041 -14.434 -22.642  0.00  0.00    +0.121 C 
ATOM      8  C   UNL     1      34.980 -17.658 -23.438  0.00  0.00    +0.014 C 
ENDROOT
BRANCH   8   9
ATOM      9  C   UNL     1      35.439 -18.513 -22.327  0.00  0.00    +0.036 C 
ATOM     10  C   UNL     1      34.555 -19.359 -21.678  0.00  0.00    +0.156 C 
ATOM     11  C   UNL     1      36.773 -18.444 -21.957  0.00  0.00    +0.003 C 
ATOM     12  C   UNL     1      35.017 -20.157 -20.630  0.00  0.00    +0.176 C 
ATOM     13  C   UNL     1      37.235 -19.242 -20.910  0.00  0.00    +0.002 C 
ATOM     14  C   UNL     1      36.356 -20.098 -20.247  0.00  0.00    +0.027 C 
BRANCH  12  17
ATOM     15  O   UNL     1      34.551 -22.175 -19.616  0.00  0.00    -0.126 OA
ATOM     16  O   UNL     1      32.974 -20.649 -19.679  0.00  0.00    -0.126 OA
ATOM     17  N   UNL     1      34.137 -21.037 -19.941  0.00  0.00    +0.061 N 
ENDBRANCH  12  17
BRANCH  10  18
ATOM     18  O   UNL     1      33.242 -19.418 -22.052  0.00  0.00    -0.504 OA
ATOM     19  H   UNL     1      32.589 -19.666 -21.428  0.00  0.00    +0.292 HD
ENDBRANCH  10  18
ENDBRANCH   8   9
BRANCH   4  20
ATOM     20  C   UNL     1      32.640 -13.584 -24.943  0.00  0.00    +0.126 C 
BRANCH  20  21
ATOM     21  C   UNL     1      33.588 -12.440 -25.163  0.00  0.00    -0.002 C 
ATOM     22  C   UNL     1      33.816 -11.529 -24.138  0.00  0.00    -0.003 C 
ATOM     23  C   UNL     1      34.227 -12.304 -26.389  0.00  0.00    -0.003 C 
ATOM     24  C   UNL     1      34.695 -10.466 -24.342  0.00  0.00    -0.000 C 
ATOM     25  C   UNL     1      35.108 -11.241 -26.593  0.00  0.00    -0.000 C 
ATOM     26  C   UNL     1      35.342 -10.323 -25.570  0.00  0.00    -0.000 C 
ENDBRANCH  20  21
ENDBRANCH   4  20
TORSDOF 5
ENDMDL
MODEL 3
REMARK VINA RESULT:      -9.9      1.631      2.050
REMARK  Name = 5726921
REMARK  5 active torsions:
REMARK  status: ('A' for Active; 'I' for Inactive)
REMARK    1  A    between atoms: N_4  and  C_20
REMARK    2  A    between atoms: C_8  and  C_9
REMARK    3  A    between atoms: C_10  and  O_18
REMARK    4  A    between atoms: C_12  and  N_17
REMARK    5  A    between atoms: C_20  and  C_21
REMARK                            x       y       z     vdW  Elec       q    Type
REMARK                         _______ _______ _______ _____ _____    ______ ____
ROOT
ATOM      1  S   UNL     1      34.222 -16.442 -23.787  0.00  0.00    -0.060 S 
ATOM      2  S   UNL     1      34.884 -19.217 -24.742  0.00  0.00    -0.027 S 
ATOM      3  O   UNL     1      35.491 -16.950 -20.225  0.00  0.00    -0.269 OA
ATOM      4  N   UNL     1      35.306 -18.179 -22.220  0.00  0.00    -0.240 N 
ATOM      5  C   UNL     1      35.170 -17.057 -21.401  0.00  0.00    +0.260 C 
ATOM      6  C   UNL     1      34.550 -15.956 -22.176  0.00  0.00    +0.085 C 
ATOM      7  C   UNL     1      34.861 -18.064 -23.532  0.00  0.00    +0.121 C 
ATOM      8  C   UNL     1      34.293 -14.753 -21.662  0.00  0.00    +0.014 C 
ENDROOT
BRANCH   8   9
ATOM      9  C   UNL     1      33.680 -13.619 -22.379  0.00  0.00    +0.036 C 
ATOM     10  C   UNL     1      32.726 -12.827 -21.761  0.00  0.00    +0.156 C 
ATOM     11  C   UNL     1      34.087 -13.372 -23.681  0.00  0.00    +0.003 C 
ATOM     12  C   UNL     1      32.163 -11.760 -22.463  0.00  0.00    +0.176 C 
ATOM     13  C   UNL     1      33.525 -12.305 -24.383  0.00  0.00    +0.002 C 
ATOM     14  C   UNL     1      32.563 -11.500 -23.773  0.00  0.00    +0.027 C 
BRANCH  12  17
ATOM     15  O   UNL     1      31.238  -9.688 -22.050  0.00  0.00    -0.126 OA
ATOM     16  O   UNL     1      30.288 -11.455 -21.156  0.00  0.00    -0.126 OA
ATOM     17  N   UNL     1      31.182 -10.926 -21.860  0.00  0.00    +0.061 N 
ENDBRANCH  12  17
BRANCH  10  18
ATOM     18  O   UNL     1      32.333 -13.080 -20.477  0.00  0.00    -0.504 OA
ATOM     19  H   UNL     1      32.291 -13.963 -20.166  0.00  0.00    +0.292 HD
ENDBRANCH  10  18
ENDBRANCH   8   9
BRANCH   4  20
ATOM     20  C   UNL     1      35.892 -19.419 -21.721  0.00  0.00    +0.126 C 
BRANCH  20  21
ATOM     21  C   UNL     1      34.943 -20.170 -20.833  0.00  0.00    -0.002 C 
ATOM     22  C   UNL     1      33.583 -19.885 -20.882  0.00  0.00    -0.003 C 
ATOM     23  C   UNL     1      35.433 -21.142 -19.969  0.00  0.00    -0.003 C 
ATOM     24  C   UNL     1      32.702 -20.583 -20.055  0.00  0.00    -0.000 C 
ATOM     25  C   UNL     1      34.552 -21.841 -19.144  0.00  0.00    -0.000 C 
ATOM     26  C   UNL     1      33.186 -21.560 -19.187  0.00  0.00    -0.000 C 
ENDBRANCH  20  21
ENDBRANCH   4  20
TORSDOF 5
ENDMDL
MODEL 4
REMARK VINA RESULT:      -9.7      3.094      8.310
REMARK  Name = 5726921
REMARK  5 active torsions:
REMARK  status: ('A' for Active; 'I' for Inactive)
REMARK    1  A    between atoms: N_4  and  C_20
REMARK    2  A    between atoms: C_8  and  C_9
REMARK    3  A    between atoms: C_10  and  O_18
REMARK    4  A    between atoms: C_12  and  N_17
REMARK    5  A    between atoms: C_20  and  C_21
REMARK                            x       y       z     vdW  Elec       q    Type
REMARK                         _______ _______ _______ _____ _____    ______ ____
ROOT
ATOM      1  S   UNL     1      33.054 -16.271 -20.807  0.00  0.00    -0.060 S 
ATOM      2  S   UNL     1      32.038 -13.440 -20.776  0.00  0.00    -0.027 S 
ATOM      3  O   UNL     1      35.551 -15.752 -23.645  0.00  0.00    -0.269 OA
ATOM      4  N   UNL     1      33.976 -14.496 -22.432  0.00  0.00    -0.240 N 
ATOM      5  C   UNL     1      34.696 -15.641 -22.776  0.00  0.00    +0.260 C 
ATOM      6  C   UNL     1      34.269 -16.766 -21.911  0.00  0.00    +0.085 C 
ATOM      7  C   UNL     1      33.045 -14.614 -21.407  0.00  0.00    +0.121 C 
ATOM      8  C   UNL     1      34.779 -17.995 -22.002  0.00  0.00    +0.014 C 
ENDROOT
BRANCH   8   9
ATOM      9  C   UNL     1      34.397 -19.153 -21.172  0.00  0.00    +0.036 C 
ATOM     10  C   UNL     1      35.358 -19.862 -20.467  0.00  0.00    +0.156 C 
ATOM     11  C   UNL     1      33.059 -19.507 -21.119  0.00  0.00    +0.003 C 
ATOM     12  C   UNL     1      34.968 -20.953 -19.691  0.00  0.00    +0.176 C 
ATOM     13  C   UNL     1      32.670 -20.598 -20.341  0.00  0.00    +0.002 C 
ATOM     14  C   UNL     1      33.625 -21.321 -19.628  0.00  0.00    +0.027 C 
BRANCH  12  17
ATOM     15  O   UNL     1      35.550 -22.341 -17.942  0.00  0.00    -0.126 OA
ATOM     16  O   UNL     1      37.121 -21.706 -19.340  0.00  0.00    -0.126 OA
ATOM     17  N   UNL     1      35.927 -21.704 -18.954  0.00  0.00    +0.061 N 
ENDBRANCH  12  17
BRANCH  10  18
ATOM     18  O   UNL     1      36.675 -19.503 -20.528  0.00  0.00    -0.504 OA
ATOM     19  H   UNL     1      37.341 -20.158 -20.465  0.00  0.00    +0.292 HD
ENDBRANCH  10  18
ENDBRANCH   8   9
BRANCH   4  20
ATOM     20  C   UNL     1      34.191 -13.227 -23.121  0.00  0.00    +0.126 C 
BRANCH  20  21
ATOM     21  C   UNL     1      33.732 -13.278 -24.550  0.00  0.00    -0.002 C 
ATOM     22  C   UNL     1      33.034 -14.390 -25.008  0.00  0.00    -0.003 C 
ATOM     23  C   UNL     1      34.009 -12.214 -25.399  0.00  0.00    -0.003 C 
ATOM     24  C   UNL     1      32.608 -14.438 -26.336  0.00  0.00    -0.000 C 
ATOM     25  C   UNL     1      33.581 -12.261 -26.727  0.00  0.00    -0.000 C 
ATOM     26  C   UNL     1      32.882 -13.373 -27.194  0.00  0.00    -0.000 C 
ENDBRANCH  20  21
ENDBRANCH   4  20
TORSDOF 5
ENDMDL
MODEL 5
REMARK VINA RESULT:      -9.7      3.894      9.357
REMARK  Name = 5726921
REMARK  5 active torsions:
REMARK  status: ('A' for Active; 'I' for Inactive)
REMARK    1  A    between atoms: N_4  and  C_20
REMARK    2  A    between atoms: C_8  and  C_9
REMARK    3  A    between atoms: C_10  and  O_18
REMARK    4  A    between atoms: C_12  and  N_17
REMARK    5  A    between atoms: C_20  and  C_21
REMARK                            x       y       z     vdW  Elec       q    Type
REMARK                         _______ _______ _______ _____ _____    ______ ____
ROOT
ATOM      1  S   UNL     1      33.930 -11.079 -24.012  0.00  0.00    -0.060 S 
ATOM      2  S   UNL     1      34.630  -8.162 -23.771  0.00  0.00    -0.027 S 
ATOM      3  O   UNL     1      31.025 -10.981 -21.540  0.00  0.00    -0.269 OA
ATOM      4  N   UNL     1      32.607  -9.504 -22.458  0.00  0.00    -0.240 N 
ATOM      5  C   UNL     1      31.974 -10.734 -22.272  0.00  0.00    +0.260 C 
ATOM      6  C   UNL     1      32.635 -11.757 -23.116  0.00  0.00    +0.085 C 
ATOM      7  C   UNL     1      33.678  -9.468 -23.344  0.00  0.00    +0.121 C 
ATOM      8  C   UNL     1      32.252 -13.034 -23.155  0.00  0.00    +0.014 C 
ENDROOT
BRANCH   8   9
ATOM      9  C   UNL     1      32.867 -14.097 -23.972  0.00  0.00    +0.036 C 
ATOM     10  C   UNL     1      33.572 -15.128 -23.372  0.00  0.00    +0.156 C 
ATOM     11  C   UNL     1      32.716 -14.034 -25.348  0.00  0.00    +0.003 C 
ATOM     12  C   UNL     1      34.143 -16.120 -24.169  0.00  0.00    +0.176 C 
ATOM     13  C   UNL     1      33.287 -15.027 -26.145  0.00  0.00    +0.002 C 
ATOM     14  C   UNL     1      34.001 -16.070 -25.555  0.00  0.00    +0.027 C 
BRANCH  12  17
ATOM     15  O   UNL     1      35.670 -16.946 -22.650  0.00  0.00    -0.126 OA
ATOM     16  O   UNL     1      34.701 -18.354 -24.029  0.00  0.00    -0.126 OA
ATOM     17  N   UNL     1      34.875 -17.193 -23.587  0.00  0.00    +0.061 N 
ENDBRANCH  12  17
BRANCH  10  18
ATOM     18  O   UNL     1      33.714 -15.179 -22.014  0.00  0.00    -0.504 OA
ATOM     19  H   UNL     1      34.257 -15.836 -21.625  0.00  0.00    +0.292 HD
ENDBRANCH  10  18
ENDBRANCH   8   9
BRANCH   4  20
ATOM     20  C   UNL     1      32.164  -8.306 -21.751  0.00  0.00    +0.126 C 
BRANCH  20  21
ATOM     21  C   UNL     1      31.721  -7.227 -22.696  0.00  0.00    -0.002 C 
ATOM     22  C   UNL     1      31.035  -7.568 -23.856  0.00  0.00    -0.003 C 
ATOM     23  C   UNL     1      32.003  -5.898 -22.403  0.00  0.00    -0.003 C 
ATOM     24  C   UNL     1      30.624  -6.565 -24.735  0.00  0.00    -0.000 C 
ATOM     25  C   UNL     1      31.592  -4.895 -23.281  0.00  0.00    -0.000 C 
ATOM     26  C   UNL     1      30.903  -5.229 -24.447  0.00  0.00    -0.000 C 
ENDBRANCH  20  21
ENDBRANCH   4  20
TORSDOF 5
ENDMDL
MODEL 6
REMARK VINA RESULT:      -9.6      3.168      8.607
REMARK  Name = 5726921
REMARK  5 active torsions:
REMARK  status: ('A' for Active; 'I' for Inactive)
REMARK    1  A    between atoms: N_4  and  C_20
REMARK    2  A    between atoms: C_8  and  C_9
REMARK    3  A    between atoms: C_10  and  O_18
REMARK    4  A    between atoms: C_12  and  N_17
REMARK    5  A    between atoms: C_20  and  C_21
REMARK                            x       y       z     vdW  Elec       q    Type
REMARK                         _______ _______ _______ _____ _____    ______ ____
ROOT
ATOM      1  S   UNL     1      34.197 -12.049 -23.608  0.00  0.00    -0.060 S 
ATOM      2  S   UNL     1      34.593  -9.263 -24.673  0.00  0.00    -0.027 S 
ATOM      3  O   UNL     1      30.697 -11.433 -22.217  0.00  0.00    -0.269 OA
ATOM      4  N   UNL     1      32.372 -10.244 -23.360  0.00  0.00    -0.240 N 
ATOM      5  C   UNL     1      31.799 -11.357 -22.744  0.00  0.00    +0.260 C 
ATOM      6  C   UNL     1      32.747 -12.495 -22.809  0.00  0.00    +0.085 C 
ATOM      7  C   UNL     1      33.650 -10.397 -23.887  0.00  0.00    +0.121 C 
ATOM      8  C   UNL     1      32.480 -13.700 -22.304  0.00  0.00    +0.014 C 
ENDROOT
BRANCH   8   9
ATOM      9  C   UNL     1      33.379 -14.870 -22.337  0.00  0.00    +0.036 C 
ATOM     10  C   UNL     1      33.631 -15.530 -23.529  0.00  0.00    +0.156 C 
ATOM     11  C   UNL     1      33.958 -15.284 -21.148  0.00  0.00    +0.003 C 
ATOM     12  C   UNL     1      34.485 -16.633 -23.532  0.00  0.00    +0.176 C 
ATOM     13  C   UNL     1      34.812 -16.388 -21.151  0.00  0.00    +0.002 C 
ATOM     14  C   UNL     1      35.075 -17.062 -22.344  0.00  0.00    +0.027 C 
BRANCH  12  17
ATOM     15  O   UNL     1      34.973 -16.679 -25.786  0.00  0.00    -0.126 OA
ATOM     16  O   UNL     1      34.803 -18.588 -24.714  0.00  0.00    -0.126 OA
ATOM     17  N   UNL     1      34.767 -17.334 -24.737  0.00  0.00    +0.061 N 
ENDBRANCH  12  17
BRANCH  10  18
ATOM     18  O   UNL     1      33.054 -15.112 -24.695  0.00  0.00    -0.504 OA
ATOM     19  H   UNL     1      33.532 -15.164 -25.499  0.00  0.00    +0.292 HD
ENDBRANCH  10  18
ENDBRANCH   8   9
BRANCH   4  20
ATOM     20  C   UNL     1      31.661  -8.972 -23.447  0.00  0.00    +0.126 C 
BRANCH  20  21
ATOM     21  C   UNL     1      31.924  -8.098 -22.255  0.00  0.00    -0.002 C 
ATOM     22  C   UNL     1      32.332  -8.674 -21.057  0.00  0.00    -0.003 C 
ATOM     23  C   UNL     1      31.757  -6.723 -22.360  0.00  0.00    -0.003 C 
ATOM     24  C   UNL     1      32.576  -7.862 -19.949  0.00  0.00    -0.000 C 
ATOM     25  C   UNL     1      32.002  -5.911 -21.253  0.00  0.00    -0.000 C 
ATOM     26  C   UNL     1      32.411  -6.481 -20.048  0.00  0.00    -0.000 C 
ENDBRANCH  20  21
ENDBRANCH   4  20
TORSDOF 5
ENDMDL
MODEL 7
REMARK VINA RESULT:      -9.6      2.766      3.941
REMARK  Name = 5726921
REMARK  5 active torsions:
REMARK  status: ('A' for Active; 'I' for Inactive)
REMARK    1  A    between atoms: N_4  and  C_20
REMARK    2  A    between atoms: C_8  and  C_9
REMARK    3  A    between atoms: C_10  and  O_18
REMARK    4  A    between atoms: C_12  and  N_17
REMARK    5  A    between atoms: C_20  and  C_21
REMARK                            x       y       z     vdW  Elec       q    Type
REMARK                         _______ _______ _______ _____ _____    ______ ____
ROOT
ATOM      1  S   UNL     1      33.434 -18.733 -20.845  0.00  0.00    -0.060 S 
ATOM      2  S   UNL     1      32.773 -21.520 -19.924  0.00  0.00    -0.027 S 
ATOM      3  O   UNL     1      37.217 -19.226 -20.874  0.00  0.00    -0.269 OA
ATOM      4  N   UNL     1      35.283 -20.470 -20.387  0.00  0.00    -0.240 N 
ATOM      5  C   UNL     1      36.002 -19.341 -20.780  0.00  0.00    +0.260 C 
ATOM      6  C   UNL     1      35.058 -18.239 -21.083  0.00  0.00    +0.085 C 
ATOM      7  C   UNL     1      33.898 -20.360 -20.351  0.00  0.00    +0.121 C 
ATOM      8  C   UNL     1      35.449 -17.029 -21.485  0.00  0.00    +0.014 C 
ENDROOT
BRANCH   8   9
ATOM      9  C   UNL     1      34.561 -15.894 -21.801  0.00  0.00    +0.036 C 
ATOM     10  C   UNL     1      34.420 -15.453 -23.107  0.00  0.00    +0.156 C 
ATOM     11  C   UNL     1      33.877 -15.289 -20.759  0.00  0.00    +0.003 C 
ATOM     12  C   UNL     1      33.574 -14.377 -23.378  0.00  0.00    +0.176 C 
ATOM     13  C   UNL     1      33.030 -14.214 -21.030  0.00  0.00    +0.002 C 
ATOM     14  C   UNL     1      32.879 -13.758 -22.339  0.00  0.00    +0.027 C 
BRANCH  12  17
ATOM     15  O   UNL     1      33.639 -12.690 -24.949  0.00  0.00    -0.126 OA
ATOM     16  O   UNL     1      33.028 -14.698 -25.596  0.00  0.00    -0.126 OA
ATOM     17  N   UNL     1      33.405 -13.897 -24.706  0.00  0.00    +0.061 N 
ENDBRANCH  12  17
BRANCH  10  18
ATOM     18  O   UNL     1      35.101 -16.058 -24.126  0.00  0.00    -0.504 OA
ATOM     19  H   UNL     1      35.783 -16.670 -23.935  0.00  0.00    +0.292 HD
ENDBRANCH  10  18
ENDBRANCH   8   9
BRANCH   4  20
ATOM     20  C   UNL     1      35.956 -21.715 -20.029  0.00  0.00    +0.126 C 
BRANCH  20  21
ATOM     21  C   UNL     1      36.021 -21.911 -18.542  0.00  0.00    -0.002 C 
ATOM     22  C   UNL     1      37.090 -21.386 -17.825  0.00  0.00    -0.003 C 
ATOM     23  C   UNL     1      35.012 -22.616 -17.897  0.00  0.00    -0.003 C 
ATOM     24  C   UNL     1      37.150 -21.569 -16.443  0.00  0.00    -0.000 C 
ATOM     25  C   UNL     1      35.071 -22.798 -16.515  0.00  0.00    -0.000 C 
ATOM     26  C   UNL     1      36.140 -22.274 -15.789  0.00  0.00    -0.000 C 
ENDBRANCH  20  21
ENDBRANCH   4  20
TORSDOF 5
ENDMDL
MODEL 8
REMARK VINA RESULT:      -9.5      3.824      9.177
REMARK  Name = 5726921
REMARK  5 active torsions:
REMARK  status: ('A' for Active; 'I' for Inactive)
REMARK    1  A    between atoms: N_4  and  C_20
REMARK    2  A    between atoms: C_8  and  C_9
REMARK    3  A    between atoms: C_10  and  O_18
REMARK    4  A    between atoms: C_12  and  N_17
REMARK    5  A    between atoms: C_20  and  C_21
REMARK                            x       y       z     vdW  Elec       q    Type
REMARK                         _______ _______ _______ _____ _____    ______ ____
ROOT
ATOM      1  S   UNL     1      32.026 -12.372 -22.360  0.00  0.00    -0.060 S 
ATOM      2  S   UNL     1      30.645 -10.840 -20.170  0.00  0.00    -0.027 S 
ATOM      3  O   UNL     1      33.970  -9.394 -23.743  0.00  0.00    -0.269 OA
ATOM      4  N   UNL     1      32.438  -9.850 -22.019  0.00  0.00    -0.240 N 
ATOM      5  C   UNL     1      33.249 -10.156 -23.113  0.00  0.00    +0.260 C 
ATOM      6  C   UNL     1      33.117 -11.598 -23.432  0.00  0.00    +0.085 C 
ATOM      7  C   UNL     1      31.698 -10.889 -21.466  0.00  0.00    +0.121 C 
ATOM      8  C   UNL     1      33.774 -12.190 -24.430  0.00  0.00    +0.014 C 
ENDROOT
BRANCH   8   9
ATOM      9  C   UNL     1      33.686 -13.616 -24.797  0.00  0.00    +0.036 C 
ATOM     10  C   UNL     1      34.232 -14.590 -23.976  0.00  0.00    +0.156 C 
ATOM     11  C   UNL     1      33.044 -13.949 -25.979  0.00  0.00    +0.003 C 
ATOM     12  C   UNL     1      34.134 -15.931 -24.348  0.00  0.00    +0.176 C 
ATOM     13  C   UNL     1      32.945 -15.290 -26.351  0.00  0.00    +0.002 C 
ATOM     14  C   UNL     1      33.491 -16.281 -25.534  0.00  0.00    +0.027 C 
BRANCH  12  17
ATOM     15  O   UNL     1      35.312 -17.895 -24.074  0.00  0.00    -0.126 OA
ATOM     16  O   UNL     1      34.523 -16.891 -22.287  0.00  0.00    -0.126 OA
ATOM     17  N   UNL     1      34.683 -16.957 -23.529  0.00  0.00    +0.061 N 
ENDBRANCH  12  17
BRANCH  10  18
ATOM     18  O   UNL     1      34.863 -14.249 -22.813  0.00  0.00    -0.504 OA
ATOM     19  H   UNL     1      34.431 -14.376 -21.992  0.00  0.00    +0.292 HD
ENDBRANCH  10  18
ENDBRANCH   8   9
BRANCH   4  20
ATOM     20  C   UNL     1      32.368  -8.495 -21.479  0.00  0.00    +0.126 C 
BRANCH  20  21
ATOM     21  C   UNL     1      31.898  -7.505 -22.505  0.00  0.00    -0.002 C 
ATOM     22  C   UNL     1      32.394  -6.206 -22.485  0.00  0.00    -0.003 C 
ATOM     23  C   UNL     1      30.972  -7.896 -23.464  0.00  0.00    -0.003 C 
ATOM     24  C   UNL     1      31.956  -5.286 -23.437  0.00  0.00    -0.000 C 
ATOM     25  C   UNL     1      30.535  -6.976 -24.418  0.00  0.00    -0.000 C 
ATOM     26  C   UNL     1      31.028  -5.671 -24.403  0.00  0.00    -0.000 C 
ENDBRANCH  20  21
ENDBRANCH   4  20
TORSDOF 5
ENDMDL
MODEL 9
REMARK VINA RESULT:      -9.0      5.031      9.986
REMARK  Name = 5726921
REMARK  5 active torsions:
REMARK  status: ('A' for Active; 'I' for Inactive)
REMARK    1  A    between atoms: N_4  and  C_20
REMARK    2  A    between atoms: C_8  and  C_9
REMARK    3  A    between atoms: C_10  and  O_18
REMARK    4  A    between atoms: C_12  and  N_17
REMARK    5  A    between atoms: C_20  and  C_21
REMARK                            x       y       z     vdW  Elec       q    Type
REMARK                         _______ _______ _______ _____ _____    ______ ____
ROOT
ATOM      1  S   UNL     1      35.424 -21.178 -19.115  0.00  0.00    -0.060 S 
ATOM      2  S   UNL     1      37.279 -19.656 -20.930  0.00  0.00    -0.027 S 
ATOM      3  O   UNL     1      32.261 -20.492 -21.136  0.00  0.00    -0.269 OA
ATOM      4  N   UNL     1      34.556 -19.992 -21.234  0.00  0.00    -0.240 N 
ATOM      5  C   UNL     1      33.401 -20.559 -20.694  0.00  0.00    +0.260 C 
ATOM      6  C   UNL     1      33.746 -21.288 -19.451  0.00  0.00    +0.085 C 
ATOM      7  C   UNL     1      35.746 -20.200 -20.546  0.00  0.00    +0.121 C 
ATOM      8  C   UNL     1      32.848 -21.936 -18.707  0.00  0.00    +0.014 C 
ENDROOT
BRANCH   8   9
ATOM      9  C   UNL     1      33.129 -22.678 -17.464  0.00  0.00    +0.036 C 
ATOM     10  C   UNL     1      32.096 -23.055 -16.621  0.00  0.00    +0.156 C 
ATOM     11  C   UNL     1      34.447 -22.984 -17.168  0.00  0.00    +0.003 C 
ATOM     12  C   UNL     1      32.390 -23.756 -15.451  0.00  0.00    +0.176 C 
ATOM     13  C   UNL     1      34.741 -23.686 -15.999  0.00  0.00    +0.002 C 
ATOM     14  C   UNL     1      33.712 -24.072 -15.140  0.00  0.00    +0.027 C 
BRANCH  12  17
ATOM     15  O   UNL     1      30.598 -23.285 -14.077  0.00  0.00    -0.126 OA
ATOM     16  O   UNL     1      31.229 -25.378 -14.291  0.00  0.00    -0.126 OA
ATOM     17  N   UNL     1      31.355 -24.159 -14.562  0.00  0.00    +0.061 N 
ENDBRANCH  12  17
BRANCH  10  18
ATOM     18  O   UNL     1      30.799 -22.746 -16.923  0.00  0.00    -0.504 OA
ATOM     19  H   UNL     1      30.118 -23.363 -16.744  0.00  0.00    +0.292 HD
ENDBRANCH  10  18
ENDBRANCH   8   9
BRANCH   4  20
ATOM     20  C   UNL     1      34.517 -19.213 -22.468  0.00  0.00    +0.126 C 
BRANCH  20  21
ATOM     21  C   UNL     1      34.514 -17.736 -22.200  0.00  0.00    -0.002 C 
ATOM     22  C   UNL     1      34.200 -17.268 -20.929  0.00  0.00    -0.003 C 
ATOM     23  C   UNL     1      34.823 -16.851 -23.225  0.00  0.00    -0.003 C 
ATOM     24  C   UNL     1      34.195 -15.896 -20.680  0.00  0.00    -0.000 C 
ATOM     25  C   UNL     1      34.820 -15.478 -22.976  0.00  0.00    -0.000 C 
ATOM     26  C   UNL     1      34.506 -15.001 -21.704  0.00  0.00    -0.000 C 
ENDBRANCH  20  21
ENDBRANCH   4  20
TORSDOF 5
ENDMDL
