MODEL 1
REMARK VINA RESULT:     -10.1      0.000      0.000
REMARK  Name = 46848915
REMARK  5 active torsions:
REMARK  status: ('A' for Active; 'I' for Inactive)
REMARK    1  A    between atoms: N_2  and  C_9
REMARK    2  A    between atoms: C_4  and  C_22
REMARK    3  A    between atoms: C_7  and  O_31
REMARK    4  A    between atoms: C_10  and  N_15
REMARK    5  A    between atoms: N_20  and  C_25
REMARK                            x       y       z     vdW  Elec       q    Type
REMARK                         _______ _______ _______ _____ _____    ______ ____
ROOT
ATOM      1  O   UNL     1      33.702 -25.183 -13.412  0.00  0.00    -0.282 OA
ATOM      2  N   UNL     1      34.130 -23.129 -16.786  0.00  0.00    -0.183 N 
ATOM      3  N   UNL     1      35.128 -24.004 -16.431  0.00  0.00    -0.169 NA
ATOM      4  C   UNL     1      34.973 -24.751 -15.378  0.00  0.00    +0.156 C 
ATOM      5  C   UNL     1      33.743 -24.636 -14.502  0.00  0.00    +0.251 C 
ATOM      6  C   UNL     1      32.920 -23.107 -16.117  0.00  0.00    +0.129 C 
ATOM      7  C   UNL     1      32.643 -23.810 -15.016  0.00  0.00    +0.196 C 
ENDROOT
BRANCH   2   9
ATOM      8  F   UNL     1      36.746 -22.309 -17.335  0.00  0.00    -0.203 F 
ATOM      9  C   UNL     1      34.442 -22.287 -17.906  0.00  0.00    +0.101 C 
ATOM     10  C   UNL     1      35.043 -20.654 -20.087  0.00  0.00    +0.076 C 
ATOM     11  C   UNL     1      35.760 -21.900 -18.146  0.00  0.00    +0.157 C 
ATOM     12  C   UNL     1      33.424 -21.857 -18.757  0.00  0.00    +0.020 C 
ATOM     13  C   UNL     1      36.061 -21.084 -19.236  0.00  0.00    +0.048 C 
ATOM     14  C   UNL     1      33.723 -21.040 -19.847  0.00  0.00    +0.018 C 
BRANCH  10  15
ATOM     15  N   UNL     1      35.340 -19.842 -21.167  0.00  0.00    -0.189 N 
ATOM     16  N   UNL     1      36.439 -19.067 -21.155  0.00  0.00    -0.172 NA
ATOM     17  C   UNL     1      34.602 -19.734 -22.307  0.00  0.00    +0.091 C 
ATOM     18  C   UNL     1      35.262 -18.826 -23.098  0.00  0.00    +0.040 C 
ATOM     19  C   UNL     1      36.385 -18.450 -22.338  0.00  0.00    +0.120 C 
ENDBRANCH  10  15
ENDBRANCH   2   9
BRANCH   4  22
ATOM     20  N   UNL     1      36.830 -25.682 -13.925  0.00  0.00    -0.188 N 
ATOM     21  N   UNL     1      37.714 -26.692 -13.852  0.00  0.00    -0.172 NA
ATOM     22  C   UNL     1      36.034 -25.725 -15.032  0.00  0.00    +0.098 C 
ATOM     23  C   UNL     1      36.425 -26.840 -15.732  0.00  0.00    +0.041 C 
ATOM     24  C   UNL     1      37.462 -27.396 -14.959  0.00  0.00    +0.120 C 
BRANCH  20  25
ATOM     25  C   UNL     1      36.794 -24.726 -12.927  0.00  0.00    +0.074 C 
ATOM     26  C   UNL     1      36.063 -24.960 -11.763  0.00  0.00    +0.017 C 
ATOM     27  C   UNL     1      37.491 -23.528 -13.083  0.00  0.00    +0.017 C 
ATOM     28  C   UNL     1      36.028 -23.996 -10.754  0.00  0.00    +0.001 C 
ATOM     29  C   UNL     1      37.456 -22.564 -12.076  0.00  0.00    +0.001 C 
ATOM     30  C   UNL     1      36.725 -22.798 -10.912  0.00  0.00    +0.000 C 
ENDBRANCH  20  25
ENDBRANCH   4  22
BRANCH   7  31
ATOM     31  O   UNL     1      31.449 -23.786 -14.342  0.00  0.00    -0.467 OA
ATOM     32  C   UNL     1      30.605 -22.758 -14.832  0.00  0.00    +0.253 C 
ENDBRANCH   7  31
TORSDOF 5
ENDMDL
MODEL 2
REMARK VINA RESULT:      -8.9      7.430     13.520
REMARK  Name = 46848915
REMARK  5 active torsions:
REMARK  status: ('A' for Active; 'I' for Inactive)
REMARK    1  A    between atoms: N_2  and  C_9
REMARK    2  A    between atoms: C_4  and  C_22
REMARK    3  A    between atoms: C_7  and  O_31
REMARK    4  A    between atoms: C_10  and  N_15
REMARK    5  A    between atoms: N_20  and  C_25
REMARK                            x       y       z     vdW  Elec       q    Type
REMARK                         _______ _______ _______ _____ _____    ______ ____
ROOT
ATOM      1  O   UNL     1      31.606  -9.845 -22.714  0.00  0.00    -0.282 OA
ATOM      2  N   UNL     1      32.671 -13.495 -21.561  0.00  0.00    -0.183 N 
ATOM      3  N   UNL     1      33.369 -12.914 -22.592  0.00  0.00    -0.169 NA
ATOM      4  C   UNL     1      33.098 -11.688 -22.931  0.00  0.00    +0.156 C 
ATOM      5  C   UNL     1      31.990 -10.907 -22.253  0.00  0.00    +0.251 C 
ATOM      6  C   UNL     1      31.769 -12.771 -20.804  0.00  0.00    +0.129 C 
ATOM      7  C   UNL     1      31.392 -11.515 -21.058  0.00  0.00    +0.196 C 
ENDROOT
BRANCH   2   9
ATOM      8  F   UNL     1      35.237 -14.523 -21.986  0.00  0.00    -0.203 F 
ATOM      9  C   UNL     1      32.982 -14.878 -21.333  0.00  0.00    +0.101 C 
ATOM     10  C   UNL     1      33.581 -17.565 -20.881  0.00  0.00    +0.076 C 
ATOM     11  C   UNL     1      34.275 -15.352 -21.555  0.00  0.00    +0.157 C 
ATOM     12  C   UNL     1      31.988 -15.748 -20.884  0.00  0.00    +0.020 C 
ATOM     13  C   UNL     1      34.574 -16.695 -21.330  0.00  0.00    +0.048 C 
ATOM     14  C   UNL     1      32.287 -17.092 -20.658  0.00  0.00    +0.018 C 
BRANCH  10  15
ATOM     15  N   UNL     1      33.878 -18.898 -20.660  0.00  0.00    -0.189 N 
ATOM     16  N   UNL     1      35.155 -19.316 -20.624  0.00  0.00    -0.172 NA
ATOM     17  C   UNL     1      32.967 -19.893 -20.462  0.00  0.00    +0.091 C 
ATOM     18  C   UNL     1      33.698 -21.042 -20.284  0.00  0.00    +0.040 C 
ATOM     19  C   UNL     1      35.038 -20.626 -20.393  0.00  0.00    +0.120 C 
ENDBRANCH  10  15
ENDBRANCH   2   9
BRANCH   4  22
ATOM     20  N   UNL     1      34.135 -11.586 -25.242  0.00  0.00    -0.188 N 
ATOM     21  N   UNL     1      34.883 -10.800 -26.034  0.00  0.00    -0.172 NA
ATOM     22  C   UNL     1      33.890 -11.054 -24.010  0.00  0.00    +0.098 C 
ATOM     23  C   UNL     1      34.523  -9.835 -23.995  0.00  0.00    +0.041 C 
ATOM     24  C   UNL     1      35.117  -9.731 -25.267  0.00  0.00    +0.120 C 
BRANCH  20  25
ATOM     25  C   UNL     1      33.691 -12.810 -25.708  0.00  0.00    +0.074 C 
ATOM     26  C   UNL     1      33.876 -13.958 -24.937  0.00  0.00    +0.017 C 
ATOM     27  C   UNL     1      33.056 -12.896 -26.946  0.00  0.00    +0.017 C 
ATOM     28  C   UNL     1      33.427 -15.193 -25.406  0.00  0.00    +0.001 C 
ATOM     29  C   UNL     1      32.607 -14.131 -27.415  0.00  0.00    +0.001 C 
ATOM     30  C   UNL     1      32.792 -15.279 -26.646  0.00  0.00    +0.000 C 
ENDBRANCH  20  25
ENDBRANCH   4  22
BRANCH   7  31
ATOM     31  O   UNL     1      30.492 -10.795 -20.317  0.00  0.00    -0.467 OA
ATOM     32  C   UNL     1      31.043 -10.421 -19.065  0.00  0.00    +0.253 C 
ENDBRANCH   7  31
TORSDOF 5
ENDMDL
MODEL 3
REMARK VINA RESULT:      -8.2      7.207     13.286
REMARK  Name = 46848915
REMARK  5 active torsions:
REMARK  status: ('A' for Active; 'I' for Inactive)
REMARK    1  A    between atoms: N_2  and  C_9
REMARK    2  A    between atoms: C_4  and  C_22
REMARK    3  A    between atoms: C_7  and  O_31
REMARK    4  A    between atoms: C_10  and  N_15
REMARK    5  A    between atoms: N_20  and  C_25
REMARK                            x       y       z     vdW  Elec       q    Type
REMARK                         _______ _______ _______ _____ _____    ______ ____
ROOT
ATOM      1  O   UNL     1      31.582 -10.386 -22.593  0.00  0.00    -0.282 OA
ATOM      2  N   UNL     1      33.039 -13.912 -21.484  0.00  0.00    -0.183 N 
ATOM      3  N   UNL     1      33.630 -13.274 -22.548  0.00  0.00    -0.169 NA
ATOM      4  C   UNL     1      33.230 -12.082 -22.876  0.00  0.00    +0.156 C 
ATOM      5  C   UNL     1      32.086 -11.404 -22.148  0.00  0.00    +0.251 C 
ATOM      6  C   UNL     1      32.108 -13.271 -20.687  0.00  0.00    +0.129 C 
ATOM      7  C   UNL     1      31.604 -12.058 -20.925  0.00  0.00    +0.196 C 
ENDROOT
BRANCH   2   9
ATOM      8  F   UNL     1      31.269 -15.973 -20.819  0.00  0.00    -0.203 F 
ATOM      9  C   UNL     1      33.489 -15.258 -21.268  0.00  0.00    +0.101 C 
ATOM     10  C   UNL     1      34.368 -17.873 -20.853  0.00  0.00    +0.076 C 
ATOM     11  C   UNL     1      32.574 -16.258 -20.939  0.00  0.00    +0.157 C 
ATOM     12  C   UNL     1      34.844 -15.566 -21.390  0.00  0.00    +0.020 C 
ATOM     13  C   UNL     1      33.013 -17.565 -20.731  0.00  0.00    +0.048 C 
ATOM     14  C   UNL     1      35.284 -16.873 -21.183  0.00  0.00    +0.018 C 
BRANCH  10  15
ATOM     15  N   UNL     1      34.804 -19.170 -20.646  0.00  0.00    -0.189 N 
ATOM     16  N   UNL     1      36.118 -19.451 -20.615  0.00  0.00    -0.172 NA
ATOM     17  C   UNL     1      34.004 -20.257 -20.459  0.00  0.00    +0.091 C 
ATOM     18  C   UNL     1      34.852 -21.324 -20.294  0.00  0.00    +0.040 C 
ATOM     19  C   UNL     1      36.141 -20.768 -20.399  0.00  0.00    +0.120 C 
ENDBRANCH  10  15
ENDBRANCH   2   9
BRANCH   4  22
ATOM     20  N   UNL     1      34.068 -11.864 -25.258  0.00  0.00    -0.188 N 
ATOM     21  N   UNL     1      34.720 -11.025 -26.080  0.00  0.00    -0.172 NA
ATOM     22  C   UNL     1      33.906 -11.383 -23.992  0.00  0.00    +0.098 C 
ATOM     23  C   UNL     1      34.495 -10.142 -23.986  0.00  0.00    +0.041 C 
ATOM     24  C   UNL     1      34.979  -9.974 -25.297  0.00  0.00    +0.120 C 
BRANCH  20  25
ATOM     25  C   UNL     1      33.631 -13.089 -25.730  0.00  0.00    +0.074 C 
ATOM     26  C   UNL     1      33.836 -14.242 -24.972  0.00  0.00    +0.017 C 
ATOM     27  C   UNL     1      32.984 -13.171 -26.962  0.00  0.00    +0.017 C 
ATOM     28  C   UNL     1      33.393 -15.477 -25.446  0.00  0.00    +0.001 C 
ATOM     29  C   UNL     1      32.542 -14.406 -27.437  0.00  0.00    +0.001 C 
ATOM     30  C   UNL     1      32.746 -15.558 -26.680  0.00  0.00    +0.000 C 
ENDBRANCH  20  25
ENDBRANCH   4  22
BRANCH   7  31
ATOM     31  O   UNL     1      30.675 -11.421 -20.144  0.00  0.00    -0.467 OA
ATOM     32  C   UNL     1      31.301 -10.652 -19.129  0.00  0.00    +0.253 C 
ENDBRANCH   7  31
TORSDOF 5
ENDMDL
MODEL 4
REMARK VINA RESULT:      -8.1      8.734     14.329
REMARK  Name = 46848915
REMARK  5 active torsions:
REMARK  status: ('A' for Active; 'I' for Inactive)
REMARK    1  A    between atoms: N_2  and  C_9
REMARK    2  A    between atoms: C_4  and  C_22
REMARK    3  A    between atoms: C_7  and  O_31
REMARK    4  A    between atoms: C_10  and  N_15
REMARK    5  A    between atoms: N_20  and  C_25
REMARK                            x       y       z     vdW  Elec       q    Type
REMARK                         _______ _______ _______ _____ _____    ______ ____
ROOT
ATOM      1  O   UNL     1      31.334  -9.810 -23.157  0.00  0.00    -0.282 OA
ATOM      2  N   UNL     1      33.023 -13.216 -22.002  0.00  0.00    -0.183 N 
ATOM      3  N   UNL     1      33.709 -12.423 -22.890  0.00  0.00    -0.169 NA
ATOM      4  C   UNL     1      33.219 -11.264 -23.217  0.00  0.00    +0.156 C 
ATOM      5  C   UNL     1      31.880 -10.794 -22.685  0.00  0.00    +0.251 C 
ATOM      6  C   UNL     1      31.884 -12.762 -21.362  0.00  0.00    +0.129 C 
ATOM      7  C   UNL     1      31.274 -11.603 -21.620  0.00  0.00    +0.196 C 
ENDROOT
BRANCH   2   9
ATOM      8  F   UNL     1      33.241 -15.102 -24.055  0.00  0.00    -0.203 F 
ATOM      9  C   UNL     1      33.603 -14.511 -21.784  0.00  0.00    +0.101 C 
ATOM     10  C   UNL     1      34.734 -17.025 -21.356  0.00  0.00    +0.076 C 
ATOM     11  C   UNL     1      33.694 -15.424 -22.835  0.00  0.00    +0.157 C 
ATOM     12  C   UNL     1      34.078 -14.856 -20.519  0.00  0.00    +0.020 C 
ATOM     13  C   UNL     1      34.259 -16.681 -22.621  0.00  0.00    +0.048 C 
ATOM     14  C   UNL     1      34.643 -16.113 -20.304  0.00  0.00    +0.018 C 
BRANCH  10  15
ATOM     15  N   UNL     1      35.294 -18.272 -21.143  0.00  0.00    -0.189 N 
ATOM     16  N   UNL     1      34.551 -19.278 -20.649  0.00  0.00    -0.172 NA
ATOM     17  C   UNL     1      36.589 -18.616 -21.393  0.00  0.00    +0.091 C 
ATOM     18  C   UNL     1      36.703 -19.937 -21.038  0.00  0.00    +0.040 C 
ATOM     19  C   UNL     1      35.418 -20.292 -20.588  0.00  0.00    +0.120 C 
ENDBRANCH  10  15
ENDBRANCH   2   9
BRANCH   4  22
ATOM     20  N   UNL     1      34.070  -9.036 -24.075  0.00  0.00    -0.188 N 
ATOM     21  N   UNL     1      34.840  -8.494 -25.034  0.00  0.00    -0.172 NA
ATOM     22  C   UNL     1      33.990 -10.397 -24.137  0.00  0.00    +0.098 C 
ATOM     23  C   UNL     1      34.760 -10.770 -25.211  0.00  0.00    +0.041 C 
ATOM     24  C   UNL     1      35.259  -9.558 -25.725  0.00  0.00    +0.120 C 
BRANCH  20  25
ATOM     25  C   UNL     1      33.450  -8.220 -23.147  0.00  0.00    +0.074 C 
ATOM     26  C   UNL     1      33.724  -8.376 -21.788  0.00  0.00    +0.017 C 
ATOM     27  C   UNL     1      32.554  -7.239 -23.569  0.00  0.00    +0.017 C 
ATOM     28  C   UNL     1      33.100  -7.552 -20.851  0.00  0.00    +0.001 C 
ATOM     29  C   UNL     1      31.929  -6.415 -22.633  0.00  0.00    +0.001 C 
ATOM     30  C   UNL     1      32.203  -6.571 -21.274  0.00  0.00    +0.000 C 
ENDBRANCH  20  25
ENDBRANCH   4  22
BRANCH   7  31
ATOM     31  O   UNL     1      30.139 -11.151 -20.996  0.00  0.00    -0.467 OA
ATOM     32  C   UNL     1      30.425 -10.690 -19.686  0.00  0.00    +0.253 C 
ENDBRANCH   7  31
TORSDOF 5
ENDMDL
MODEL 5
REMARK VINA RESULT:      -7.9      3.136      5.265
REMARK  Name = 46848915
REMARK  5 active torsions:
REMARK  status: ('A' for Active; 'I' for Inactive)
REMARK    1  A    between atoms: N_2  and  C_9
REMARK    2  A    between atoms: C_4  and  C_22
REMARK    3  A    between atoms: C_7  and  O_31
REMARK    4  A    between atoms: C_10  and  N_15
REMARK    5  A    between atoms: N_20  and  C_25
REMARK                            x       y       z     vdW  Elec       q    Type
REMARK                         _______ _______ _______ _____ _____    ______ ____
ROOT
ATOM      1  O   UNL     1      38.483 -23.668 -16.019  0.00  0.00    -0.282 OA
ATOM      2  N   UNL     1      34.572 -22.971 -15.977  0.00  0.00    -0.183 N 
ATOM      3  N   UNL     1      35.022 -24.158 -15.451  0.00  0.00    -0.169 NA
ATOM      4  C   UNL     1      36.302 -24.373 -15.374  0.00  0.00    +0.156 C 
ATOM      5  C   UNL     1      37.306 -23.369 -15.904  0.00  0.00    +0.251 C 
ATOM      6  C   UNL     1      35.447 -21.957 -16.319  0.00  0.00    +0.129 C 
ATOM      7  C   UNL     1      36.778 -22.058 -16.301  0.00  0.00    +0.196 C 
ENDROOT
BRANCH   2   9
ATOM      8  F   UNL     1      33.328 -22.643 -18.460  0.00  0.00    -0.203 F 
ATOM      9  C   UNL     1      33.145 -22.875 -16.104  0.00  0.00    +0.101 C 
ATOM     10  C   UNL     1      30.371 -22.696 -16.345  0.00  0.00    +0.076 C 
ATOM     11  C   UNL     1      32.563 -22.713 -17.361  0.00  0.00    +0.157 C 
ATOM     12  C   UNL     1      32.340 -22.948 -14.967  0.00  0.00    +0.020 C 
ATOM     13  C   UNL     1      31.177 -22.623 -17.482  0.00  0.00    +0.048 C 
ATOM     14  C   UNL     1      30.954 -22.858 -15.087  0.00  0.00    +0.018 C 
BRANCH  10  15
ATOM     15  N   UNL     1      28.997 -22.604 -16.465  0.00  0.00    -0.189 N 
ATOM     16  N   UNL     1      28.396 -22.849 -17.642  0.00  0.00    -0.172 NA
ATOM     17  C   UNL     1      28.131 -22.275 -15.464  0.00  0.00    +0.091 C 
ATOM     18  C   UNL     1      26.878 -22.305 -16.025  0.00  0.00    +0.040 C 
ATOM     19  C   UNL     1      27.103 -22.666 -17.366  0.00  0.00    +0.120 C 
ENDBRANCH  10  15
ENDBRANCH   2   9
BRANCH   4  22
ATOM     20  N   UNL     1      37.013 -25.842 -13.434  0.00  0.00    -0.188 N 
ATOM     21  N   UNL     1      37.441 -27.082 -13.144  0.00  0.00    -0.172 NA
ATOM     22  C   UNL     1      36.779 -25.635 -14.762  0.00  0.00    +0.098 C 
ATOM     23  C   UNL     1      37.074 -26.823 -15.384  0.00  0.00    +0.041 C 
ATOM     24  C   UNL     1      37.477 -27.677 -14.340  0.00  0.00    +0.120 C 
BRANCH  20  25
ATOM     25  C   UNL     1      36.851 -24.916 -12.419  0.00  0.00    +0.074 C 
ATOM     26  C   UNL     1      37.736 -23.845 -12.305  0.00  0.00    +0.017 C 
ATOM     27  C   UNL     1      35.800 -25.052 -11.513  0.00  0.00    +0.017 C 
ATOM     28  C   UNL     1      37.571 -22.909 -11.283  0.00  0.00    +0.001 C 
ATOM     29  C   UNL     1      35.635 -24.117 -10.491  0.00  0.00    +0.001 C 
ATOM     30  C   UNL     1      36.520 -23.046 -10.377  0.00  0.00    +0.000 C 
ENDBRANCH  20  25
ENDBRANCH   4  22
BRANCH   7  31
ATOM     31  O   UNL     1      37.652 -21.059 -16.647  0.00  0.00    -0.467 OA
ATOM     32  C   UNL     1      37.324 -20.509 -17.912  0.00  0.00    +0.253 C 
ENDBRANCH   7  31
TORSDOF 5
ENDMDL
MODEL 6
REMARK VINA RESULT:      -7.5     13.244     17.353
REMARK  Name = 46848915
REMARK  5 active torsions:
REMARK  status: ('A' for Active; 'I' for Inactive)
REMARK    1  A    between atoms: N_2  and  C_9
REMARK    2  A    between atoms: C_4  and  C_22
REMARK    3  A    between atoms: C_7  and  O_31
REMARK    4  A    between atoms: C_10  and  N_15
REMARK    5  A    between atoms: N_20  and  C_25
REMARK                            x       y       z     vdW  Elec       q    Type
REMARK                         _______ _______ _______ _____ _____    ______ ____
ROOT
ATOM      1  O   UNL     1      32.384  -9.999 -19.906  0.00  0.00    -0.282 OA
ATOM      2  N   UNL     1      32.676  -7.566 -23.034  0.00  0.00    -0.183 N 
ATOM      3  N   UNL     1      32.625  -8.918 -23.270  0.00  0.00    -0.169 NA
ATOM      4  C   UNL     1      32.442  -9.731 -22.272  0.00  0.00    +0.156 C 
ATOM      5  C   UNL     1      32.343  -9.224 -20.847  0.00  0.00    +0.251 C 
ATOM      6  C   UNL     1      32.424  -7.044 -21.778  0.00  0.00    +0.129 C 
ATOM      7  C   UNL     1      32.240  -7.769 -20.672  0.00  0.00    +0.196 C 
ENDROOT
BRANCH   2   9
ATOM      8  F   UNL     1      30.747  -5.951 -24.255  0.00  0.00    -0.203 F 
ATOM      9  C   UNL     1      32.976  -6.767 -24.188  0.00  0.00    +0.101 C 
ATOM     10  C   UNL     1      33.566  -5.211 -26.428  0.00  0.00    +0.076 C 
ATOM     11  C   UNL     1      31.986  -5.973 -24.767  0.00  0.00    +0.157 C 
ATOM     12  C   UNL     1      34.262  -6.782 -24.729  0.00  0.00    +0.020 C 
ATOM     13  C   UNL     1      32.280  -5.196 -25.887  0.00  0.00    +0.048 C 
ATOM     14  C   UNL     1      34.557  -6.005 -25.848  0.00  0.00    +0.018 C 
BRANCH  10  15
ATOM     15  N   UNL     1      33.858  -4.442 -27.540  0.00  0.00    -0.189 N 
ATOM     16  N   UNL     1      34.884  -3.574 -27.519  0.00  0.00    -0.172 NA
ATOM     17  C   UNL     1      33.182  -4.466 -28.723  0.00  0.00    +0.091 C 
ATOM     18  C   UNL     1      33.808  -3.551 -29.533  0.00  0.00    +0.040 C 
ATOM     19  C   UNL     1      34.849  -3.034 -28.739  0.00  0.00    +0.120 C 
ENDBRANCH  10  15
ENDBRANCH   2   9
BRANCH   4  22
ATOM     20  N   UNL     1      33.005 -11.864 -23.521  0.00  0.00    -0.188 N 
ATOM     21  N   UNL     1      32.731 -13.179 -23.550  0.00  0.00    -0.172 NA
ATOM     22  C   UNL     1      32.340 -11.184 -22.543  0.00  0.00    +0.098 C 
ATOM     23  C   UNL     1      31.578 -12.119 -21.887  0.00  0.00    +0.041 C 
ATOM     24  C   UNL     1      31.858 -13.329 -22.549  0.00  0.00    +0.120 C 
BRANCH  20  25
ATOM     25  C   UNL     1      33.892 -11.326 -24.435  0.00  0.00    +0.074 C 
ATOM     26  C   UNL     1      34.782 -10.328 -24.038  0.00  0.00    +0.017 C 
ATOM     27  C   UNL     1      33.899 -11.783 -25.752  0.00  0.00    +0.017 C 
ATOM     28  C   UNL     1      35.680  -9.787 -24.959  0.00  0.00    +0.001 C 
ATOM     29  C   UNL     1      34.795 -11.241 -26.674  0.00  0.00    +0.001 C 
ATOM     30  C   UNL     1      35.686 -10.244 -26.277  0.00  0.00    +0.000 C 
ENDBRANCH  20  25
ENDBRANCH   4  22
BRANCH   7  31
ATOM     31  O   UNL     1      31.999  -7.259 -19.422  0.00  0.00    -0.467 OA
ATOM     32  C   UNL     1      32.439  -5.915 -19.325  0.00  0.00    +0.253 C 
ENDBRANCH   7  31
TORSDOF 5
ENDMDL
MODEL 7
REMARK VINA RESULT:      -7.4     12.648     16.065
REMARK  Name = 46848915
REMARK  5 active torsions:
REMARK  status: ('A' for Active; 'I' for Inactive)
REMARK    1  A    between atoms: N_2  and  C_9
REMARK    2  A    between atoms: C_4  and  C_22
REMARK    3  A    between atoms: C_7  and  O_31
REMARK    4  A    between atoms: C_10  and  N_15
REMARK    5  A    between atoms: N_20  and  C_25
REMARK                            x       y       z     vdW  Elec       q    Type
REMARK                         _______ _______ _______ _____ _____    ______ ____
ROOT
ATOM      1  O   UNL     1      32.509 -13.363 -20.588  0.00  0.00    -0.282 OA
ATOM      2  N   UNL     1      31.743  -9.737 -22.019  0.00  0.00    -0.183 N 
ATOM      3  N   UNL     1      32.163 -10.704 -22.901  0.00  0.00    -0.169 NA
ATOM      4  C   UNL     1      32.337 -11.919 -22.474  0.00  0.00    +0.156 C 
ATOM      5  C   UNL     1      32.143 -12.280 -21.015  0.00  0.00    +0.251 C 
ATOM      6  C   UNL     1      31.392 -10.051 -20.719  0.00  0.00    +0.129 C 
ATOM      7  C   UNL     1      31.539 -11.253 -20.157  0.00  0.00    +0.196 C 
ENDROOT
BRANCH   2   9
ATOM      8  F   UNL     1      33.138  -7.592 -20.890  0.00  0.00    -0.203 F 
ATOM      9  C   UNL     1      31.674  -8.413 -22.571  0.00  0.00    +0.101 C 
ATOM     10  C   UNL     1      31.542  -5.843 -23.649  0.00  0.00    +0.076 C 
ATOM     11  C   UNL     1      32.387  -7.370 -21.978  0.00  0.00    +0.157 C 
ATOM     12  C   UNL     1      30.897  -8.171 -23.703  0.00  0.00    +0.020 C 
ATOM     13  C   UNL     1      32.320  -6.085 -22.517  0.00  0.00    +0.048 C 
ATOM     14  C   UNL     1      30.830  -6.886 -24.242  0.00  0.00    +0.018 C 
BRANCH  10  15
ATOM     15  N   UNL     1      31.475  -4.569 -24.182  0.00  0.00    -0.189 N 
ATOM     16  N   UNL     1      30.820  -3.591 -23.533  0.00  0.00    -0.172 NA
ATOM     17  C   UNL     1      32.032  -4.170 -25.362  0.00  0.00    +0.091 C 
ATOM     18  C   UNL     1      31.719  -2.840 -25.494  0.00  0.00    +0.040 C 
ATOM     19  C   UNL     1      30.974  -2.537 -24.339  0.00  0.00    +0.120 C 
ENDBRANCH  10  15
ENDBRANCH   2   9
BRANCH   4  22
ATOM     20  N   UNL     1      33.598 -12.796 -24.491  0.00  0.00    -0.188 N 
ATOM     21  N   UNL     1      33.796 -13.910 -25.215  0.00  0.00    -0.172 NA
ATOM     22  C   UNL     1      32.743 -12.965 -23.442  0.00  0.00    +0.098 C 
ATOM     23  C   UNL     1      32.353 -14.281 -23.484  0.00  0.00    +0.041 C 
ATOM     24  C   UNL     1      33.033 -14.814 -24.595  0.00  0.00    +0.120 C 
BRANCH  20  25
ATOM     25  C   UNL     1      34.241 -11.623 -24.842  0.00  0.00    +0.074 C 
ATOM     26  C   UNL     1      34.349 -10.583 -23.919  0.00  0.00    +0.017 C 
ATOM     27  C   UNL     1      34.785 -11.481 -26.118  0.00  0.00    +0.017 C 
ATOM     28  C   UNL     1      35.000  -9.401 -24.273  0.00  0.00    +0.001 C 
ATOM     29  C   UNL     1      35.435 -10.299 -26.472  0.00  0.00    +0.001 C 
ATOM     30  C   UNL     1      35.543  -9.259 -25.550  0.00  0.00    +0.000 C 
ENDBRANCH  20  25
ENDBRANCH   4  22
BRANCH   7  31
ATOM     31  O   UNL     1      31.203 -11.569 -18.866  0.00  0.00    -0.467 OA
ATOM     32  C   UNL     1      31.575 -10.533 -17.972  0.00  0.00    +0.253 C 
ENDBRANCH   7  31
TORSDOF 5
ENDMDL
