MODEL 1
REMARK VINA RESULT:     -12.7      0.000      0.000
REMARK  Name = 25191001
REMARK  7 active torsions:
REMARK  status: ('A' for Active; 'I' for Inactive)
REMARK    1  A    between atoms: C_1  and  N_9
REMARK    2  A    between atoms: C_2  and  O_24
REMARK    3  A    between atoms: N_8  and  C_14
REMARK    4  A    between atoms: C_15  and  C_23
REMARK    5  A    between atoms: O_24  and  C_26
REMARK    6  A    between atoms: C_28  and  C_33
REMARK    7  A    between atoms: N_32  and  C_35
REMARK                            x       y       z     vdW  Elec       q    Type
REMARK                         _______ _______ _______ _____ _____    ______ ____
ROOT
ATOM      1  C   UNL     1      34.972 -21.856 -18.753  0.00  0.00    +0.052 C 
ATOM      2  C   UNL     1      34.183 -23.394 -16.562  0.00  0.00    +0.145 C 
ATOM      3  C   UNL     1      35.807 -21.967 -17.641  0.00  0.00    +0.018 C 
ATOM      4  C   UNL     1      33.741 -22.514 -18.768  0.00  0.00    +0.018 C 
ATOM      5  C   UNL     1      35.413 -22.736 -16.546  0.00  0.00    +0.039 C 
ATOM      6  C   UNL     1      33.347 -23.283 -17.673  0.00  0.00    +0.039 C 
ENDROOT
BRANCH   1   9
ATOM      7  O   UNL     1      33.412 -19.917 -20.404  0.00  0.00    -0.252 OA
ATOM      8  N   UNL     1      35.378 -19.599 -21.638  0.00  0.00    -0.268 N 
ATOM      9  N   UNL     1      35.371 -21.075 -19.862  0.00  0.00    -0.268 N 
ATOM     10  C   UNL     1      34.595 -20.174 -20.608  0.00  0.00    +0.308 C 
ATOM     11  H   UNL     1      36.314 -19.900 -21.682  0.00  0.00    +0.156 HD
ATOM     12  H   UNL     1      36.307 -21.176 -20.146  0.00  0.00    +0.156 HD
BRANCH   8  14
ATOM     13 CL   UNL     1      33.778 -15.653 -25.737  0.00  0.00    -0.082 Cl
ATOM     14  C   UNL     1      34.999 -18.661 -22.599  0.00  0.00    +0.052 C 
ATOM     15  C   UNL     1      34.361 -16.405 -23.184  0.00  0.00    +0.083 C 
ATOM     16  C   UNL     1      34.739 -17.343 -22.223  0.00  0.00    +0.019 C 
ATOM     17  C   UNL     1      34.881 -19.041 -23.936  0.00  0.00    +0.016 C 
ATOM     18  C   UNL     1      34.243 -16.785 -24.521  0.00  0.00    +0.062 C 
ATOM     19  C   UNL     1      34.503 -18.103 -24.897  0.00  0.00    +0.013 C 
BRANCH  15  23
ATOM     20  F   UNL     1      34.522 -14.741 -21.473  0.00  0.00    -0.166 F 
ATOM     21  F   UNL     1      34.689 -14.061 -23.525  0.00  0.00    -0.166 F 
ATOM     22  F   UNL     1      32.762 -14.701 -22.749  0.00  0.00    -0.166 F 
ATOM     23  C   UNL     1      34.091 -15.003 -22.740  0.00  0.00    +0.419 C 
ENDBRANCH  15  23
ENDBRANCH   8  14
ENDBRANCH   1   9
BRANCH   2  24
ATOM     24  O   UNL     1      33.797 -24.142 -15.492  0.00  0.00    -0.453 OA
BRANCH  24  26
ATOM     25  N   UNL     1      36.692 -25.067 -12.622  0.00  0.00    -0.239 NA
ATOM     26  C   UNL     1      34.756 -24.450 -14.542  0.00  0.00    +0.149 C 
ATOM     27  C   UNL     1      35.913 -25.126 -14.910  0.00  0.00    +0.061 C 
ATOM     28  C   UNL     1      36.842 -25.408 -13.922  0.00  0.00    +0.137 C 
ATOM     29  C   UNL     1      34.565 -24.081 -13.215  0.00  0.00    +0.058 C 
ATOM     30  C   UNL     1      35.554 -24.410 -12.301  0.00  0.00    +0.102 C 
BRANCH  28  33
ATOM     31  O   UNL     1      38.031 -27.258 -14.736  0.00  0.00    -0.269 OA
ATOM     32  N   UNL     1      39.274 -25.438 -14.016  0.00  0.00    -0.313 N 
ATOM     33  C   UNL     1      38.070 -26.113 -14.249  0.00  0.00    +0.263 C 
ATOM     34  H   UNL     1      39.232 -24.534 -13.628  0.00  0.00    +0.149 HD
ATOM     35  C   UNL     1      40.574 -25.994 -14.311  0.00  0.00    +0.128 C 
ENDBRANCH  28  33
ENDBRANCH  24  26
ENDBRANCH   2  24
TORSDOF 6
ENDMDL
MODEL 2
REMARK VINA RESULT:     -12.4      2.867      4.574
REMARK  Name = 25191001
REMARK  7 active torsions:
REMARK  status: ('A' for Active; 'I' for Inactive)
REMARK    1  A    between atoms: C_1  and  N_9
REMARK    2  A    between atoms: C_2  and  O_24
REMARK    3  A    between atoms: N_8  and  C_14
REMARK    4  A    between atoms: C_15  and  C_23
REMARK    5  A    between atoms: O_24  and  C_26
REMARK    6  A    between atoms: C_28  and  C_33
REMARK    7  A    between atoms: N_32  and  C_35
REMARK                            x       y       z     vdW  Elec       q    Type
REMARK                         _______ _______ _______ _____ _____    ______ ____
ROOT
ATOM      1  C   UNL     1      35.394 -21.112 -19.477  0.00  0.00    +0.052 C 
ATOM      2  C   UNL     1      34.817 -22.949 -17.458  0.00  0.00    +0.145 C 
ATOM      3  C   UNL     1      34.170 -21.780 -19.471  0.00  0.00    +0.018 C 
ATOM      4  C   UNL     1      36.330 -21.363 -18.474  0.00  0.00    +0.018 C 
ATOM      5  C   UNL     1      33.881 -22.698 -18.462  0.00  0.00    +0.039 C 
ATOM      6  C   UNL     1      36.042 -22.282 -17.464  0.00  0.00    +0.039 C 
ENDROOT
BRANCH   1   9
ATOM      7  O   UNL     1      33.561 -19.489 -21.188  0.00  0.00    -0.252 OA
ATOM      8  N   UNL     1      35.491 -18.625 -22.196  0.00  0.00    -0.268 N 
ATOM      9  N   UNL     1      35.687 -20.182 -20.502  0.00  0.00    -0.268 N 
ATOM     10  C   UNL     1      34.784 -19.441 -21.281  0.00  0.00    +0.308 C 
ATOM     11  H   UNL     1      36.473 -18.690 -22.157  0.00  0.00    +0.156 HD
ATOM     12  H   UNL     1      36.642 -20.036 -20.692  0.00  0.00    +0.156 HD
BRANCH   8  14
ATOM     13 CL   UNL     1      33.339 -14.898 -26.247  0.00  0.00    -0.082 Cl
ATOM     14  C   UNL     1      34.982 -17.738 -23.146  0.00  0.00    +0.052 C 
ATOM     15  C   UNL     1      34.124 -15.555 -23.722  0.00  0.00    +0.083 C 
ATOM     16  C   UNL     1      34.633 -16.440 -22.772  0.00  0.00    +0.019 C 
ATOM     17  C   UNL     1      34.823 -18.150 -24.469  0.00  0.00    +0.016 C 
ATOM     18  C   UNL     1      33.965 -15.966 -25.045  0.00  0.00    +0.062 C 
ATOM     19  C   UNL     1      34.314 -17.264 -25.419  0.00  0.00    +0.013 C 
BRANCH  15  23
ATOM     20  F   UNL     1      34.305 -13.193 -24.060  0.00  0.00    -0.166 F 
ATOM     21  F   UNL     1      32.418 -13.934 -23.290  0.00  0.00    -0.166 F 
ATOM     22  F   UNL     1      34.176 -13.905 -22.010  0.00  0.00    -0.166 F 
ATOM     23  C   UNL     1      33.762 -14.173 -23.281  0.00  0.00    +0.419 C 
ENDBRANCH  15  23
ENDBRANCH   8  14
ENDBRANCH   1   9
BRANCH   2  24
ATOM     24  O   UNL     1      34.537 -23.847 -16.474  0.00  0.00    -0.453 OA
BRANCH  24  26
ATOM     25  N   UNL     1      31.146 -23.167 -14.126  0.00  0.00    -0.239 NA
ATOM     26  C   UNL     1      33.413 -23.620 -15.697  0.00  0.00    +0.149 C 
ATOM     27  C   UNL     1      32.207 -23.275 -16.296  0.00  0.00    +0.061 C 
ATOM     28  C   UNL     1      31.112 -23.061 -15.474  0.00  0.00    +0.137 C 
ATOM     29  C   UNL     1      33.488 -23.740 -14.314  0.00  0.00    +0.058 C 
ATOM     30  C   UNL     1      32.336 -23.504 -13.579  0.00  0.00    +0.102 C 
BRANCH  28  33
ATOM     31  O   UNL     1      29.729 -22.417 -17.254  0.00  0.00    -0.269 OA
ATOM     32  N   UNL     1      28.723 -22.703 -15.184  0.00  0.00    -0.313 N 
ATOM     33  C   UNL     1      29.827 -22.697 -16.045  0.00  0.00    +0.263 C 
ATOM     34  H   UNL     1      28.871 -22.934 -14.239  0.00  0.00    +0.149 HD
ATOM     35  C   UNL     1      27.378 -22.389 -15.606  0.00  0.00    +0.128 C 
ENDBRANCH  28  33
ENDBRANCH  24  26
ENDBRANCH   2  24
TORSDOF 6
ENDMDL
MODEL 3
REMARK VINA RESULT:     -12.1      3.216      5.040
REMARK  Name = 25191001
REMARK  7 active torsions:
REMARK  status: ('A' for Active; 'I' for Inactive)
REMARK    1  A    between atoms: C_1  and  N_9
REMARK    2  A    between atoms: C_2  and  O_24
REMARK    3  A    between atoms: N_8  and  C_14
REMARK    4  A    between atoms: C_15  and  C_23
REMARK    5  A    between atoms: O_24  and  C_26
REMARK    6  A    between atoms: C_28  and  C_33
REMARK    7  A    between atoms: N_32  and  C_35
REMARK                            x       y       z     vdW  Elec       q    Type
REMARK                         _______ _______ _______ _____ _____    ______ ____
ROOT
ATOM      1  C   UNL     1      34.771 -18.393 -21.543  0.00  0.00    +0.052 C 
ATOM      2  C   UNL     1      35.937 -20.522 -20.168  0.00  0.00    +0.145 C 
ATOM      3  C   UNL     1      36.152 -18.427 -21.351  0.00  0.00    +0.018 C 
ATOM      4  C   UNL     1      33.973 -19.424 -21.046  0.00  0.00    +0.018 C 
ATOM      5  C   UNL     1      36.735 -19.491 -20.665  0.00  0.00    +0.039 C 
ATOM      6  C   UNL     1      34.556 -20.489 -20.359  0.00  0.00    +0.039 C 
ENDROOT
BRANCH   1   9
ATOM      7  O   UNL     1      34.613 -15.497 -20.828  0.00  0.00    -0.252 OA
ATOM      8  N   UNL     1      33.444 -15.207 -22.837  0.00  0.00    -0.268 N 
ATOM      9  N   UNL     1      34.179 -17.312 -22.238  0.00  0.00    -0.268 N 
ATOM     10  C   UNL     1      34.132 -15.962 -21.857  0.00  0.00    +0.308 C 
ATOM     11  H   UNL     1      33.112 -15.715 -23.613  0.00  0.00    +0.156 HD
ATOM     12  H   UNL     1      33.748 -17.535 -23.095  0.00  0.00    +0.156 HD
BRANCH   8  14
ATOM     13 CL   UNL     1      32.326  -9.404 -22.929  0.00  0.00    -0.082 Cl
ATOM     14  C   UNL     1      33.175 -13.837 -22.851  0.00  0.00    +0.052 C 
ATOM     15  C   UNL     1      32.116 -11.903 -21.864  0.00  0.00    +0.083 C 
ATOM     16  C   UNL     1      32.385 -13.272 -21.850  0.00  0.00    +0.019 C 
ATOM     17  C   UNL     1      33.695 -13.035 -23.866  0.00  0.00    +0.016 C 
ATOM     18  C   UNL     1      32.637 -11.100 -22.879  0.00  0.00    +0.062 C 
ATOM     19  C   UNL     1      33.427 -11.667 -23.881  0.00  0.00    +0.013 C 
BRANCH  15  23
ATOM     20  F   UNL     1      31.349 -12.029 -19.602  0.00  0.00    -0.166 F 
ATOM     21  F   UNL     1      31.584 -10.048 -20.451  0.00  0.00    -0.166 F 
ATOM     22  F   UNL     1      29.943 -11.318 -21.100  0.00  0.00    -0.166 F 
ATOM     23  C   UNL     1      31.266 -11.335 -20.774  0.00  0.00    +0.419 C 
ENDBRANCH  15  23
ENDBRANCH   8  14
ENDBRANCH   1   9
BRANCH   2  24
ATOM     24  O   UNL     1      36.506 -21.560 -19.495  0.00  0.00    -0.453 OA
BRANCH  24  26
ATOM     25  N   UNL     1      34.416 -23.135 -16.235  0.00  0.00    -0.239 NA
ATOM     26  C   UNL     1      35.815 -22.083 -18.415  0.00  0.00    +0.149 C 
ATOM     27  C   UNL     1      36.447 -22.231 -17.186  0.00  0.00    +0.061 C 
ATOM     28  C   UNL     1      35.711 -22.757 -16.137  0.00  0.00    +0.137 C 
ATOM     29  C   UNL     1      34.483 -22.459 -18.556  0.00  0.00    +0.058 C 
ATOM     30  C   UNL     1      33.834 -22.976 -17.446  0.00  0.00    +0.102 C 
BRANCH  28  33
ATOM     31  O   UNL     1      37.545 -22.773 -14.677  0.00  0.00    -0.269 OA
ATOM     32  N   UNL     1      35.469 -23.266 -13.769  0.00  0.00    -0.313 N 
ATOM     33  C   UNL     1      36.320 -22.935 -14.830  0.00  0.00    +0.263 C 
ATOM     34  H   UNL     1      34.510 -23.379 -13.961  0.00  0.00    +0.149 HD
ATOM     35  C   UNL     1      35.920 -23.452 -12.410  0.00  0.00    +0.128 C 
ENDBRANCH  28  33
ENDBRANCH  24  26
ENDBRANCH   2  24
TORSDOF 6
ENDMDL
MODEL 4
REMARK VINA RESULT:     -12.0      3.409      5.205
REMARK  Name = 25191001
REMARK  7 active torsions:
REMARK  status: ('A' for Active; 'I' for Inactive)
REMARK    1  A    between atoms: C_1  and  N_9
REMARK    2  A    between atoms: C_2  and  O_24
REMARK    3  A    between atoms: N_8  and  C_14
REMARK    4  A    between atoms: C_15  and  C_23
REMARK    5  A    between atoms: O_24  and  C_26
REMARK    6  A    between atoms: C_28  and  C_33
REMARK    7  A    between atoms: N_32  and  C_35
REMARK                            x       y       z     vdW  Elec       q    Type
REMARK                         _______ _______ _______ _____ _____    ______ ____
ROOT
ATOM      1  C   UNL     1      34.899 -20.145 -20.487  0.00  0.00    +0.052 C 
ATOM      2  C   UNL     1      34.359 -22.401 -18.938  0.00  0.00    +0.145 C 
ATOM      3  C   UNL     1      33.584 -20.581 -20.324  0.00  0.00    +0.018 C 
ATOM      4  C   UNL     1      35.944 -20.837 -19.876  0.00  0.00    +0.018 C 
ATOM      5  C   UNL     1      33.314 -21.708 -19.549  0.00  0.00    +0.039 C 
ATOM      6  C   UNL     1      35.675 -21.966 -19.100  0.00  0.00    +0.039 C 
ENDROOT
BRANCH   1   9
ATOM      7  O   UNL     1      33.252 -17.701 -20.973  0.00  0.00    -0.252 OA
ATOM      8  N   UNL     1      35.009 -16.956 -22.333  0.00  0.00    -0.268 N 
ATOM      9  N   UNL     1      35.173 -19.002 -21.274  0.00  0.00    -0.268 N 
ATOM     10  C   UNL     1      34.361 -17.874 -21.471  0.00  0.00    +0.308 C 
ATOM     11  H   UNL     1      35.898 -17.229 -22.657  0.00  0.00    +0.156 HD
ATOM     12  H   UNL     1      36.039 -18.997 -21.741  0.00  0.00    +0.156 HD
BRANCH   8  14
ATOM     13 CL   UNL     1      33.093 -11.688 -24.208  0.00  0.00    -0.082 Cl
ATOM     14  C   UNL     1      34.555 -15.716 -22.785  0.00  0.00    +0.052 C 
ATOM     15  C   UNL     1      33.660 -14.332 -24.550  0.00  0.00    +0.083 C 
ATOM     16  C   UNL     1      34.113 -15.571 -24.100  0.00  0.00    +0.019 C 
ATOM     17  C   UNL     1      34.544 -14.621 -21.920  0.00  0.00    +0.016 C 
ATOM     18  C   UNL     1      33.647 -13.236 -23.686  0.00  0.00    +0.062 C 
ATOM     19  C   UNL     1      34.090 -13.382 -22.371  0.00  0.00    +0.013 C 
BRANCH  15  23
ATOM     20  F   UNL     1      33.780 -13.195 -26.652  0.00  0.00    -0.166 F 
ATOM     21  F   UNL     1      33.439 -15.335 -26.711  0.00  0.00    -0.166 F 
ATOM     22  F   UNL     1      31.851 -14.002 -26.058  0.00  0.00    -0.166 F 
ATOM     23  C   UNL     1      33.194 -14.218 -25.966  0.00  0.00    +0.419 C 
ENDBRANCH  15  23
ENDBRANCH   8  14
ENDBRANCH   1   9
BRANCH   2  24
ATOM     24  O   UNL     1      34.096 -23.504 -18.183  0.00  0.00    -0.453 OA
BRANCH  24  26
ATOM     25  N   UNL     1      31.965 -22.966 -14.628  0.00  0.00    -0.239 NA
ATOM     26  C   UNL     1      33.390 -23.324 -17.006  0.00  0.00    +0.149 C 
ATOM     27  C   UNL     1      32.013 -23.133 -17.039  0.00  0.00    +0.061 C 
ATOM     28  C   UNL     1      31.353 -22.961 -15.833  0.00  0.00    +0.137 C 
ATOM     29  C   UNL     1      34.056 -23.337 -15.785  0.00  0.00    +0.058 C 
ATOM     30  C   UNL     1      33.305 -23.154 -14.635  0.00  0.00    +0.102 C 
BRANCH  28  33
ATOM     31  O   UNL     1      29.342 -22.429 -14.752  0.00  0.00    -0.269 OA
ATOM     32  N   UNL     1      29.226 -22.921 -17.015  0.00  0.00    -0.313 N 
ATOM     33  C   UNL     1      29.915 -22.757 -15.808  0.00  0.00    +0.263 C 
ATOM     34  H   UNL     1      29.741 -23.182 -17.813  0.00  0.00    +0.149 HD
ATOM     35  C   UNL     1      27.801 -22.731 -17.156  0.00  0.00    +0.128 C 
ENDBRANCH  28  33
ENDBRANCH  24  26
ENDBRANCH   2  24
TORSDOF 6
ENDMDL
MODEL 5
REMARK VINA RESULT:     -11.9      3.393      5.213
REMARK  Name = 25191001
REMARK  7 active torsions:
REMARK  status: ('A' for Active; 'I' for Inactive)
REMARK    1  A    between atoms: C_1  and  N_9
REMARK    2  A    between atoms: C_2  and  O_24
REMARK    3  A    between atoms: N_8  and  C_14
REMARK    4  A    between atoms: C_15  and  C_23
REMARK    5  A    between atoms: O_24  and  C_26
REMARK    6  A    between atoms: C_28  and  C_33
REMARK    7  A    between atoms: N_32  and  C_35
REMARK                            x       y       z     vdW  Elec       q    Type
REMARK                         _______ _______ _______ _____ _____    ______ ____
ROOT
ATOM      1  C   UNL     1      34.794 -18.753 -21.240  0.00  0.00    +0.052 C 
ATOM      2  C   UNL     1      36.085 -20.827 -19.892  0.00  0.00    +0.145 C 
ATOM      3  C   UNL     1      34.053 -19.809 -20.709  0.00  0.00    +0.018 C 
ATOM      4  C   UNL     1      36.182 -18.735 -21.097  0.00  0.00    +0.018 C 
ATOM      5  C   UNL     1      34.698 -20.845 -20.035  0.00  0.00    +0.039 C 
ATOM      6  C   UNL     1      36.828 -19.772 -20.423  0.00  0.00    +0.039 C 
ENDROOT
BRANCH   1   9
ATOM      7  O   UNL     1      34.883 -15.803 -20.781  0.00  0.00    -0.252 OA
ATOM      8  N   UNL     1      33.404 -15.616 -22.588  0.00  0.00    -0.268 N 
ATOM      9  N   UNL     1      34.140 -17.703 -21.926  0.00  0.00    -0.268 N 
ATOM     10  C   UNL     1      34.215 -16.325 -21.669  0.00  0.00    +0.308 C 
ATOM     11  H   UNL     1      32.924 -16.168 -23.247  0.00  0.00    +0.156 HD
ATOM     12  H   UNL     1      33.561 -17.971 -22.674  0.00  0.00    +0.156 HD
BRANCH   8  14
ATOM     13 CL   UNL     1      32.540  -9.786 -23.028  0.00  0.00    -0.082 Cl
ATOM     14  C   UNL     1      33.195 -14.240 -22.684  0.00  0.00    +0.052 C 
ATOM     15  C   UNL     1      32.247 -12.201 -21.800  0.00  0.00    +0.083 C 
ATOM     16  C   UNL     1      32.456 -13.577 -21.704  0.00  0.00    +0.019 C 
ATOM     17  C   UNL     1      33.724 -13.528 -23.760  0.00  0.00    +0.016 C 
ATOM     18  C   UNL     1      32.777 -11.488 -22.876  0.00  0.00    +0.062 C 
ATOM     19  C   UNL     1      33.516 -12.153 -23.856  0.00  0.00    +0.013 C 
BRANCH  15  23
ATOM     20  F   UNL     1      31.877 -10.262 -20.448  0.00  0.00    -0.166 F 
ATOM     21  F   UNL     1      30.127 -11.399 -21.036  0.00  0.00    -0.166 F 
ATOM     22  F   UNL     1      31.492 -12.202 -19.546  0.00  0.00    -0.166 F 
ATOM     23  C   UNL     1      31.451 -11.527 -20.730  0.00  0.00    +0.419 C 
ENDBRANCH  15  23
ENDBRANCH   8  14
ENDBRANCH   1   9
BRANCH   2  24
ATOM     24  O   UNL     1      36.716 -21.840 -19.236  0.00  0.00    -0.453 OA
BRANCH  24  26
ATOM     25  N   UNL     1      35.717 -22.482 -15.228  0.00  0.00    -0.239 NA
ATOM     26  C   UNL     1      36.384 -22.052 -17.909  0.00  0.00    +0.149 C 
ATOM     27  C   UNL     1      35.163 -22.628 -17.577  0.00  0.00    +0.061 C 
ATOM     28  C   UNL     1      34.879 -22.821 -16.235  0.00  0.00    +0.137 C 
ATOM     29  C   UNL     1      37.272 -21.690 -16.902  0.00  0.00    +0.058 C 
ATOM     30  C   UNL     1      36.895 -21.924 -15.589  0.00  0.00    +0.102 C 
BRANCH  28  33
ATOM     31  O   UNL     1      33.565 -24.171 -14.839  0.00  0.00    -0.269 OA
ATOM     32  N   UNL     1      32.486 -23.090 -16.585  0.00  0.00    -0.313 N 
ATOM     33  C   UNL     1      33.619 -23.419 -15.830  0.00  0.00    +0.263 C 
ATOM     34  H   UNL     1      32.600 -22.490 -17.356  0.00  0.00    +0.149 HD
ATOM     35  C   UNL     1      31.160 -23.585 -16.294  0.00  0.00    +0.128 C 
ENDBRANCH  28  33
ENDBRANCH  24  26
ENDBRANCH   2  24
TORSDOF 6
ENDMDL
MODEL 6
REMARK VINA RESULT:     -11.9      5.844     11.760
REMARK  Name = 25191001
REMARK  7 active torsions:
REMARK  status: ('A' for Active; 'I' for Inactive)
REMARK    1  A    between atoms: C_1  and  N_9
REMARK    2  A    between atoms: C_2  and  O_24
REMARK    3  A    between atoms: N_8  and  C_14
REMARK    4  A    between atoms: C_15  and  C_23
REMARK    5  A    between atoms: O_24  and  C_26
REMARK    6  A    between atoms: C_28  and  C_33
REMARK    7  A    between atoms: N_32  and  C_35
REMARK                            x       y       z     vdW  Elec       q    Type
REMARK                         _______ _______ _______ _____ _____    ______ ____
ROOT
ATOM      1  C   UNL     1      34.444 -21.260 -19.486  0.00  0.00    +0.052 C 
ATOM      2  C   UNL     1      34.631 -19.452 -21.603  0.00  0.00    +0.145 C 
ATOM      3  C   UNL     1      33.288 -20.692 -20.022  0.00  0.00    +0.018 C 
ATOM      4  C   UNL     1      35.693 -20.923 -20.007  0.00  0.00    +0.018 C 
ATOM      5  C   UNL     1      33.382 -19.788 -21.081  0.00  0.00    +0.039 C 
ATOM      6  C   UNL     1      35.787 -20.019 -21.066  0.00  0.00    +0.039 C 
ENDROOT
BRANCH   1   9
ATOM      7  O   UNL     1      36.335 -21.792 -17.236  0.00  0.00    -0.252 OA
ATOM      8  N   UNL     1      34.793 -23.396 -16.502  0.00  0.00    -0.268 N 
ATOM      9  N   UNL     1      34.349 -22.175 -18.411  0.00  0.00    -0.268 N 
ATOM     10  C   UNL     1      35.270 -22.388 -17.374  0.00  0.00    +0.308 C 
ATOM     11  H   UNL     1      33.921 -23.787 -16.738  0.00  0.00    +0.156 HD
ATOM     12  H   UNL     1      33.537 -22.731 -18.388  0.00  0.00    +0.156 HD
BRANCH   8  14
ATOM     13 CL   UNL     1      37.305 -25.566 -11.612  0.00  0.00    -0.082 Cl
ATOM     14  C   UNL     1      35.394 -23.910 -15.352  0.00  0.00    +0.052 C 
ATOM     15  C   UNL     1      37.342 -24.784 -14.222  0.00  0.00    +0.083 C 
ATOM     16  C   UNL     1      36.742 -24.271 -15.371  0.00  0.00    +0.019 C 
ATOM     17  C   UNL     1      34.648 -24.061 -14.184  0.00  0.00    +0.016 C 
ATOM     18  C   UNL     1      36.596 -24.935 -13.052  0.00  0.00    +0.062 C 
ATOM     19  C   UNL     1      35.248 -24.574 -13.034  0.00  0.00    +0.013 C 
BRANCH  15  23
ATOM     20  F   UNL     1      39.502 -24.753 -13.194  0.00  0.00    -0.166 F 
ATOM     21  F   UNL     1      38.997 -26.505 -14.367  0.00  0.00    -0.166 F 
ATOM     22  F   UNL     1      39.421 -24.618 -15.362  0.00  0.00    -0.166 F 
ATOM     23  C   UNL     1      38.788 -25.159 -14.283  0.00  0.00    +0.419 C 
ENDBRANCH  15  23
ENDBRANCH   8  14
ENDBRANCH   1   9
BRANCH   2  24
ATOM     24  O   UNL     1      34.723 -18.568 -22.634  0.00  0.00    -0.453 OA
BRANCH  24  26
ATOM     25  N   UNL     1      34.336 -14.502 -21.745  0.00  0.00    -0.239 NA
ATOM     26  C   UNL     1      34.596 -17.221 -22.341  0.00  0.00    +0.149 C 
ATOM     27  C   UNL     1      34.261 -16.316 -23.342  0.00  0.00    +0.061 C 
ATOM     28  C   UNL     1      34.144 -14.980 -22.996  0.00  0.00    +0.137 C 
ATOM     29  C   UNL     1      34.800 -16.769 -21.042  0.00  0.00    +0.058 C 
ATOM     30  C   UNL     1      34.660 -15.412 -20.798  0.00  0.00    +0.102 C 
BRANCH  28  33
ATOM     31  O   UNL     1      33.196 -14.327 -25.038  0.00  0.00    -0.269 OA
ATOM     32  N   UNL     1      34.146 -12.661 -23.734  0.00  0.00    -0.313 N 
ATOM     33  C   UNL     1      33.797 -13.990 -24.001  0.00  0.00    +0.263 C 
ATOM     34  H   UNL     1      34.621 -12.465 -22.895  0.00  0.00    +0.149 HD
ATOM     35  C   UNL     1      33.849 -11.562 -24.623  0.00  0.00    +0.128 C 
ENDBRANCH  28  33
ENDBRANCH  24  26
ENDBRANCH   2  24
TORSDOF 6
ENDMDL
MODEL 7
REMARK VINA RESULT:     -11.9      2.666      3.774
REMARK  Name = 25191001
REMARK  7 active torsions:
REMARK  status: ('A' for Active; 'I' for Inactive)
REMARK    1  A    between atoms: C_1  and  N_9
REMARK    2  A    between atoms: C_2  and  O_24
REMARK    3  A    between atoms: N_8  and  C_14
REMARK    4  A    between atoms: C_15  and  C_23
REMARK    5  A    between atoms: O_24  and  C_26
REMARK    6  A    between atoms: C_28  and  C_33
REMARK    7  A    between atoms: N_32  and  C_35
REMARK                            x       y       z     vdW  Elec       q    Type
REMARK                         _______ _______ _______ _____ _____    ______ ____
ROOT
ATOM      1  C   UNL     1      34.843 -20.229 -20.400  0.00  0.00    +0.052 C 
ATOM      2  C   UNL     1      34.234 -22.522 -18.932  0.00  0.00    +0.145 C 
ATOM      3  C   UNL     1      33.521 -20.661 -20.297  0.00  0.00    +0.018 C 
ATOM      4  C   UNL     1      35.861 -20.944 -19.769  0.00  0.00    +0.018 C 
ATOM      5  C   UNL     1      33.216 -21.807 -19.563  0.00  0.00    +0.039 C 
ATOM      6  C   UNL     1      35.557 -22.091 -19.035  0.00  0.00    +0.039 C 
ENDROOT
BRANCH   1   9
ATOM      7  O   UNL     1      33.177 -17.823 -20.996  0.00  0.00    -0.252 OA
ATOM      8  N   UNL     1      35.022 -17.010 -22.188  0.00  0.00    -0.268 N 
ATOM      9  N   UNL     1      35.152 -19.067 -21.145  0.00  0.00    -0.268 N 
ATOM     10  C   UNL     1      34.328 -17.958 -21.397  0.00  0.00    +0.308 C 
ATOM     11  H   UNL     1      35.943 -17.254 -22.437  0.00  0.00    +0.156 HD
ATOM     12  H   UNL     1      36.055 -19.032 -21.535  0.00  0.00    +0.156 HD
BRANCH   8  14
ATOM     13 CL   UNL     1      33.132 -11.767 -24.156  0.00  0.00    -0.082 Cl
ATOM     14  C   UNL     1      34.575 -15.776 -22.661  0.00  0.00    +0.052 C 
ATOM     15  C   UNL     1      33.708 -14.414 -24.458  0.00  0.00    +0.083 C 
ATOM     16  C   UNL     1      34.155 -15.647 -23.986  0.00  0.00    +0.019 C 
ATOM     17  C   UNL     1      34.547 -14.672 -21.810  0.00  0.00    +0.016 C 
ATOM     18  C   UNL     1      33.679 -13.309 -23.607  0.00  0.00    +0.062 C 
ATOM     19  C   UNL     1      34.100 -13.438 -22.282  0.00  0.00    +0.013 C 
BRANCH  15  23
ATOM     20  F   UNL     1      31.914 -14.208 -26.028  0.00  0.00    -0.166 F 
ATOM     21  F   UNL     1      33.785 -13.239 -26.540  0.00  0.00    -0.166 F 
ATOM     22  F   UNL     1      33.630 -15.407 -26.617  0.00  0.00    -0.166 F 
ATOM     23  C   UNL     1      33.267 -14.317 -25.883  0.00  0.00    +0.419 C 
ENDBRANCH  15  23
ENDBRANCH   8  14
ENDBRANCH   1   9
BRANCH   2  24
ATOM     24  O   UNL     1      33.938 -23.643 -18.218  0.00  0.00    -0.453 OA
BRANCH  24  26
ATOM     25  N   UNL     1      32.341 -23.135 -14.388  0.00  0.00    -0.239 NA
ATOM     26  C   UNL     1      33.409 -23.476 -16.949  0.00  0.00    +0.149 C 
ATOM     27  C   UNL     1      34.192 -23.724 -15.827  0.00  0.00    +0.061 C 
ATOM     28  C   UNL     1      33.617 -23.540 -14.580  0.00  0.00    +0.137 C 
ATOM     29  C   UNL     1      32.093 -23.056 -16.792  0.00  0.00    +0.058 C 
ATOM     30  C   UNL     1      31.610 -22.903 -15.502  0.00  0.00    +0.102 C 
BRANCH  28  33
ATOM     31  O   UNL     1      33.926 -24.498 -12.463  0.00  0.00    -0.269 OA
ATOM     32  N   UNL     1      35.661 -23.208 -13.302  0.00  0.00    -0.313 N 
ATOM     33  C   UNL     1      34.387 -23.785 -13.374  0.00  0.00    +0.263 C 
ATOM     34  H   UNL     1      35.963 -22.655 -14.058  0.00  0.00    +0.149 HD
ATOM     35  C   UNL     1      36.555 -23.378 -12.181  0.00  0.00    +0.128 C 
ENDBRANCH  28  33
ENDBRANCH  24  26
ENDBRANCH   2  24
TORSDOF 6
ENDMDL
MODEL 8
REMARK VINA RESULT:     -11.8      5.811     11.641
REMARK  Name = 25191001
REMARK  7 active torsions:
REMARK  status: ('A' for Active; 'I' for Inactive)
REMARK    1  A    between atoms: C_1  and  N_9
REMARK    2  A    between atoms: C_2  and  O_24
REMARK    3  A    between atoms: N_8  and  C_14
REMARK    4  A    between atoms: C_15  and  C_23
REMARK    5  A    between atoms: O_24  and  C_26
REMARK    6  A    between atoms: C_28  and  C_33
REMARK    7  A    between atoms: N_32  and  C_35
REMARK                            x       y       z     vdW  Elec       q    Type
REMARK                         _______ _______ _______ _____ _____    ______ ____
ROOT
ATOM      1  C   UNL     1      36.310 -19.890 -20.240  0.00  0.00    +0.052 C 
ATOM      2  C   UNL     1      35.437 -19.011 -22.740  0.00  0.00    +0.145 C 
ATOM      3  C   UNL     1      37.178 -19.186 -21.075  0.00  0.00    +0.018 C 
ATOM      4  C   UNL     1      35.005 -20.155 -20.656  0.00  0.00    +0.018 C 
ATOM      5  C   UNL     1      36.742 -18.746 -22.324  0.00  0.00    +0.039 C 
ATOM      6  C   UNL     1      34.568 -19.715 -21.906  0.00  0.00    +0.039 C 
ENDROOT
BRANCH   1   9
ATOM      7  O   UNL     1      35.557 -22.328 -18.686  0.00  0.00    -0.252 OA
ATOM      8  N   UNL     1      37.048 -21.572 -17.044  0.00  0.00    -0.268 N 
ATOM      9  N   UNL     1      36.753 -20.338 -18.973  0.00  0.00    -0.268 N 
ATOM     10  C   UNL     1      36.366 -21.497 -18.283  0.00  0.00    +0.308 C 
ATOM     11  H   UNL     1      37.669 -20.832 -16.853  0.00  0.00    +0.156 HD
ATOM     12  H   UNL     1      37.414 -19.766 -18.521  0.00  0.00    +0.156 HD
BRANCH   8  14
ATOM     13 CL   UNL     1      36.627 -25.726 -12.861  0.00  0.00    -0.082 Cl
ATOM     14  C   UNL     1      36.957 -22.556 -16.058  0.00  0.00    +0.052 C 
ATOM     15  C   UNL     1      37.962 -24.358 -14.802  0.00  0.00    +0.083 C 
ATOM     16  C   UNL     1      38.053 -23.375 -15.788  0.00  0.00    +0.019 C 
ATOM     17  C   UNL     1      35.771 -22.719 -15.343  0.00  0.00    +0.016 C 
ATOM     18  C   UNL     1      36.776 -24.522 -14.087  0.00  0.00    +0.062 C 
ATOM     19  C   UNL     1      35.680 -23.702 -14.358  0.00  0.00    +0.013 C 
BRANCH  15  23
ATOM     20  F   UNL     1      38.911 -26.551 -14.673  0.00  0.00    -0.166 F 
ATOM     21  F   UNL     1      40.203 -24.961 -15.384  0.00  0.00    -0.166 F 
ATOM     22  F   UNL     1      39.653 -25.053 -13.283  0.00  0.00    -0.166 F 
ATOM     23  C   UNL     1      39.159 -25.216 -14.543  0.00  0.00    +0.419 C 
ENDBRANCH  15  23
ENDBRANCH   8  14
ENDBRANCH   1   9
BRANCH   2  24
ATOM     24  O   UNL     1      35.011 -18.584 -23.960  0.00  0.00    -0.453 OA
BRANCH  24  26
ATOM     25  N   UNL     1      33.441 -14.720 -24.230  0.00  0.00    -0.239 NA
ATOM     26  C   UNL     1      34.490 -17.304 -24.049  0.00  0.00    +0.149 C 
ATOM     27  C   UNL     1      34.258 -16.563 -22.896  0.00  0.00    +0.061 C 
ATOM     28  C   UNL     1      33.737 -15.287 -23.038  0.00  0.00    +0.137 C 
ATOM     29  C   UNL     1      34.199 -16.755 -25.292  0.00  0.00    +0.058 C 
ATOM     30  C   UNL     1      33.680 -15.470 -25.329  0.00  0.00    +0.102 C 
BRANCH  28  33
ATOM     31  O   UNL     1      34.208 -14.544 -20.865  0.00  0.00    -0.269 OA
ATOM     32  N   UNL     1      32.389 -13.586 -21.938  0.00  0.00    -0.313 N 
ATOM     33  C   UNL     1      33.475 -14.467 -21.868  0.00  0.00    +0.263 C 
ATOM     34  H   UNL     1      31.850 -13.576 -22.762  0.00  0.00    +0.149 HD
ATOM     35  C   UNL     1      32.016 -12.690 -20.868  0.00  0.00    +0.128 C 
ENDBRANCH  28  33
ENDBRANCH  24  26
ENDBRANCH   2  24
TORSDOF 6
ENDMDL
MODEL 9
REMARK VINA RESULT:     -11.8      3.608      5.360
REMARK  Name = 25191001
REMARK  7 active torsions:
REMARK  status: ('A' for Active; 'I' for Inactive)
REMARK    1  A    between atoms: C_1  and  N_9
REMARK    2  A    between atoms: C_2  and  O_24
REMARK    3  A    between atoms: N_8  and  C_14
REMARK    4  A    between atoms: C_15  and  C_23
REMARK    5  A    between atoms: O_24  and  C_26
REMARK    6  A    between atoms: C_28  and  C_33
REMARK    7  A    between atoms: N_32  and  C_35
REMARK                            x       y       z     vdW  Elec       q    Type
REMARK                         _______ _______ _______ _____ _____    ______ ____
ROOT
ATOM      1  C   UNL     1      34.476 -19.404 -20.786  0.00  0.00    +0.052 C 
ATOM      2  C   UNL     1      34.074 -21.880 -19.563  0.00  0.00    +0.145 C 
ATOM      3  C   UNL     1      33.181 -19.854 -20.528  0.00  0.00    +0.018 C 
ATOM      4  C   UNL     1      35.571 -20.194 -20.432  0.00  0.00    +0.018 C 
ATOM      5  C   UNL     1      32.980 -21.090 -19.916  0.00  0.00    +0.039 C 
ATOM      6  C   UNL     1      35.370 -21.432 -19.820  0.00  0.00    +0.039 C 
ENDROOT
BRANCH   1   9
ATOM      7  O   UNL     1      32.714 -16.995 -20.886  0.00  0.00    -0.252 OA
ATOM      8  N   UNL     1      34.400 -15.985 -22.162  0.00  0.00    -0.268 N 
ATOM      9  N   UNL     1      34.680 -18.150 -21.408  0.00  0.00    -0.268 N 
ATOM     10  C   UNL     1      33.815 -17.045 -21.425  0.00  0.00    +0.308 C 
ATOM     11  H   UNL     1      35.291 -16.169 -22.539  0.00  0.00    +0.156 HD
ATOM     12  H   UNL     1      35.532 -18.040 -21.887  0.00  0.00    +0.156 HD
BRANCH   8  14
ATOM     13 CL   UNL     1      32.223 -10.610 -23.301  0.00  0.00    -0.082 Cl
ATOM     14  C   UNL     1      33.882 -14.716 -22.422  0.00  0.00    +0.052 C 
ATOM     15  C   UNL     1      32.614 -12.787 -21.710  0.00  0.00    +0.083 C 
ATOM     16  C   UNL     1      33.131 -14.056 -21.449  0.00  0.00    +0.019 C 
ATOM     17  C   UNL     1      34.115 -14.108 -23.655  0.00  0.00    +0.016 C 
ATOM     18  C   UNL     1      32.847 -12.178 -22.943  0.00  0.00    +0.062 C 
ATOM     19  C   UNL     1      33.598 -12.840 -23.916  0.00  0.00    +0.013 C 
BRANCH  15  23
ATOM     20  F   UNL     1      32.290 -10.879 -20.303  0.00  0.00    -0.166 F 
ATOM     21  F   UNL     1      30.509 -11.913 -20.983  0.00  0.00    -0.166 F 
ATOM     22  F   UNL     1      31.787 -12.829 -19.481  0.00  0.00    -0.166 F 
ATOM     23  C   UNL     1      31.815 -12.113 -20.641  0.00  0.00    +0.419 C 
ENDBRANCH  15  23
ENDBRANCH   8  14
ENDBRANCH   1   9
BRANCH   2  24
ATOM     24  O   UNL     1      33.879 -23.088 -18.968  0.00  0.00    -0.453 OA
BRANCH  24  26
ATOM     25  N   UNL     1      32.919 -23.122 -14.899  0.00  0.00    -0.239 NA
ATOM     26  C   UNL     1      33.560 -23.098 -17.620  0.00  0.00    +0.149 C 
ATOM     27  C   UNL     1      32.230 -23.127 -17.217  0.00  0.00    +0.061 C 
ATOM     28  C   UNL     1      31.964 -23.138 -15.857  0.00  0.00    +0.137 C 
ATOM     29  C   UNL     1      34.570 -23.081 -16.665  0.00  0.00    +0.058 C 
ATOM     30  C   UNL     1      34.201 -23.093 -15.329  0.00  0.00    +0.102 C 
BRANCH  28  33
ATOM     31  O   UNL     1      30.336 -23.547 -14.220  0.00  0.00    -0.269 OA
ATOM     32  N   UNL     1      29.599 -22.733 -16.263  0.00  0.00    -0.313 N 
ATOM     33  C   UNL     1      30.593 -23.168 -15.378  0.00  0.00    +0.263 C 
ATOM     34  H   UNL     1      29.872 -22.448 -17.164  0.00  0.00    +0.149 HD
ATOM     35  C   UNL     1      28.195 -22.682 -15.926  0.00  0.00    +0.128 C 
ENDBRANCH  28  33
ENDBRANCH  24  26
ENDBRANCH   2  24
TORSDOF 6
ENDMDL
