MODEL 1
REMARK VINA RESULT:     -10.4      0.000      0.000
REMARK  Name = 46843057
REMARK  7 active torsions:
REMARK  status: ('A' for Active; 'I' for Inactive)
REMARK    1  A    between atoms: N_2  and  C_18
REMARK    2  A    between atoms: C_3  and  C_7
REMARK    3  A    between atoms: C_8  and  C_14
REMARK    4  A    between atoms: C_18  and  C_19
REMARK    5  A    between atoms: C_18  and  C_27
REMARK    6  A    between atoms: C_19  and  C_21
REMARK    7  A    between atoms: C_27  and  N_28
REMARK                            x       y       z     vdW  Elec       q    Type
REMARK                         _______ _______ _______ _____ _____    ______ ____
ROOT
ATOM      1  O   UNL     1      34.949 -16.106 -21.399  0.00  0.00    -0.270 OA
ATOM      2  N   UNL     1      34.513 -17.400 -23.273  0.00  0.00    -0.304 N 
ATOM      3  C   UNL     1      34.594 -16.210 -22.570  0.00  0.00    +0.252 C 
ATOM      4  H   UNL     1      34.216 -17.379 -24.211  0.00  0.00    +0.150 HD
ENDROOT
BRANCH   3   7
ATOM      5 CL   UNL     1      32.991 -12.788 -26.603  0.00  0.00    -0.075 Cl
ATOM      6  S   UNL     1      33.811 -15.121 -24.981  0.00  0.00    -0.071 S 
ATOM      7  C   UNL     1      34.189 -14.991 -23.317  0.00  0.00    +0.084 C 
ATOM      8  C   UNL     1      33.651 -12.803 -23.885  0.00  0.00    +0.033 C 
ATOM      9  C   UNL     1      34.063 -13.698 -22.856  0.00  0.00    +0.014 C 
ATOM     10  C   UNL     1      33.477 -13.446 -25.091  0.00  0.00    +0.088 C 
BRANCH   8  14
ATOM     11 CL   UNL     1      35.418 -10.352 -25.355  0.00  0.00    -0.079 Cl
ATOM     12  N   UNL     1      32.491 -10.778 -22.891  0.00  0.00    -0.209 N 
ATOM     13  N   UNL     1      32.517  -9.435 -22.903  0.00  0.00    -0.175 NA
ATOM     14  C   UNL     1      33.434 -11.355 -23.690  0.00  0.00    +0.082 C 
ATOM     15  C   UNL     1      34.125 -10.316 -24.265  0.00  0.00    +0.093 C 
ATOM     16  C   UNL     1      31.515 -11.457 -22.070  0.00  0.00    +0.140 C 
ATOM     17  C   UNL     1      33.517  -9.158 -23.744  0.00  0.00    +0.130 C 
ENDBRANCH   8  14
ENDBRANCH   3   7
BRANCH   2  18
ATOM     18  C   UNL     1      34.849 -18.676 -22.674  0.00  0.00    +0.055 C 
BRANCH  18  19
ATOM     19  C   UNL     1      33.819 -19.062 -21.596  0.00  0.00    +0.044 C 
BRANCH  19  21
ATOM     20  F   UNL     1      33.052 -22.681 -18.405  0.00  0.00    -0.204 F 
ATOM     21  C   UNL     1      34.335 -20.108 -20.635  0.00  0.00    -0.018 C 
ATOM     22  C   UNL     1      33.438 -20.928 -19.951  0.00  0.00    +0.025 C 
ATOM     23  C   UNL     1      35.708 -20.252 -20.432  0.00  0.00    -0.004 C 
ATOM     24  C   UNL     1      33.913 -21.893 -19.063  0.00  0.00    +0.140 C 
ATOM     25  C   UNL     1      36.183 -21.218 -19.545  0.00  0.00    +0.002 C 
ATOM     26  C   UNL     1      35.286 -22.038 -18.860  0.00  0.00    +0.030 C 
ENDBRANCH  19  21
ENDBRANCH  18  19
BRANCH  18  27
ATOM     27  C   UNL     1      34.952 -19.730 -23.787  0.00  0.00    -0.066 C 
BRANCH  27  28
ATOM     28  N   UNL     1      34.553 -19.198 -25.084  0.00  0.00    +0.382 N 
ATOM     29  H   UNL     1      34.219 -18.240 -24.972  0.00  0.00    -0.089 HD
ATOM     30  H   UNL     1      33.808 -19.775 -25.474  0.00  0.00    -0.089 HD
ATOM     31  H   UNL     1      35.355 -19.206 -25.716  0.00  0.00    -0.089 HD
ENDBRANCH  27  28
ENDBRANCH  18  27
ENDBRANCH   2  18
TORSDOF 7
ENDMDL
MODEL 2
REMARK VINA RESULT:     -10.3      3.489      5.039
REMARK  Name = 46843057
REMARK  7 active torsions:
REMARK  status: ('A' for Active; 'I' for Inactive)
REMARK    1  A    between atoms: N_2  and  C_18
REMARK    2  A    between atoms: C_3  and  C_7
REMARK    3  A    between atoms: C_8  and  C_14
REMARK    4  A    between atoms: C_18  and  C_19
REMARK    5  A    between atoms: C_18  and  C_27
REMARK    6  A    between atoms: C_19  and  C_21
REMARK    7  A    between atoms: C_27  and  N_28
REMARK                            x       y       z     vdW  Elec       q    Type
REMARK                         _______ _______ _______ _____ _____    ______ ____
ROOT
ATOM      1  O   UNL     1      33.515 -12.767 -25.055  0.00  0.00    -0.270 OA
ATOM      2  N   UNL     1      33.216 -13.029 -22.770  0.00  0.00    -0.304 N 
ATOM      3  C   UNL     1      33.383 -12.292 -23.930  0.00  0.00    +0.252 C 
ATOM      4  H   UNL     1      33.119 -12.553 -21.914  0.00  0.00    +0.150 HD
ENDROOT
BRANCH   3   7
ATOM      5 CL   UNL     1      34.962  -7.000 -24.157  0.00  0.00    -0.075 Cl
ATOM      6  S   UNL     1      34.734  -9.937 -24.422  0.00  0.00    -0.071 S 
ATOM      7  C   UNL     1      33.426 -10.817 -23.755  0.00  0.00    +0.084 C 
ATOM      8  C   UNL     1      32.922  -8.630 -23.154  0.00  0.00    +0.033 C 
ATOM      9  C   UNL     1      32.529  -9.998 -23.104  0.00  0.00    +0.014 C 
ATOM     10  C   UNL     1      34.103  -8.455 -23.840  0.00  0.00    +0.088 C 
BRANCH   8  14
ATOM     11 CL   UNL     1      31.207  -6.281 -24.838  0.00  0.00    -0.079 Cl
ATOM     12  N   UNL     1      32.024  -7.272 -21.209  0.00  0.00    -0.209 N 
ATOM     13  N   UNL     1      31.270  -6.195 -20.931  0.00  0.00    -0.175 NA
ATOM     14  C   UNL     1      32.159  -7.522 -22.542  0.00  0.00    +0.082 C 
ATOM     15  C   UNL     1      31.442  -6.540 -23.182  0.00  0.00    +0.093 C 
ATOM     16  C   UNL     1      32.598  -8.030 -20.120  0.00  0.00    +0.140 C 
ATOM     17  C   UNL     1      30.918  -5.752 -22.141  0.00  0.00    +0.130 C 
ENDBRANCH   8  14
ENDBRANCH   3   7
BRANCH   2  18
ATOM     18  C   UNL     1      33.180 -14.477 -22.773  0.00  0.00    +0.055 C 
BRANCH  18  19
ATOM     19  C   UNL     1      34.605 -15.059 -22.830  0.00  0.00    +0.044 C 
BRANCH  19  21
ATOM     20  F   UNL     1      35.138 -19.867 -22.147  0.00  0.00    -0.204 F 
ATOM     21  C   UNL     1      34.644 -16.473 -23.361  0.00  0.00    -0.018 C 
ATOM     22  C   UNL     1      34.877 -17.539 -22.492  0.00  0.00    +0.025 C 
ATOM     23  C   UNL     1      34.449 -16.712 -24.722  0.00  0.00    -0.004 C 
ATOM     24  C   UNL     1      34.915 -18.844 -22.982  0.00  0.00    +0.140 C 
ATOM     25  C   UNL     1      34.486 -18.018 -25.212  0.00  0.00    +0.002 C 
ATOM     26  C   UNL     1      34.719 -19.084 -24.342  0.00  0.00    +0.030 C 
ENDBRANCH  19  21
ENDBRANCH  18  19
BRANCH  18  27
ATOM     27  C   UNL     1      32.404 -14.953 -21.536  0.00  0.00    -0.066 C 
BRANCH  27  28
ATOM     28  N   UNL     1      33.243 -14.991 -20.344  0.00  0.00    +0.382 N 
ATOM     29  H   UNL     1      32.711 -14.652 -19.542  0.00  0.00    -0.089 HD
ATOM     30  H   UNL     1      34.061 -14.399 -20.485  0.00  0.00    -0.089 HD
ATOM     31  H   UNL     1      33.544 -15.951 -20.171  0.00  0.00    -0.089 HD
ENDBRANCH  27  28
ENDBRANCH  18  27
ENDBRANCH   2  18
TORSDOF 7
ENDMDL
MODEL 3
REMARK VINA RESULT:     -10.2      3.502      5.156
REMARK  Name = 46843057
REMARK  7 active torsions:
REMARK  status: ('A' for Active; 'I' for Inactive)
REMARK    1  A    between atoms: N_2  and  C_18
REMARK    2  A    between atoms: C_3  and  C_7
REMARK    3  A    between atoms: C_8  and  C_14
REMARK    4  A    between atoms: C_18  and  C_19
REMARK    5  A    between atoms: C_18  and  C_27
REMARK    6  A    between atoms: C_19  and  C_21
REMARK    7  A    between atoms: C_27  and  N_28
REMARK                            x       y       z     vdW  Elec       q    Type
REMARK                         _______ _______ _______ _____ _____    ______ ____
ROOT
ATOM      1  O   UNL     1      33.544 -12.746 -25.069  0.00  0.00    -0.270 OA
ATOM      2  N   UNL     1      33.217 -13.006 -22.788  0.00  0.00    -0.304 N 
ATOM      3  C   UNL     1      33.395 -12.270 -23.947  0.00  0.00    +0.252 C 
ATOM      4  H   UNL     1      33.107 -12.529 -21.934  0.00  0.00    +0.150 HD
ENDROOT
BRANCH   3   7
ATOM      5 CL   UNL     1      34.951  -6.971 -24.167  0.00  0.00    -0.075 Cl
ATOM      6  S   UNL     1      34.741  -9.909 -24.428  0.00  0.00    -0.071 S 
ATOM      7  C   UNL     1      33.429 -10.795 -23.775  0.00  0.00    +0.084 C 
ATOM      8  C   UNL     1      32.908  -8.608 -23.184  0.00  0.00    +0.033 C 
ATOM      9  C   UNL     1      32.520  -9.978 -23.136  0.00  0.00    +0.014 C 
ATOM     10  C   UNL     1      34.096  -8.429 -23.857  0.00  0.00    +0.088 C 
BRANCH   8  14
ATOM     11 CL   UNL     1      32.695  -7.937 -19.898  0.00  0.00    -0.079 Cl
ATOM     12  N   UNL     1      31.384  -6.582 -23.254  0.00  0.00    -0.209 N 
ATOM     13  N   UNL     1      30.783  -5.684 -22.455  0.00  0.00    -0.175 NA
ATOM     14  C   UNL     1      32.132  -7.503 -22.583  0.00  0.00    +0.082 C 
ATOM     15  C   UNL     1      32.013  -7.186 -21.252  0.00  0.00    +0.093 C 
ATOM     16  C   UNL     1      31.190  -6.494 -24.683  0.00  0.00    +0.140 C 
ATOM     17  C   UNL     1      31.171  -6.059 -21.233  0.00  0.00    +0.130 C 
ENDBRANCH   8  14
ENDBRANCH   3   7
BRANCH   2  18
ATOM     18  C   UNL     1      33.187 -14.454 -22.788  0.00  0.00    +0.055 C 
BRANCH  18  19
ATOM     19  C   UNL     1      34.615 -15.029 -22.852  0.00  0.00    +0.044 C 
BRANCH  19  21
ATOM     20  F   UNL     1      35.141 -19.831 -22.119  0.00  0.00    -0.204 F 
ATOM     21  C   UNL     1      34.657 -16.448 -23.370  0.00  0.00    -0.018 C 
ATOM     22  C   UNL     1      34.883 -17.506 -22.488  0.00  0.00    +0.025 C 
ATOM     23  C   UNL     1      34.469 -16.700 -24.729  0.00  0.00    -0.004 C 
ATOM     24  C   UNL     1      34.924 -18.815 -22.966  0.00  0.00    +0.140 C 
ATOM     25  C   UNL     1      34.508 -18.011 -25.206  0.00  0.00    +0.002 C 
ATOM     26  C   UNL     1      34.735 -19.068 -24.325  0.00  0.00    +0.030 C 
ENDBRANCH  19  21
ENDBRANCH  18  19
BRANCH  18  27
ATOM     27  C   UNL     1      32.421 -14.932 -21.546  0.00  0.00    -0.066 C 
BRANCH  27  28
ATOM     28  N   UNL     1      33.270 -14.977 -20.362  0.00  0.00    +0.382 N 
ATOM     29  H   UNL     1      32.807 -14.495 -19.591  0.00  0.00    -0.089 HD
ATOM     30  H   UNL     1      34.159 -14.521 -20.564  0.00  0.00    -0.089 HD
ATOM     31  H   UNL     1      33.439 -15.950 -20.102  0.00  0.00    -0.089 HD
ENDBRANCH  27  28
ENDBRANCH  18  27
ENDBRANCH   2  18
TORSDOF 7
ENDMDL
MODEL 4
REMARK VINA RESULT:     -10.1      2.350      2.914
REMARK  Name = 46843057
REMARK  7 active torsions:
REMARK  status: ('A' for Active; 'I' for Inactive)
REMARK    1  A    between atoms: N_2  and  C_18
REMARK    2  A    between atoms: C_3  and  C_7
REMARK    3  A    between atoms: C_8  and  C_14
REMARK    4  A    between atoms: C_18  and  C_19
REMARK    5  A    between atoms: C_18  and  C_27
REMARK    6  A    between atoms: C_19  and  C_21
REMARK    7  A    between atoms: C_27  and  N_28
REMARK                            x       y       z     vdW  Elec       q    Type
REMARK                         _______ _______ _______ _____ _____    ______ ____
ROOT
ATOM      1  O   UNL     1      34.997 -15.982 -19.766  0.00  0.00    -0.270 OA
ATOM      2  N   UNL     1      34.790 -17.405 -21.585  0.00  0.00    -0.304 N 
ATOM      3  C   UNL     1      34.665 -16.192 -20.930  0.00  0.00    +0.252 C 
ATOM      4  H   UNL     1      34.494 -17.472 -22.522  0.00  0.00    +0.150 HD
ENDROOT
BRANCH   3   7
ATOM      5 CL   UNL     1      31.549 -11.884 -22.439  0.00  0.00    -0.075 Cl
ATOM      6  S   UNL     1      32.855 -14.111 -20.996  0.00  0.00    -0.071 S 
ATOM      7  C   UNL     1      34.057 -15.092 -21.720  0.00  0.00    +0.084 C 
ATOM      8  C   UNL     1      33.524 -13.603 -23.424  0.00  0.00    +0.033 C 
ATOM      9  C   UNL     1      34.320 -14.713 -23.019  0.00  0.00    +0.014 C 
ATOM     10  C   UNL     1      32.683 -13.176 -22.420  0.00  0.00    +0.088 C 
BRANCH   8  14
ATOM     11 CL   UNL     1      34.419 -10.426 -24.053  0.00  0.00    -0.079 Cl
ATOM     12  N   UNL     1      33.293 -13.581 -25.949  0.00  0.00    -0.209 N 
ATOM     13  N   UNL     1      33.435 -12.777 -27.016  0.00  0.00    -0.175 NA
ATOM     14  C   UNL     1      33.585 -12.979 -24.761  0.00  0.00    +0.082 C 
ATOM     15  C   UNL     1      33.944 -11.690 -25.073  0.00  0.00    +0.093 C 
ATOM     16  C   UNL     1      32.862 -14.946 -26.149  0.00  0.00    +0.140 C 
ATOM     17  C   UNL     1      33.833 -11.622 -26.474  0.00  0.00    +0.130 C 
ENDBRANCH   8  14
ENDBRANCH   3   7
BRANCH   2  18
ATOM     18  C   UNL     1      35.341 -18.580 -20.941  0.00  0.00    +0.055 C 
BRANCH  18  19
ATOM     19  C   UNL     1      34.441 -19.807 -21.181  0.00  0.00    +0.044 C 
BRANCH  19  21
ATOM     20  F   UNL     1      36.889 -22.286 -17.756  0.00  0.00    -0.204 F 
ATOM     21  C   UNL     1      34.480 -20.799 -20.041  0.00  0.00    -0.018 C 
ATOM     22  C   UNL     1      35.690 -21.090 -19.411  0.00  0.00    +0.025 C 
ATOM     23  C   UNL     1      33.305 -21.423 -19.620  0.00  0.00    -0.004 C 
ATOM     24  C   UNL     1      35.727 -22.007 -18.361  0.00  0.00    +0.140 C 
ATOM     25  C   UNL     1      33.343 -22.340 -18.568  0.00  0.00    +0.002 C 
ATOM     26  C   UNL     1      34.553 -22.631 -17.939  0.00  0.00    +0.030 C 
ENDBRANCH  19  21
ENDBRANCH  18  19
BRANCH  18  27
ATOM     27  C   UNL     1      36.772 -18.797 -21.453  0.00  0.00    -0.066 C 
BRANCH  27  28
ATOM     28  N   UNL     1      36.926 -18.383 -22.842  0.00  0.00    +0.382 N 
ATOM     29  H   UNL     1      37.347 -19.141 -23.380  0.00  0.00    -0.089 HD
ATOM     30  H   UNL     1      37.526 -17.560 -22.887  0.00  0.00    -0.089 HD
ATOM     31  H   UNL     1      36.010 -18.158 -23.233  0.00  0.00    -0.089 HD
ENDBRANCH  27  28
ENDBRANCH  18  27
ENDBRANCH   2  18
TORSDOF 7
ENDMDL
MODEL 5
REMARK VINA RESULT:      -9.9      5.437     10.823
REMARK  Name = 46843057
REMARK  7 active torsions:
REMARK  status: ('A' for Active; 'I' for Inactive)
REMARK    1  A    between atoms: N_2  and  C_18
REMARK    2  A    between atoms: C_3  and  C_7
REMARK    3  A    between atoms: C_8  and  C_14
REMARK    4  A    between atoms: C_18  and  C_19
REMARK    5  A    between atoms: C_18  and  C_27
REMARK    6  A    between atoms: C_19  and  C_21
REMARK    7  A    between atoms: C_27  and  N_28
REMARK                            x       y       z     vdW  Elec       q    Type
REMARK                         _______ _______ _______ _____ _____    ______ ____
ROOT
ATOM      1  O   UNL     1      33.632  -9.823 -24.205  0.00  0.00    -0.270 OA
ATOM      2  N   UNL     1      32.357  -9.636 -22.277  0.00  0.00    -0.304 N 
ATOM      3  C   UNL     1      33.049 -10.334 -23.252  0.00  0.00    +0.252 C 
ATOM      4  H   UNL     1      31.922 -10.138 -21.551  0.00  0.00    +0.150 HD
ENDROOT
BRANCH   3   7
ATOM      5 CL   UNL     1      32.161 -15.446 -21.350  0.00  0.00    -0.075 Cl
ATOM      6  S   UNL     1      32.258 -12.520 -21.767  0.00  0.00    -0.071 S 
ATOM      7  C   UNL     1      33.043 -11.813 -23.114  0.00  0.00    +0.084 C 
ATOM      8  C   UNL     1      33.380 -14.085 -23.467  0.00  0.00    +0.033 C 
ATOM      9  C   UNL     1      33.601 -12.761 -23.944  0.00  0.00    +0.014 C 
ATOM     10  C   UNL     1      32.663 -14.099 -22.291  0.00  0.00    +0.088 C 
BRANCH   8  14
ATOM     11 CL   UNL     1      35.243 -16.497 -22.052  0.00  0.00    -0.079 Cl
ATOM     12  N   UNL     1      33.634 -15.651 -25.446  0.00  0.00    -0.209 N 
ATOM     13  N   UNL     1      34.192 -16.821 -25.802  0.00  0.00    -0.175 NA
ATOM     14  C   UNL     1      33.862 -15.305 -24.147  0.00  0.00    +0.082 C 
ATOM     15  C   UNL     1      34.623 -16.318 -23.616  0.00  0.00    +0.093 C 
ATOM     16  C   UNL     1      32.881 -14.903 -26.425  0.00  0.00    +0.140 C 
ATOM     17  C   UNL     1      34.795 -17.223 -24.680  0.00  0.00    +0.130 C 
ENDBRANCH   8  14
ENDBRANCH   3   7
BRANCH   2  18
ATOM     18  C   UNL     1      32.251  -8.191 -22.289  0.00  0.00    +0.055 C 
BRANCH  18  19
ATOM     19  C   UNL     1      31.196  -7.729 -23.312  0.00  0.00    +0.044 C 
BRANCH  19  21
ATOM     20  F   UNL     1      34.579  -5.566 -26.095  0.00  0.00    -0.204 F 
ATOM     21  C   UNL     1      31.666  -6.571 -24.161  0.00  0.00    -0.018 C 
ATOM     22  C   UNL     1      32.931  -6.604 -24.748  0.00  0.00    +0.025 C 
ATOM     23  C   UNL     1      30.834  -5.467 -24.356  0.00  0.00    -0.004 C 
ATOM     24  C   UNL     1      33.365  -5.534 -25.530  0.00  0.00    +0.140 C 
ATOM     25  C   UNL     1      31.269  -4.398 -25.139  0.00  0.00    +0.002 C 
ATOM     26  C   UNL     1      32.534  -4.431 -25.727  0.00  0.00    +0.030 C 
ENDBRANCH  19  21
ENDBRANCH  18  19
BRANCH  18  27
ATOM     27  C   UNL     1      31.933  -7.709 -20.865  0.00  0.00    -0.066 C 
BRANCH  27  28
ATOM     28  N   UNL     1      33.095  -7.787 -19.988  0.00  0.00    +0.382 N 
ATOM     29  H   UNL     1      32.788  -7.779 -19.015  0.00  0.00    -0.089 HD
ATOM     30  H   UNL     1      33.705  -6.988 -20.159  0.00  0.00    -0.089 HD
ATOM     31  H   UNL     1      33.605  -8.651 -20.176  0.00  0.00    -0.089 HD
ENDBRANCH  27  28
ENDBRANCH  18  27
ENDBRANCH   2  18
TORSDOF 7
ENDMDL
MODEL 6
REMARK VINA RESULT:      -9.6      3.009      4.637
REMARK  Name = 46843057
REMARK  7 active torsions:
REMARK  status: ('A' for Active; 'I' for Inactive)
REMARK    1  A    between atoms: N_2  and  C_18
REMARK    2  A    between atoms: C_3  and  C_7
REMARK    3  A    between atoms: C_8  and  C_14
REMARK    4  A    between atoms: C_18  and  C_19
REMARK    5  A    between atoms: C_18  and  C_27
REMARK    6  A    between atoms: C_19  and  C_21
REMARK    7  A    between atoms: C_27  and  N_28
REMARK                            x       y       z     vdW  Elec       q    Type
REMARK                         _______ _______ _______ _____ _____    ______ ____
ROOT
ATOM      1  O   UNL     1      32.046 -12.822 -22.850  0.00  0.00    -0.270 OA
ATOM      2  N   UNL     1      34.189 -12.929 -23.728  0.00  0.00    -0.304 N 
ATOM      3  C   UNL     1      33.065 -12.272 -23.257  0.00  0.00    +0.252 C 
ATOM      4  H   UNL     1      34.959 -12.396 -24.034  0.00  0.00    +0.150 HD
ENDROOT
BRANCH   3   7
ATOM      5 CL   UNL     1      34.665  -7.081 -24.281  0.00  0.00    -0.075 Cl
ATOM      6  S   UNL     1      34.404 -10.023 -24.132  0.00  0.00    -0.071 S 
ATOM      7  C   UNL     1      33.127 -10.788 -23.288  0.00  0.00    +0.084 C 
ATOM      8  C   UNL     1      32.669  -8.532 -22.964  0.00  0.00    +0.033 C 
ATOM      9  C   UNL     1      32.270  -9.876 -22.710  0.00  0.00    +0.014 C 
ATOM     10  C   UNL     1      33.814  -8.468 -23.727  0.00  0.00    +0.088 C 
BRANCH   8  14
ATOM     11 CL   UNL     1      30.864  -6.424 -24.859  0.00  0.00    -0.079 Cl
ATOM     12  N   UNL     1      31.890  -6.906 -21.180  0.00  0.00    -0.209 N 
ATOM     13  N   UNL     1      31.156  -5.793 -21.014  0.00  0.00    -0.175 NA
ATOM     14  C   UNL     1      31.946  -7.342 -22.471  0.00  0.00    +0.082 C 
ATOM     15  C   UNL     1      31.196  -6.452 -23.200  0.00  0.00    +0.093 C 
ATOM     16  C   UNL     1      32.524  -7.510 -20.031  0.00  0.00    +0.140 C 
ATOM     17  C   UNL     1      30.735  -5.520 -22.251  0.00  0.00    +0.130 C 
ENDBRANCH   8  14
ENDBRANCH   3   7
BRANCH   2  18
ATOM     18  C   UNL     1      34.273 -14.374 -23.785  0.00  0.00    +0.055 C 
BRANCH  18  19
ATOM     19  C   UNL     1      34.332 -14.974 -22.368  0.00  0.00    +0.044 C 
BRANCH  19  21
ATOM     20  F   UNL     1      33.642 -19.405 -20.429  0.00  0.00    -0.204 F 
ATOM     21  C   UNL     1      34.562 -16.468 -22.369  0.00  0.00    -0.018 C 
ATOM     22  C   UNL     1      33.984 -17.263 -21.379  0.00  0.00    +0.025 C 
ATOM     23  C   UNL     1      35.353 -17.051 -23.359  0.00  0.00    -0.004 C 
ATOM     24  C   UNL     1      34.197 -18.641 -21.379  0.00  0.00    +0.140 C 
ATOM     25  C   UNL     1      35.566 -18.430 -23.358  0.00  0.00    +0.002 C 
ATOM     26  C   UNL     1      34.987 -19.225 -22.369  0.00  0.00    +0.030 C 
ENDBRANCH  19  21
ENDBRANCH  18  19
BRANCH  18  27
ATOM     27  C   UNL     1      33.079 -14.904 -24.594  0.00  0.00    -0.066 C 
BRANCH  27  28
ATOM     28  N   UNL     1      33.462 -15.294 -25.945  0.00  0.00    +0.382 N 
ATOM     29  H   UNL     1      34.290 -15.889 -25.907  0.00  0.00    -0.089 HD
ATOM     30  H   UNL     1      33.668 -14.460 -26.494  0.00  0.00    -0.089 HD
ATOM     31  H   UNL     1      32.695 -15.807 -26.381  0.00  0.00    -0.089 HD
ENDBRANCH  27  28
ENDBRANCH  18  27
ENDBRANCH   2  18
TORSDOF 7
ENDMDL
MODEL 7
REMARK VINA RESULT:      -9.6      4.491      9.509
REMARK  Name = 46843057
REMARK  7 active torsions:
REMARK  status: ('A' for Active; 'I' for Inactive)
REMARK    1  A    between atoms: N_2  and  C_18
REMARK    2  A    between atoms: C_3  and  C_7
REMARK    3  A    between atoms: C_8  and  C_14
REMARK    4  A    between atoms: C_18  and  C_19
REMARK    5  A    between atoms: C_18  and  C_27
REMARK    6  A    between atoms: C_19  and  C_21
REMARK    7  A    between atoms: C_27  and  N_28
REMARK                            x       y       z     vdW  Elec       q    Type
REMARK                         _______ _______ _______ _____ _____    ______ ____
ROOT
ATOM      1  O   UNL     1      33.419 -13.817 -22.375  0.00  0.00    -0.270 OA
ATOM      2  N   UNL     1      33.820 -13.870 -24.658  0.00  0.00    -0.304 N 
ATOM      3  C   UNL     1      33.745 -14.424 -23.392  0.00  0.00    +0.252 C 
ATOM      4  H   UNL     1      34.093 -14.441 -25.412  0.00  0.00    +0.150 HD
ENDROOT
BRANCH   3   7
ATOM      5 CL   UNL     1      35.032 -19.639 -24.694  0.00  0.00    -0.075 Cl
ATOM      6  S   UNL     1      34.294 -16.775 -24.727  0.00  0.00    -0.071 S 
ATOM      7  C   UNL     1      34.120 -15.858 -23.292  0.00  0.00    +0.084 C 
ATOM      8  C   UNL     1      34.696 -17.959 -22.483  0.00  0.00    +0.033 C 
ATOM      9  C   UNL     1      34.363 -16.611 -22.164  0.00  0.00    +0.014 C 
ATOM     10  C   UNL     1      34.695 -18.185 -23.842  0.00  0.00    +0.088 C 
BRANCH   8  14
ATOM     11 CL   UNL     1      32.429 -19.776 -20.794  0.00  0.00    -0.079 Cl
ATOM     12  N   UNL     1      36.249 -19.390 -21.078  0.00  0.00    -0.209 N 
ATOM     13  N   UNL     1      36.239 -20.362 -20.150  0.00  0.00    -0.175 NA
ATOM     14  C   UNL     1      35.006 -18.999 -21.480  0.00  0.00    +0.082 C 
ATOM     15  C   UNL     1      34.121 -19.768 -20.765  0.00  0.00    +0.093 C 
ATOM     16  C   UNL     1      37.516 -18.873 -21.543  0.00  0.00    +0.140 C 
ATOM     17  C   UNL     1      34.936 -20.588 -19.963  0.00  0.00    +0.130 C 
ENDBRANCH   8  14
ENDBRANCH   3   7
BRANCH   2  18
ATOM     18  C   UNL     1      33.511 -12.478 -24.912  0.00  0.00    +0.055 C 
BRANCH  18  19
ATOM     19  C   UNL     1      34.559 -11.557 -24.259  0.00  0.00    +0.044 C 
BRANCH  19  21
ATOM     20  F   UNL     1      35.069  -6.702 -24.086  0.00  0.00    -0.204 F 
ATOM     21  C   UNL     1      34.020 -10.182 -23.940  0.00  0.00    -0.018 C 
ATOM     22  C   UNL     1      34.809  -9.054 -24.165  0.00  0.00    +0.025 C 
ATOM     23  C   UNL     1      32.733 -10.042 -23.418  0.00  0.00    -0.004 C 
ATOM     24  C   UNL     1      34.312  -7.785 -23.869  0.00  0.00    +0.140 C 
ATOM     25  C   UNL     1      32.236  -8.772 -23.123  0.00  0.00    +0.002 C 
ATOM     26  C   UNL     1      33.025  -7.644 -23.349  0.00  0.00    +0.030 C 
ENDBRANCH  19  21
ENDBRANCH  18  19
BRANCH  18  27
ATOM     27  C   UNL     1      33.412 -12.264 -26.430  0.00  0.00    -0.066 C 
BRANCH  27  28
ATOM     28  N   UNL     1      33.367 -13.526 -27.159  0.00  0.00    +0.382 N 
ATOM     29  H   UNL     1      32.582 -14.085 -26.824  0.00  0.00    -0.089 HD
ATOM     30  H   UNL     1      34.237 -14.036 -27.010  0.00  0.00    -0.089 HD
ATOM     31  H   UNL     1      33.249 -13.338 -28.156  0.00  0.00    -0.089 HD
ENDBRANCH  27  28
ENDBRANCH  18  27
ENDBRANCH   2  18
TORSDOF 7
ENDMDL
MODEL 8
REMARK VINA RESULT:      -9.5      4.862      7.347
REMARK  Name = 46843057
REMARK  7 active torsions:
REMARK  status: ('A' for Active; 'I' for Inactive)
REMARK    1  A    between atoms: N_2  and  C_18
REMARK    2  A    between atoms: C_3  and  C_7
REMARK    3  A    between atoms: C_8  and  C_14
REMARK    4  A    between atoms: C_18  and  C_19
REMARK    5  A    between atoms: C_18  and  C_27
REMARK    6  A    between atoms: C_19  and  C_21
REMARK    7  A    between atoms: C_27  and  N_28
REMARK                            x       y       z     vdW  Elec       q    Type
REMARK                         _______ _______ _______ _____ _____    ______ ____
ROOT
ATOM      1  O   UNL     1      32.747 -22.355 -19.485  0.00  0.00    -0.270 OA
ATOM      2  N   UNL     1      34.428 -22.258 -17.890  0.00  0.00    -0.304 N 
ATOM      3  C   UNL     1      33.810 -21.896 -19.075  0.00  0.00    +0.252 C 
ATOM      4  H   UNL     1      35.282 -21.831 -17.649  0.00  0.00    +0.150 HD
ENDROOT
BRANCH   3   7
ATOM      5 CL   UNL     1      37.821 -18.963 -21.495  0.00  0.00    -0.075 Cl
ATOM      6  S   UNL     1      36.243 -20.899 -19.912  0.00  0.00    -0.071 S 
ATOM      7  C   UNL     1      34.531 -20.891 -19.897  0.00  0.00    +0.084 C 
ATOM      8  C   UNL     1      35.034 -19.129 -21.327  0.00  0.00    +0.033 C 
ATOM      9  C   UNL     1      34.012 -19.894 -20.696  0.00  0.00    +0.014 C 
ATOM     10  C   UNL     1      36.295 -19.568 -20.987  0.00  0.00    +0.088 C 
BRANCH   8  14
ATOM     11 CL   UNL     1      34.722 -15.914 -20.399  0.00  0.00    -0.079 Cl
ATOM     12  N   UNL     1      34.634 -18.062 -23.593  0.00  0.00    -0.209 N 
ATOM     13  N   UNL     1      34.413 -16.871 -24.175  0.00  0.00    -0.175 NA
ATOM     14  C   UNL     1      34.781 -17.994 -22.239  0.00  0.00    +0.082 C 
ATOM     15  C   UNL     1      34.646 -16.667 -21.912  0.00  0.00    +0.093 C 
ATOM     16  C   UNL     1      34.692 -19.248 -24.415  0.00  0.00    +0.140 C 
ATOM     17  C   UNL     1      34.421 -16.023 -23.143  0.00  0.00    +0.130 C 
ENDBRANCH   8  14
ENDBRANCH   3   7
BRANCH   2  18
ATOM     18  C   UNL     1      33.862 -23.244 -16.993  0.00  0.00    +0.055 C 
BRANCH  18  19
ATOM     19  C   UNL     1      34.418 -23.068 -15.567  0.00  0.00    +0.044 C 
BRANCH  19  21
ATOM     20  F   UNL     1      36.813 -27.179 -14.458  0.00  0.00    -0.204 F 
ATOM     21  C   UNL     1      35.704 -23.827 -15.338  0.00  0.00    -0.018 C 
ATOM     22  C   UNL     1      35.665 -25.179 -14.998  0.00  0.00    +0.025 C 
ATOM     23  C   UNL     1      36.931 -23.175 -15.466  0.00  0.00    -0.004 C 
ATOM     24  C   UNL     1      36.852 -25.880 -14.784  0.00  0.00    +0.140 C 
ATOM     25  C   UNL     1      38.118 -23.877 -15.254  0.00  0.00    +0.002 C 
ATOM     26  C   UNL     1      38.079 -25.229 -14.913  0.00  0.00    +0.030 C 
ENDBRANCH  19  21
ENDBRANCH  18  19
BRANCH  18  27
ATOM     27  C   UNL     1      32.331 -23.131 -17.039  0.00  0.00    -0.066 C 
BRANCH  27  28
ATOM     28  N   UNL     1      31.716 -23.491 -15.767  0.00  0.00    +0.382 N 
ATOM     29  H   UNL     1      30.888 -24.063 -15.939  0.00  0.00    -0.089 HD
ATOM     30  H   UNL     1      31.447 -22.645 -15.267  0.00  0.00    -0.089 HD
ATOM     31  H   UNL     1      32.383 -24.021 -15.205  0.00  0.00    -0.089 HD
ENDBRANCH  27  28
ENDBRANCH  18  27
ENDBRANCH   2  18
TORSDOF 7
ENDMDL
MODEL 9
REMARK VINA RESULT:      -9.5      5.293     10.888
REMARK  Name = 46843057
REMARK  7 active torsions:
REMARK  status: ('A' for Active; 'I' for Inactive)
REMARK    1  A    between atoms: N_2  and  C_18
REMARK    2  A    between atoms: C_3  and  C_7
REMARK    3  A    between atoms: C_8  and  C_14
REMARK    4  A    between atoms: C_18  and  C_19
REMARK    5  A    between atoms: C_18  and  C_27
REMARK    6  A    between atoms: C_19  and  C_21
REMARK    7  A    between atoms: C_27  and  N_28
REMARK                            x       y       z     vdW  Elec       q    Type
REMARK                         _______ _______ _______ _____ _____    ______ ____
ROOT
ATOM      1  O   UNL     1      33.478  -9.872 -24.225  0.00  0.00    -0.270 OA
ATOM      2  N   UNL     1      32.425  -9.600 -22.176  0.00  0.00    -0.304 N 
ATOM      3  C   UNL     1      32.998 -10.341 -23.196  0.00  0.00    +0.252 C 
ATOM      4  H   UNL     1      32.067 -10.071 -21.389  0.00  0.00    +0.150 HD
ENDROOT
BRANCH   3   7
ATOM      5 CL   UNL     1      32.035 -15.388 -21.159  0.00  0.00    -0.075 Cl
ATOM      6  S   UNL     1      32.141 -12.478 -21.675  0.00  0.00    -0.071 S 
ATOM      7  C   UNL     1      32.991 -11.814 -23.005  0.00  0.00    +0.084 C 
ATOM      8  C   UNL     1      33.356 -14.095 -23.259  0.00  0.00    +0.033 C 
ATOM      9  C   UNL     1      33.595 -12.788 -23.771  0.00  0.00    +0.014 C 
ATOM     10  C   UNL     1      32.579 -14.072 -22.121  0.00  0.00    +0.088 C 
BRANCH   8  14
ATOM     11 CL   UNL     1      32.857 -15.065 -26.437  0.00  0.00    -0.079 Cl
ATOM     12  N   UNL     1      34.640 -16.283 -23.250  0.00  0.00    -0.209 N 
ATOM     13  N   UNL     1      34.978 -17.312 -24.045  0.00  0.00    -0.175 NA
ATOM     14  C   UNL     1      33.877 -15.336 -23.868  0.00  0.00    +0.082 C 
ATOM     15  C   UNL     1      33.704 -15.777 -25.158  0.00  0.00    +0.093 C 
ATOM     16  C   UNL     1      35.093 -16.274 -21.878  0.00  0.00    +0.140 C 
ATOM     17  C   UNL     1      34.402 -16.998 -25.209  0.00  0.00    +0.130 C 
ENDBRANCH   8  14
ENDBRANCH   3   7
BRANCH   2  18
ATOM     18  C   UNL     1      32.334  -8.156 -22.227  0.00  0.00    +0.055 C 
BRANCH  18  19
ATOM     19  C   UNL     1      31.234  -7.713 -23.211  0.00  0.00    +0.044 C 
BRANCH  19  21
ATOM     20  F   UNL     1      30.340  -3.340 -25.198  0.00  0.00    -0.204 F 
ATOM     21  C   UNL     1      31.649  -6.542 -24.072  0.00  0.00    -0.018 C 
ATOM     22  C   UNL     1      30.786  -5.459 -24.240  0.00  0.00    +0.025 C 
ATOM     23  C   UNL     1      32.895  -6.546 -24.700  0.00  0.00    -0.004 C 
ATOM     24  C   UNL     1      31.168  -4.380 -25.037  0.00  0.00    +0.140 C 
ATOM     25  C   UNL     1      33.277  -5.466 -25.496  0.00  0.00    +0.002 C 
ATOM     26  C   UNL     1      32.414  -4.383 -25.664  0.00  0.00    +0.030 C 
ENDBRANCH  19  21
ENDBRANCH  18  19
BRANCH  18  27
ATOM     27  C   UNL     1      32.093  -7.626 -20.806  0.00  0.00    -0.066 C 
BRANCH  27  28
ATOM     28  N   UNL     1      32.710  -8.474 -19.793  0.00  0.00    +0.382 N 
ATOM     29  H   UNL     1      32.038  -8.661 -19.049  0.00  0.00    -0.089 HD
ATOM     30  H   UNL     1      33.526  -8.002 -19.405  0.00  0.00    -0.089 HD
ATOM     31  H   UNL     1      32.999  -9.356 -20.219  0.00  0.00    -0.089 HD
ENDBRANCH  27  28
ENDBRANCH  18  27
ENDBRANCH   2  18
TORSDOF 7
ENDMDL
