MODEL 1
REMARK VINA RESULT:      -7.0      0.000      0.000
REMARK  Name = 72435
REMARK  5 active torsions:
REMARK  status: ('A' for Active; 'I' for Inactive)
REMARK    1  A    between atoms: C_7  and  C_18
REMARK    2  A    between atoms: C_8  and  O_30
REMARK    3  A    between atoms: C_21  and  O_24
REMARK    4  A    between atoms: C_22  and  O_26
REMARK    5  A    between atoms: C_23  and  O_28
REMARK                            x       y       z     vdW  Elec       q    Type
REMARK                         _______ _______ _______ _____ _____    ______ ____
ROOT
ATOM      1  O   UNL     1      32.839  -7.767 -19.528  0.00  0.00    -0.448 OA
ATOM      2  O   UNL     1      32.499  -5.564 -20.063  0.00  0.00    -0.250 OA
ATOM      3  O   UNL     1      35.844  -9.613 -25.964  0.00  0.00    -0.435 OA
ATOM      4  O   UNL     1      34.649 -11.683 -25.670  0.00  0.00    -0.435 OA
ATOM      5  C   UNL     1      31.591  -8.743 -21.229  0.00  0.00    +0.086 C 
ATOM      6  C   UNL     1      31.898  -7.313 -21.648  0.00  0.00    +0.113 C 
ATOM      7  C   UNL     1      32.969  -7.143 -22.757  0.00  0.00    +0.055 C 
ATOM      8  C   UNL     1      31.510  -9.730 -22.382  0.00  0.00    +0.137 C 
ATOM      9  C   UNL     1      33.366  -8.408 -23.508  0.00  0.00    -0.016 C 
ATOM     10  C   UNL     1      32.660  -9.022 -20.195  0.00  0.00    +0.212 C 
ATOM     11  C   UNL     1      32.680  -9.634 -23.325  0.00  0.00    +0.004 C 
ATOM     12  C   UNL     1      32.421  -6.750 -20.344  0.00  0.00    +0.317 C 
ATOM     13  C   UNL     1      34.462  -8.355 -24.393  0.00  0.00    +0.036 C 
ATOM     14  C   UNL     1      33.070 -10.779 -24.044  0.00  0.00    +0.038 C 
ATOM     15  C   UNL     1      34.820  -9.499 -25.075  0.00  0.00    +0.176 C 
ATOM     16  C   UNL     1      34.140 -10.679 -24.907  0.00  0.00    +0.176 C 
ATOM     17  C   UNL     1      35.729 -11.000 -26.340  0.00  0.00    +0.429 C 
ENDROOT
BRANCH   7  18
ATOM     18  C   UNL     1      32.545  -6.017 -23.697  0.00  0.00    -0.012 C 
ATOM     19  C   UNL     1      31.614  -5.079 -23.268  0.00  0.00    +0.036 C 
ATOM     20  C   UNL     1      33.092  -5.945 -24.972  0.00  0.00    +0.036 C 
ATOM     21  C   UNL     1      32.704  -4.917 -25.830  0.00  0.00    +0.175 C 
ATOM     22  C   UNL     1      31.226  -4.051 -24.126  0.00  0.00    +0.175 C 
ATOM     23  C   UNL     1      31.771  -3.969 -25.407  0.00  0.00    +0.206 C 
BRANCH  21  24
ATOM     24  O   UNL     1      33.243  -4.849 -27.080  0.00  0.00    -0.468 OA
ATOM     25  C   UNL     1      34.653  -4.651 -27.167  0.00  0.00    +0.253 C 
ENDBRANCH  21  24
BRANCH  22  26
ATOM     26  O   UNL     1      30.315  -3.132 -23.700  0.00  0.00    -0.468 OA
ATOM     27  C   UNL     1      30.791  -2.096 -22.844  0.00  0.00    +0.253 C 
ENDBRANCH  22  26
BRANCH  23  28
ATOM     28  O   UNL     1      31.392  -2.963 -26.247  0.00  0.00    -0.465 OA
ATOM     29  C   UNL     1      32.205  -1.793 -26.261  0.00  0.00    +0.253 C 
ENDBRANCH  23  28
ENDBRANCH   7  18
BRANCH   8  30
ATOM     30  O   UNL     1      30.301  -9.478 -23.101  0.00  0.00    -0.380 OA
ATOM     31  H   UNL     1      29.556  -9.890 -22.636  0.00  0.00    +0.211 HD
ENDBRANCH   8  30
TORSDOF 5
ENDMDL
MODEL 2
REMARK VINA RESULT:      -7.0      0.037      2.234
REMARK  Name = 72435
REMARK  5 active torsions:
REMARK  status: ('A' for Active; 'I' for Inactive)
REMARK    1  A    between atoms: C_7  and  C_18
REMARK    2  A    between atoms: C_8  and  O_30
REMARK    3  A    between atoms: C_21  and  O_24
REMARK    4  A    between atoms: C_22  and  O_26
REMARK    5  A    between atoms: C_23  and  O_28
REMARK                            x       y       z     vdW  Elec       q    Type
REMARK                         _______ _______ _______ _____ _____    ______ ____
ROOT
ATOM      1  O   UNL     1      32.881  -7.737 -19.505  0.00  0.00    -0.448 OA
ATOM      2  O   UNL     1      32.540  -5.535 -20.051  0.00  0.00    -0.250 OA
ATOM      3  O   UNL     1      35.813  -9.627 -25.962  0.00  0.00    -0.435 OA
ATOM      4  O   UNL     1      34.617 -11.693 -25.643  0.00  0.00    -0.435 OA
ATOM      5  C   UNL     1      31.613  -8.719 -21.188  0.00  0.00    +0.086 C 
ATOM      6  C   UNL     1      31.919  -7.293 -21.618  0.00  0.00    +0.113 C 
ATOM      7  C   UNL     1      32.979  -7.131 -22.739  0.00  0.00    +0.055 C 
ATOM      8  C   UNL     1      31.517  -9.714 -22.334  0.00  0.00    +0.137 C 
ATOM      9  C   UNL     1      33.364  -8.402 -23.487  0.00  0.00    -0.016 C 
ATOM     10  C   UNL     1      32.692  -8.995 -20.163  0.00  0.00    +0.212 C 
ATOM     11  C   UNL     1      32.678  -9.626 -23.290  0.00  0.00    +0.004 C 
ATOM     12  C   UNL     1      32.457  -6.724 -20.324  0.00  0.00    +0.317 C 
ATOM     13  C   UNL     1      34.451  -8.357 -24.384  0.00  0.00    +0.036 C 
ATOM     14  C   UNL     1      33.057 -10.775 -24.006  0.00  0.00    +0.038 C 
ATOM     15  C   UNL     1      34.799  -9.506 -25.063  0.00  0.00    +0.176 C 
ATOM     16  C   UNL     1      34.119 -10.683 -24.881  0.00  0.00    +0.176 C 
ATOM     17  C   UNL     1      35.691 -11.016 -26.328  0.00  0.00    +0.429 C 
ENDROOT
BRANCH   7  18
ATOM     18  C   UNL     1      32.546  -6.011 -23.682  0.00  0.00    -0.012 C 
ATOM     19  C   UNL     1      33.095  -5.938 -24.956  0.00  0.00    +0.036 C 
ATOM     20  C   UNL     1      31.611  -5.077 -23.255  0.00  0.00    +0.036 C 
ATOM     21  C   UNL     1      31.217  -4.054 -24.117  0.00  0.00    +0.175 C 
ATOM     22  C   UNL     1      32.701  -4.915 -25.818  0.00  0.00    +0.175 C 
ATOM     23  C   UNL     1      31.762  -3.973 -25.399  0.00  0.00    +0.206 C 
BRANCH  21  24
ATOM     24  O   UNL     1      30.300  -3.139 -23.694  0.00  0.00    -0.468 OA
ATOM     25  C   UNL     1      30.761  -2.123 -22.806  0.00  0.00    +0.253 C 
ENDBRANCH  21  24
BRANCH  22  26
ATOM     26  O   UNL     1      33.239  -4.848 -27.068  0.00  0.00    -0.468 OA
ATOM     27  C   UNL     1      34.647  -4.638 -27.156  0.00  0.00    +0.253 C 
ENDBRANCH  22  26
BRANCH  23  28
ATOM     28  O   UNL     1      31.375  -2.973 -26.242  0.00  0.00    -0.465 OA
ATOM     29  C   UNL     1      32.164  -1.786 -26.242  0.00  0.00    +0.253 C 
ENDBRANCH  23  28
ENDBRANCH   7  18
BRANCH   8  30
ATOM     30  O   UNL     1      30.301  -9.463 -23.041  0.00  0.00    -0.380 OA
ATOM     31  H   UNL     1      30.195  -8.508 -23.171  0.00  0.00    +0.211 HD
ENDBRANCH   8  30
TORSDOF 5
ENDMDL
MODEL 3
REMARK VINA RESULT:      -6.0     15.647     19.608
REMARK  Name = 72435
REMARK  5 active torsions:
REMARK  status: ('A' for Active; 'I' for Inactive)
REMARK    1  A    between atoms: C_7  and  C_18
REMARK    2  A    between atoms: C_8  and  O_30
REMARK    3  A    between atoms: C_21  and  O_24
REMARK    4  A    between atoms: C_22  and  O_26
REMARK    5  A    between atoms: C_23  and  O_28
REMARK                            x       y       z     vdW  Elec       q    Type
REMARK                         _______ _______ _______ _____ _____    ______ ____
ROOT
ATOM      1  O   UNL     1      35.220 -20.611 -19.065  0.00  0.00    -0.448 OA
ATOM      2  O   UNL     1      37.217 -20.929 -17.984  0.00  0.00    -0.250 OA
ATOM      3  O   UNL     1      31.025 -22.989 -13.533  0.00  0.00    -0.435 OA
ATOM      4  O   UNL     1      29.658 -23.936 -15.276  0.00  0.00    -0.435 OA
ATOM      5  C   UNL     1      34.420 -22.793 -18.982  0.00  0.00    +0.086 C 
ATOM      6  C   UNL     1      35.507 -22.662 -17.925  0.00  0.00    +0.113 C 
ATOM      7  C   UNL     1      35.022 -22.603 -16.453  0.00  0.00    +0.055 C 
ATOM      8  C   UNL     1      33.303 -23.757 -18.617  0.00  0.00    +0.137 C 
ATOM      9  C   UNL     1      33.567 -22.986 -16.209  0.00  0.00    -0.016 C 
ATOM     10  C   UNL     1      34.004 -21.355 -19.209  0.00  0.00    +0.212 C 
ATOM     11  C   UNL     1      32.752 -23.525 -17.235  0.00  0.00    +0.004 C 
ATOM     12  C   UNL     1      36.111 -21.330 -18.315  0.00  0.00    +0.317 C 
ATOM     13  C   UNL     1      33.016 -22.775 -14.928  0.00  0.00    +0.036 C 
ATOM     14  C   UNL     1      31.415 -23.875 -16.969  0.00  0.00    +0.038 C 
ATOM     15  C   UNL     1      31.700 -23.123 -14.707  0.00  0.00    +0.176 C 
ATOM     16  C   UNL     1      30.921 -23.661 -15.700  0.00  0.00    +0.176 C 
ATOM     17  C   UNL     1      29.731 -23.508 -13.900  0.00  0.00    +0.429 C 
ENDROOT
BRANCH   7  18
ATOM     18  C   UNL     1      35.986 -23.397 -15.574  0.00  0.00    -0.012 C 
ATOM     19  C   UNL     1      36.591 -22.777 -14.488  0.00  0.00    +0.036 C 
ATOM     20  C   UNL     1      36.249 -24.728 -15.872  0.00  0.00    +0.036 C 
ATOM     21  C   UNL     1      37.130 -25.452 -15.068  0.00  0.00    +0.175 C 
ATOM     22  C   UNL     1      37.472 -23.501 -13.684  0.00  0.00    +0.175 C 
ATOM     23  C   UNL     1      37.741 -24.838 -13.974  0.00  0.00    +0.206 C 
BRANCH  21  24
ATOM     24  O   UNL     1      37.385 -26.758 -15.364  0.00  0.00    -0.468 OA
ATOM     25  C   UNL     1      36.439 -27.431 -16.193  0.00  0.00    +0.253 C 
ENDBRANCH  21  24
BRANCH  22  26
ATOM     26  O   UNL     1      38.061 -22.891 -12.619  0.00  0.00    -0.468 OA
ATOM     27  C   UNL     1      37.281 -22.763 -11.432  0.00  0.00    +0.253 C 
ENDBRANCH  22  26
BRANCH  23  28
ATOM     28  O   UNL     1      38.601 -25.547 -13.188  0.00  0.00    -0.465 OA
ATOM     29  C   UNL     1      39.945 -25.671 -13.648  0.00  0.00    +0.253 C 
ENDBRANCH  23  28
ENDBRANCH   7  18
BRANCH   8  30
ATOM     30  O   UNL     1      33.816 -25.087 -18.704  0.00  0.00    -0.380 OA
ATOM     31  H   UNL     1      33.884 -25.347 -19.637  0.00  0.00    +0.211 HD
ENDBRANCH   8  30
TORSDOF 5
ENDMDL
MODEL 4
REMARK VINA RESULT:      -6.0     14.223     17.785
REMARK  Name = 72435
REMARK  5 active torsions:
REMARK  status: ('A' for Active; 'I' for Inactive)
REMARK    1  A    between atoms: C_7  and  C_18
REMARK    2  A    between atoms: C_8  and  O_30
REMARK    3  A    between atoms: C_21  and  O_24
REMARK    4  A    between atoms: C_22  and  O_26
REMARK    5  A    between atoms: C_23  and  O_28
REMARK                            x       y       z     vdW  Elec       q    Type
REMARK                         _______ _______ _______ _____ _____    ______ ____
ROOT
ATOM      1  O   UNL     1      33.498 -25.704 -13.867  0.00  0.00    -0.448 OA
ATOM      2  O   UNL     1      35.143 -25.448 -15.444  0.00  0.00    -0.250 OA
ATOM      3  O   UNL     1      28.081 -23.045 -18.043  0.00  0.00    -0.435 OA
ATOM      4  O   UNL     1      27.278 -22.078 -15.988  0.00  0.00    -0.435 OA
ATOM      5  C   UNL     1      32.805 -23.490 -13.713  0.00  0.00    +0.086 C 
ATOM      6  C   UNL     1      33.560 -23.645 -15.025  0.00  0.00    +0.113 C 
ATOM      7  C   UNL     1      32.695 -23.654 -16.312  0.00  0.00    +0.055 C 
ATOM      8  C   UNL     1      31.676 -22.474 -13.756  0.00  0.00    +0.137 C 
ATOM      9  C   UNL     1      31.246 -23.206 -16.152  0.00  0.00    -0.016 C 
ATOM     10  C   UNL     1      32.401 -24.914 -13.394  0.00  0.00    +0.212 C 
ATOM     11  C   UNL     1      30.762 -22.655 -14.940  0.00  0.00    +0.004 C 
ATOM     12  C   UNL     1      34.186 -25.007 -14.824  0.00  0.00    +0.317 C 
ATOM     13  C   UNL     1      30.363 -23.369 -17.238  0.00  0.00    +0.036 C 
ATOM     14  C   UNL     1      29.421 -22.245 -14.833  0.00  0.00    +0.038 C 
ATOM     15  C   UNL     1      29.053 -22.963 -17.094  0.00  0.00    +0.176 C 
ATOM     16  C   UNL     1      28.595 -22.413 -15.923  0.00  0.00    +0.176 C 
ATOM     17  C   UNL     1      26.958 -22.481 -17.336  0.00  0.00    +0.429 C 
ENDROOT
BRANCH   7  18
ATOM     18  C   UNL     1      33.422 -22.883 -17.412  0.00  0.00    -0.012 C 
ATOM     19  C   UNL     1      34.801 -22.730 -17.345  0.00  0.00    +0.036 C 
ATOM     20  C   UNL     1      32.697 -22.344 -18.467  0.00  0.00    +0.036 C 
ATOM     21  C   UNL     1      33.361 -21.641 -19.471  0.00  0.00    +0.175 C 
ATOM     22  C   UNL     1      35.466 -22.027 -18.349  0.00  0.00    +0.175 C 
ATOM     23  C   UNL     1      34.747 -21.483 -19.412  0.00  0.00    +0.206 C 
BRANCH  21  24
ATOM     24  O   UNL     1      32.646 -21.113 -20.504  0.00  0.00    -0.468 OA
ATOM     25  C   UNL     1      32.568 -19.690 -20.576  0.00  0.00    +0.253 C 
ENDBRANCH  21  24
BRANCH  22  26
ATOM     26  O   UNL     1      36.819 -21.881 -18.280  0.00  0.00    -0.468 OA
ATOM     27  C   UNL     1      37.395 -21.784 -16.979  0.00  0.00    +0.253 C 
ENDBRANCH  22  26
BRANCH  23  28
ATOM     28  O   UNL     1      35.396 -20.796 -20.395  0.00  0.00    -0.465 OA
ATOM     29  C   UNL     1      36.292 -19.767 -19.982  0.00  0.00    +0.253 C 
ENDBRANCH  23  28
ENDBRANCH   7  18
BRANCH   8  30
ATOM     30  O   UNL     1      32.252 -21.167 -13.799  0.00  0.00    -0.380 OA
ATOM     31  H   UNL     1      33.196 -21.238 -14.012  0.00  0.00    +0.211 HD
ENDBRANCH   8  30
TORSDOF 5
ENDMDL
MODEL 5
REMARK VINA RESULT:      -6.0     15.644     19.690
REMARK  Name = 72435
REMARK  5 active torsions:
REMARK  status: ('A' for Active; 'I' for Inactive)
REMARK    1  A    between atoms: C_7  and  C_18
REMARK    2  A    between atoms: C_8  and  O_30
REMARK    3  A    between atoms: C_21  and  O_24
REMARK    4  A    between atoms: C_22  and  O_26
REMARK    5  A    between atoms: C_23  and  O_28
REMARK                            x       y       z     vdW  Elec       q    Type
REMARK                         _______ _______ _______ _____ _____    ______ ____
ROOT
ATOM      1  O   UNL     1      35.217 -20.612 -19.071  0.00  0.00    -0.448 OA
ATOM      2  O   UNL     1      37.214 -20.926 -17.988  0.00  0.00    -0.250 OA
ATOM      3  O   UNL     1      31.020 -22.987 -13.540  0.00  0.00    -0.435 OA
ATOM      4  O   UNL     1      29.656 -23.937 -15.283  0.00  0.00    -0.435 OA
ATOM      5  C   UNL     1      34.420 -22.794 -18.986  0.00  0.00    +0.086 C 
ATOM      6  C   UNL     1      35.505 -22.661 -17.929  0.00  0.00    +0.113 C 
ATOM      7  C   UNL     1      35.019 -22.601 -16.457  0.00  0.00    +0.055 C 
ATOM      8  C   UNL     1      33.303 -23.759 -18.621  0.00  0.00    +0.137 C 
ATOM      9  C   UNL     1      33.564 -22.985 -16.214  0.00  0.00    -0.016 C 
ATOM     10  C   UNL     1      34.002 -21.357 -19.216  0.00  0.00    +0.212 C 
ATOM     11  C   UNL     1      32.750 -23.525 -17.239  0.00  0.00    +0.004 C 
ATOM     12  C   UNL     1      36.109 -21.329 -18.320  0.00  0.00    +0.317 C 
ATOM     13  C   UNL     1      33.013 -22.773 -14.934  0.00  0.00    +0.036 C 
ATOM     14  C   UNL     1      31.414 -23.876 -16.974  0.00  0.00    +0.038 C 
ATOM     15  C   UNL     1      31.696 -23.122 -14.713  0.00  0.00    +0.176 C 
ATOM     16  C   UNL     1      30.919 -23.661 -15.706  0.00  0.00    +0.176 C 
ATOM     17  C   UNL     1      29.727 -23.508 -13.907  0.00  0.00    +0.429 C 
ENDROOT
BRANCH   7  18
ATOM     18  C   UNL     1      35.983 -23.393 -15.577  0.00  0.00    -0.012 C 
ATOM     19  C   UNL     1      36.245 -24.725 -15.872  0.00  0.00    +0.036 C 
ATOM     20  C   UNL     1      36.587 -22.773 -14.490  0.00  0.00    +0.036 C 
ATOM     21  C   UNL     1      37.468 -23.496 -13.687  0.00  0.00    +0.175 C 
ATOM     22  C   UNL     1      37.126 -25.448 -15.069  0.00  0.00    +0.175 C 
ATOM     23  C   UNL     1      37.738 -24.834 -13.976  0.00  0.00    +0.206 C 
BRANCH  21  24
ATOM     24  O   UNL     1      38.058 -22.884 -12.622  0.00  0.00    -0.468 OA
ATOM     25  C   UNL     1      37.284 -22.773 -11.428  0.00  0.00    +0.253 C 
ENDBRANCH  21  24
BRANCH  22  26
ATOM     26  O   UNL     1      37.382 -26.754 -15.363  0.00  0.00    -0.468 OA
ATOM     27  C   UNL     1      36.435 -27.430 -16.188  0.00  0.00    +0.253 C 
ENDBRANCH  22  26
BRANCH  23  28
ATOM     28  O   UNL     1      38.600 -25.541 -13.191  0.00  0.00    -0.465 OA
ATOM     29  C   UNL     1      39.949 -25.642 -13.640  0.00  0.00    +0.253 C 
ENDBRANCH  23  28
ENDBRANCH   7  18
BRANCH   8  30
ATOM     30  O   UNL     1      33.817 -25.089 -18.707  0.00  0.00    -0.380 OA
ATOM     31  H   UNL     1      34.203 -25.230 -19.585  0.00  0.00    +0.211 HD
ENDBRANCH   8  30
TORSDOF 5
ENDMDL
MODEL 6
REMARK VINA RESULT:      -6.0     14.229     17.758
REMARK  Name = 72435
REMARK  5 active torsions:
REMARK  status: ('A' for Active; 'I' for Inactive)
REMARK    1  A    between atoms: C_7  and  C_18
REMARK    2  A    between atoms: C_8  and  O_30
REMARK    3  A    between atoms: C_21  and  O_24
REMARK    4  A    between atoms: C_22  and  O_26
REMARK    5  A    between atoms: C_23  and  O_28
REMARK                            x       y       z     vdW  Elec       q    Type
REMARK                         _______ _______ _______ _____ _____    ______ ____
ROOT
ATOM      1  O   UNL     1      33.512 -25.695 -13.845  0.00  0.00    -0.448 OA
ATOM      2  O   UNL     1      35.155 -25.443 -15.424  0.00  0.00    -0.250 OA
ATOM      3  O   UNL     1      28.087 -23.062 -18.028  0.00  0.00    -0.435 OA
ATOM      4  O   UNL     1      27.284 -22.088 -15.977  0.00  0.00    -0.435 OA
ATOM      5  C   UNL     1      32.815 -23.482 -13.700  0.00  0.00    +0.086 C 
ATOM      6  C   UNL     1      33.569 -23.640 -15.011  0.00  0.00    +0.113 C 
ATOM      7  C   UNL     1      32.703 -23.656 -16.298  0.00  0.00    +0.055 C 
ATOM      8  C   UNL     1      31.684 -22.467 -13.746  0.00  0.00    +0.137 C 
ATOM      9  C   UNL     1      31.254 -23.211 -16.138  0.00  0.00    -0.016 C 
ATOM     10  C   UNL     1      32.414 -24.904 -13.374  0.00  0.00    +0.212 C 
ATOM     11  C   UNL     1      30.770 -22.655 -14.929  0.00  0.00    +0.004 C 
ATOM     12  C   UNL     1      34.198 -25.001 -14.805  0.00  0.00    +0.317 C 
ATOM     13  C   UNL     1      30.370 -23.379 -17.224  0.00  0.00    +0.036 C 
ATOM     14  C   UNL     1      29.428 -22.247 -14.822  0.00  0.00    +0.038 C 
ATOM     15  C   UNL     1      29.059 -22.974 -17.080  0.00  0.00    +0.176 C 
ATOM     16  C   UNL     1      28.601 -22.420 -15.911  0.00  0.00    +0.176 C 
ATOM     17  C   UNL     1      26.964 -22.496 -17.323  0.00  0.00    +0.429 C 
ENDROOT
BRANCH   7  18
ATOM     18  C   UNL     1      33.428 -22.889 -17.402  0.00  0.00    -0.012 C 
ATOM     19  C   UNL     1      32.700 -22.355 -18.457  0.00  0.00    +0.036 C 
ATOM     20  C   UNL     1      34.807 -22.736 -17.339  0.00  0.00    +0.036 C 
ATOM     21  C   UNL     1      35.469 -22.035 -18.347  0.00  0.00    +0.175 C 
ATOM     22  C   UNL     1      33.361 -21.654 -19.465  0.00  0.00    +0.175 C 
ATOM     23  C   UNL     1      34.746 -21.494 -19.410  0.00  0.00    +0.206 C 
BRANCH  21  24
ATOM     24  O   UNL     1      36.822 -21.887 -18.281  0.00  0.00    -0.468 OA
ATOM     25  C   UNL     1      37.393 -21.722 -16.984  0.00  0.00    +0.253 C 
ENDBRANCH  21  24
BRANCH  22  26
ATOM     26  O   UNL     1      32.644 -21.130 -20.498  0.00  0.00    -0.468 OA
ATOM     27  C   UNL     1      32.586 -19.708 -20.591  0.00  0.00    +0.253 C 
ENDBRANCH  22  26
BRANCH  23  28
ATOM     28  O   UNL     1      35.393 -20.808 -20.395  0.00  0.00    -0.465 OA
ATOM     29  C   UNL     1      36.299 -19.788 -19.985  0.00  0.00    +0.253 C 
ENDBRANCH  23  28
ENDBRANCH   7  18
BRANCH   8  30
ATOM     30  O   UNL     1      32.259 -21.160 -13.795  0.00  0.00    -0.380 OA
ATOM     31  H   UNL     1      31.649 -20.556 -14.247  0.00  0.00    +0.211 HD
ENDBRANCH   8  30
TORSDOF 5
ENDMDL
MODEL 7
REMARK VINA RESULT:      -5.1     16.387     19.325
REMARK  Name = 72435
REMARK  5 active torsions:
REMARK  status: ('A' for Active; 'I' for Inactive)
REMARK    1  A    between atoms: C_7  and  C_18
REMARK    2  A    between atoms: C_8  and  O_30
REMARK    3  A    between atoms: C_21  and  O_24
REMARK    4  A    between atoms: C_22  and  O_26
REMARK    5  A    between atoms: C_23  and  O_28
REMARK                            x       y       z     vdW  Elec       q    Type
REMARK                         _______ _______ _______ _____ _____    ______ ____
ROOT
ATOM      1  O   UNL     1      35.244 -22.575 -19.955  0.00  0.00    -0.448 OA
ATOM      2  O   UNL     1      33.076 -22.732 -19.224  0.00  0.00    -0.250 OA
ATOM      3  O   UNL     1      38.145 -26.424 -14.421  0.00  0.00    -0.435 OA
ATOM      4  O   UNL     1      39.966 -24.856 -14.585  0.00  0.00    -0.435 OA
ATOM      5  C   UNL     1      36.172 -21.537 -18.092  0.00  0.00    +0.086 C 
ATOM      6  C   UNL     1      34.855 -22.162 -17.660  0.00  0.00    +0.113 C 
ATOM      7  C   UNL     1      34.960 -23.444 -16.793  0.00  0.00    +0.055 C 
ATOM      8  C   UNL     1      37.241 -21.515 -17.012  0.00  0.00    +0.137 C 
ATOM      9  C   UNL     1      36.339 -23.756 -16.221  0.00  0.00    -0.016 C 
ATOM     10  C   UNL     1      36.514 -22.317 -19.344  0.00  0.00    +0.212 C 
ATOM     11  C   UNL     1      37.419 -22.847 -16.332  0.00  0.00    +0.004 C 
ATOM     12  C   UNL     1      34.258 -22.507 -19.007  0.00  0.00    +0.317 C 
ATOM     13  C   UNL     1      36.542 -24.998 -15.585  0.00  0.00    +0.036 C 
ATOM     14  C   UNL     1      38.674 -23.167 -15.783  0.00  0.00    +0.038 C 
ATOM     15  C   UNL     1      37.789 -25.280 -15.066  0.00  0.00    +0.176 C 
ATOM     16  C   UNL     1      38.826 -24.388 -15.160  0.00  0.00    +0.176 C 
ATOM     17  C   UNL     1      39.527 -26.148 -14.116  0.00  0.00    +0.429 C 
ENDROOT
BRANCH   7  18
ATOM     18  C   UNL     1      33.878 -23.413 -15.716  0.00  0.00    -0.012 C 
ATOM     19  C   UNL     1      34.221 -23.662 -14.393  0.00  0.00    +0.036 C 
ATOM     20  C   UNL     1      32.564 -23.139 -16.071  0.00  0.00    +0.036 C 
ATOM     21  C   UNL     1      31.577 -23.111 -15.087  0.00  0.00    +0.175 C 
ATOM     22  C   UNL     1      33.234 -23.634 -13.408  0.00  0.00    +0.175 C 
ATOM     23  C   UNL     1      31.911 -23.358 -13.755  0.00  0.00    +0.206 C 
BRANCH  21  24
ATOM     24  O   UNL     1      30.288 -22.841 -15.440  0.00  0.00    -0.468 OA
ATOM     25  C   UNL     1      29.597 -23.843 -16.184  0.00  0.00    +0.253 C 
ENDBRANCH  21  24
BRANCH  22  26
ATOM     26  O   UNL     1      33.574 -23.877 -12.112  0.00  0.00    -0.468 OA
ATOM     27  C   UNL     1      34.951 -24.128 -11.839  0.00  0.00    +0.253 C 
ENDBRANCH  22  26
BRANCH  23  28
ATOM     28  O   UNL     1      30.945 -23.330 -12.793  0.00  0.00    -0.465 OA
ATOM     29  C   UNL     1      30.154 -24.504 -12.636  0.00  0.00    +0.253 C 
ENDBRANCH  23  28
ENDBRANCH   7  18
BRANCH   8  30
ATOM     30  O   UNL     1      36.873 -20.534 -16.040  0.00  0.00    -0.380 OA
ATOM     31  H   UNL     1      35.997 -20.178 -16.256  0.00  0.00    +0.211 HD
ENDBRANCH   8  30
TORSDOF 5
ENDMDL
MODEL 8
REMARK VINA RESULT:      -5.1     16.390     19.322
REMARK  Name = 72435
REMARK  5 active torsions:
REMARK  status: ('A' for Active; 'I' for Inactive)
REMARK    1  A    between atoms: C_7  and  C_18
REMARK    2  A    between atoms: C_8  and  O_30
REMARK    3  A    between atoms: C_21  and  O_24
REMARK    4  A    between atoms: C_22  and  O_26
REMARK    5  A    between atoms: C_23  and  O_28
REMARK                            x       y       z     vdW  Elec       q    Type
REMARK                         _______ _______ _______ _____ _____    ______ ____
ROOT
ATOM      1  O   UNL     1      35.246 -22.571 -19.939  0.00  0.00    -0.448 OA
ATOM      2  O   UNL     1      33.081 -22.728 -19.198  0.00  0.00    -0.250 OA
ATOM      3  O   UNL     1      38.173 -26.421 -14.420  0.00  0.00    -0.435 OA
ATOM      4  O   UNL     1      39.993 -24.853 -14.592  0.00  0.00    -0.435 OA
ATOM      5  C   UNL     1      36.182 -21.533 -18.081  0.00  0.00    +0.086 C 
ATOM      6  C   UNL     1      34.867 -22.158 -17.643  0.00  0.00    +0.113 C 
ATOM      7  C   UNL     1      34.977 -23.440 -16.776  0.00  0.00    +0.055 C 
ATOM      8  C   UNL     1      37.256 -21.512 -17.006  0.00  0.00    +0.137 C 
ATOM      9  C   UNL     1      36.358 -23.753 -16.211  0.00  0.00    -0.016 C 
ATOM     10  C   UNL     1      36.518 -22.313 -19.335  0.00  0.00    +0.212 C 
ATOM     11  C   UNL     1      37.438 -22.844 -16.327  0.00  0.00    +0.004 C 
ATOM     12  C   UNL     1      34.264 -22.503 -18.987  0.00  0.00    +0.317 C 
ATOM     13  C   UNL     1      36.564 -24.995 -15.576  0.00  0.00    +0.036 C 
ATOM     14  C   UNL     1      38.695 -23.164 -15.784  0.00  0.00    +0.038 C 
ATOM     15  C   UNL     1      37.813 -25.277 -15.063  0.00  0.00    +0.176 C 
ATOM     16  C   UNL     1      38.850 -24.385 -15.162  0.00  0.00    +0.176 C 
ATOM     17  C   UNL     1      39.556 -26.145 -14.121  0.00  0.00    +0.429 C 
ENDROOT
BRANCH   7  18
ATOM     18  C   UNL     1      33.900 -23.410 -15.694  0.00  0.00    -0.012 C 
ATOM     19  C   UNL     1      32.586 -23.121 -16.043  0.00  0.00    +0.036 C 
ATOM     20  C   UNL     1      34.245 -23.670 -14.374  0.00  0.00    +0.036 C 
ATOM     21  C   UNL     1      33.261 -23.642 -13.387  0.00  0.00    +0.175 C 
ATOM     22  C   UNL     1      31.602 -23.094 -15.056  0.00  0.00    +0.175 C 
ATOM     23  C   UNL     1      31.939 -23.354 -13.727  0.00  0.00    +0.206 C 
BRANCH  21  24
ATOM     24  O   UNL     1      33.604 -23.897 -12.093  0.00  0.00    -0.468 OA
ATOM     25  C   UNL     1      34.990 -24.096 -11.818  0.00  0.00    +0.253 C 
ENDBRANCH  21  24
BRANCH  22  26
ATOM     26  O   UNL     1      30.314 -22.812 -15.401  0.00  0.00    -0.468 OA
ATOM     27  C   UNL     1      29.633 -23.775 -16.202  0.00  0.00    +0.253 C 
ENDBRANCH  22  26
BRANCH  23  28
ATOM     28  O   UNL     1      30.976 -23.328 -12.762  0.00  0.00    -0.465 OA
ATOM     29  C   UNL     1      30.174 -24.497 -12.617  0.00  0.00    +0.253 C 
ENDBRANCH  23  28
ENDBRANCH   7  18
BRANCH   8  30
ATOM     30  O   UNL     1      36.893 -20.530 -16.033  0.00  0.00    -0.380 OA
ATOM     31  H   UNL     1      36.078 -20.806 -15.584  0.00  0.00    +0.211 HD
ENDBRANCH   8  30
TORSDOF 5
ENDMDL
