MODEL 1
REMARK VINA RESULT:      -8.5      0.000      0.000
REMARK  Name = 5311052
REMARK  4 active torsions:
REMARK  status: ('A' for Active; 'I' for Inactive)
REMARK    1  A    between atoms: C_8  and  C_27
REMARK    2  A    between atoms: C_12  and  O_24
REMARK    3  A    between atoms: C_27  and  C_28
REMARK    4  A    between atoms: C_28  and  O_29
REMARK                            x       y       z     vdW  Elec       q    Type
REMARK                         _______ _______ _______ _____ _____    ______ ____
ROOT
ATOM      1 CL   UNL     1      35.880 -25.965 -15.108  0.00  0.00    -0.113 Cl
ATOM      2  F   UNL     1      37.933 -22.375 -17.058  0.00  0.00    -0.233 F 
ATOM      3  O   UNL     1      40.813 -25.798 -15.043  0.00  0.00    -0.287 OA
ATOM      4  C   UNL     1      32.742 -23.966 -13.999  0.00  0.00    +0.009 C 
ATOM      5  C   UNL     1      33.612 -23.717 -15.249  0.00  0.00    +0.002 C 
ATOM      6  C   UNL     1      35.054 -23.304 -14.909  0.00  0.00    +0.020 C 
ATOM      7  C   UNL     1      35.770 -24.428 -14.057  0.00  0.00    +0.098 C 
ATOM      8  C   UNL     1      31.421 -24.361 -14.710  0.00  0.00    +0.060 C 
ATOM      9  C   UNL     1      32.743 -22.801 -16.107  0.00  0.00    +0.000 C 
ATOM     10  C   UNL     1      33.383 -25.100 -13.176  0.00  0.00    +0.031 C 
ATOM     11  C   UNL     1      31.309 -23.345 -15.882  0.00  0.00    +0.007 C 
ATOM     12  C   UNL     1      34.877 -24.861 -12.837  0.00  0.00    +0.125 C 
ATOM     13  C   UNL     1      37.272 -24.001 -13.714  0.00  0.00    +0.051 C 
ATOM     14  C   UNL     1      35.850 -22.936 -16.173  0.00  0.00    +0.041 C 
ATOM     15  C   UNL     1      32.537 -22.709 -13.113  0.00  0.00    +0.001 C 
ATOM     16  C   UNL     1      37.298 -22.570 -15.864  0.00  0.00    +0.180 C 
ATOM     17  C   UNL     1      37.978 -23.630 -15.030  0.00  0.00    -0.005 C 
ATOM     18  C   UNL     1      30.739 -23.999 -17.137  0.00  0.00    +0.000 C 
ATOM     19  C   UNL     1      37.382 -22.769 -12.781  0.00  0.00    +0.010 C 
ATOM     20  C   UNL     1      38.004 -25.117 -12.980  0.00  0.00    -0.018 C 
ATOM     21  C   UNL     1      39.112 -24.215 -15.447  0.00  0.00    +0.036 C 
ATOM     22  C   UNL     1      39.134 -25.698 -13.396  0.00  0.00    +0.038 C 
ATOM     23  C   UNL     1      39.771 -25.279 -14.658  0.00  0.00    +0.195 C 
ENDROOT
BRANCH  12  24
ATOM     24  O   UNL     1      34.945 -23.892 -11.796  0.00  0.00    -0.383 OA
ATOM     25  H   UNL     1      35.238 -23.043 -12.163  0.00  0.00    +0.210 HD
ENDBRANCH  12  24
BRANCH   8  27
ATOM     26  O   UNL     1      30.337 -24.206 -12.594  0.00  0.00    -0.293 OA
ATOM     27  C   UNL     1      30.222 -24.334 -13.813  0.00  0.00    +0.180 C 
BRANCH  27  28
ATOM     28  C   UNL     1      28.875 -24.472 -14.489  0.00  0.00    +0.202 C 
BRANCH  28  29
ATOM     29  O   UNL     1      28.326 -25.750 -14.253  0.00  0.00    -0.375 OA
ATOM     30  H   UNL     1      28.879 -26.228 -13.617  0.00  0.00    +0.211 HD
ENDBRANCH  28  29
ENDBRANCH  27  28
ENDBRANCH   8  27
TORSDOF 4
ENDMDL
MODEL 2
REMARK VINA RESULT:      -7.5     18.955     20.590
REMARK  Name = 5311052
REMARK  4 active torsions:
REMARK  status: ('A' for Active; 'I' for Inactive)
REMARK    1  A    between atoms: C_8  and  C_27
REMARK    2  A    between atoms: C_12  and  O_24
REMARK    3  A    between atoms: C_27  and  C_28
REMARK    4  A    between atoms: C_28  and  O_29
REMARK                            x       y       z     vdW  Elec       q    Type
REMARK                         _______ _______ _______ _____ _____    ______ ____
ROOT
ATOM      1 CL   UNL     1      30.876  -8.353 -24.505  0.00  0.00    -0.113 Cl
ATOM      2  F   UNL     1      35.319  -9.423 -24.651  0.00  0.00    -0.233 F 
ATOM      3  O   UNL     1      32.281 -12.679 -22.590  0.00  0.00    -0.287 OA
ATOM      4  C   UNL     1      31.485  -4.531 -24.191  0.00  0.00    +0.009 C 
ATOM      5  C   UNL     1      32.366  -5.557 -24.935  0.00  0.00    +0.002 C 
ATOM      6  C   UNL     1      32.994  -6.604 -24.000  0.00  0.00    +0.020 C 
ATOM      7  C   UNL     1      31.872  -7.417 -23.237  0.00  0.00    +0.098 C 
ATOM      8  C   UNL     1      31.032  -3.687 -25.410  0.00  0.00    +0.060 C 
ATOM      9  C   UNL     1      33.263  -4.685 -25.809  0.00  0.00    +0.000 C 
ATOM     10  C   UNL     1      30.345  -5.289 -23.484  0.00  0.00    +0.031 C 
ATOM     11  C   UNL     1      32.323  -3.539 -26.264  0.00  0.00    +0.007 C 
ATOM     12  C   UNL     1      30.831  -6.445 -22.572  0.00  0.00    +0.125 C 
ATOM     13  C   UNL     1      32.529  -8.511 -22.274  0.00  0.00    +0.051 C 
ATOM     14  C   UNL     1      33.968  -7.526 -24.756  0.00  0.00    +0.041 C 
ATOM     15  C   UNL     1      32.262  -3.656 -23.172  0.00  0.00    +0.001 C 
ATOM     16  C   UNL     1      34.567  -8.603 -23.858  0.00  0.00    +0.180 C 
ATOM     17  C   UNL     1      33.499  -9.365 -23.108  0.00  0.00    -0.005 C 
ATOM     18  C   UNL     1      32.016  -3.606 -27.757  0.00  0.00    +0.000 C 
ATOM     19  C   UNL     1      33.349  -7.914 -21.103  0.00  0.00    +0.010 C 
ATOM     20  C   UNL     1      31.459  -9.368 -21.609  0.00  0.00    -0.018 C 
ATOM     21  C   UNL     1      33.408 -10.701 -23.204  0.00  0.00    +0.036 C 
ATOM     22  C   UNL     1      31.370 -10.698 -21.704  0.00  0.00    +0.038 C 
ATOM     23  C   UNL     1      32.348 -11.458 -22.504  0.00  0.00    +0.195 C 
ENDROOT
BRANCH  12  24
ATOM     24  O   UNL     1      31.364  -5.874 -21.381  0.00  0.00    -0.383 OA
ATOM     25  H   UNL     1      32.293  -5.633 -21.527  0.00  0.00    +0.210 HD
ENDBRANCH  12  24
BRANCH   8  27
ATOM     26  O   UNL     1      30.758  -1.786 -24.001  0.00  0.00    -0.293 OA
ATOM     27  C   UNL     1      30.436  -2.363 -25.039  0.00  0.00    +0.180 C 
BRANCH  27  28
ATOM     28  C   UNL     1      29.428  -1.786 -26.009  0.00  0.00    +0.202 C 
BRANCH  28  29
ATOM     29  O   UNL     1      28.131  -1.810 -25.454  0.00  0.00    -0.375 OA
ATOM     30  H   UNL     1      27.541  -1.253 -25.985  0.00  0.00    +0.211 HD
ENDBRANCH  28  29
ENDBRANCH  27  28
ENDBRANCH   8  27
TORSDOF 4
ENDMDL
MODEL 3
REMARK VINA RESULT:      -5.8     10.366     12.136
REMARK  Name = 5311052
REMARK  4 active torsions:
REMARK  status: ('A' for Active; 'I' for Inactive)
REMARK    1  A    between atoms: C_8  and  C_27
REMARK    2  A    between atoms: C_12  and  O_24
REMARK    3  A    between atoms: C_27  and  C_28
REMARK    4  A    between atoms: C_28  and  O_29
REMARK                            x       y       z     vdW  Elec       q    Type
REMARK                         _______ _______ _______ _____ _____    ______ ____
ROOT
ATOM      1 CL   UNL     1      35.571 -16.728 -20.500  0.00  0.00    -0.113 Cl
ATOM      2  F   UNL     1      31.986 -19.482 -19.816  0.00  0.00    -0.233 F 
ATOM      3  O   UNL     1      36.458 -21.401 -19.185  0.00  0.00    -0.287 OA
ATOM      4  C   UNL     1      33.816 -14.605 -23.237  0.00  0.00    +0.009 C 
ATOM      5  C   UNL     1      33.153 -15.301 -22.029  0.00  0.00    +0.002 C 
ATOM      6  C   UNL     1      33.268 -16.834 -22.077  0.00  0.00    +0.020 C 
ATOM      7  C   UNL     1      34.786 -17.279 -22.099  0.00  0.00    +0.098 C 
ATOM      8  C   UNL     1      33.524 -13.133 -22.846  0.00  0.00    +0.060 C 
ATOM      9  C   UNL     1      31.777 -14.645 -21.956  0.00  0.00    +0.000 C 
ATOM     10  C   UNL     1      35.312 -14.974 -23.251  0.00  0.00    +0.031 C 
ATOM     11  C   UNL     1      32.058 -13.167 -22.328  0.00  0.00    +0.007 C 
ATOM     12  C   UNL     1      35.583 -16.499 -23.207  0.00  0.00    +0.125 C 
ATOM     13  C   UNL     1      34.902 -18.873 -22.138  0.00  0.00    +0.051 C 
ATOM     14  C   UNL     1      32.484 -17.496 -20.931  0.00  0.00    +0.041 C 
ATOM     15  C   UNL     1      33.164 -14.953 -24.601  0.00  0.00    +0.001 C 
ATOM     16  C   UNL     1      32.623 -19.014 -20.930  0.00  0.00    +0.180 C 
ATOM     17  C   UNL     1      34.071 -19.444 -20.976  0.00  0.00    -0.005 C 
ATOM     18  C   UNL     1      31.862 -12.228 -21.142  0.00  0.00    +0.000 C 
ATOM     19  C   UNL     1      34.358 -19.516 -23.439  0.00  0.00    +0.010 C 
ATOM     20  C   UNL     1      36.357 -19.318 -22.058  0.00  0.00    -0.018 C 
ATOM     21  C   UNL     1      34.581 -20.252 -20.033  0.00  0.00    +0.036 C 
ATOM     22  C   UNL     1      36.864 -20.123 -21.120  0.00  0.00    +0.038 C 
ATOM     23  C   UNL     1      36.005 -20.654 -20.045  0.00  0.00    +0.195 C 
ENDROOT
BRANCH  12  24
ATOM     24  O   UNL     1      35.306 -17.035 -24.497  0.00  0.00    -0.383 OA
ATOM     25  H   UNL     1      34.629 -17.726 -24.421  0.00  0.00    +0.210 HD
ENDBRANCH  12  24
BRANCH   8  27
ATOM     26  O   UNL     1      33.757 -12.540 -25.141  0.00  0.00    -0.293 OA
ATOM     27  C   UNL     1      33.711 -12.162 -23.971  0.00  0.00    +0.180 C 
BRANCH  27  28
ATOM     28  C   UNL     1      33.837 -10.704 -23.584  0.00  0.00    +0.202 C 
BRANCH  28  29
ATOM     29  O   UNL     1      35.105 -10.200 -23.944  0.00  0.00    -0.375 OA
ATOM     30  H   UNL     1      35.665 -10.926 -24.261  0.00  0.00    +0.211 HD
ENDBRANCH  28  29
ENDBRANCH  27  28
ENDBRANCH   8  27
TORSDOF 4
ENDMDL
MODEL 4
REMARK VINA RESULT:      -5.8     14.956     17.032
REMARK  Name = 5311052
REMARK  4 active torsions:
REMARK  status: ('A' for Active; 'I' for Inactive)
REMARK    1  A    between atoms: C_8  and  C_27
REMARK    2  A    between atoms: C_12  and  O_24
REMARK    3  A    between atoms: C_27  and  C_28
REMARK    4  A    between atoms: C_28  and  O_29
REMARK                            x       y       z     vdW  Elec       q    Type
REMARK                         _______ _______ _______ _____ _____    ______ ____
ROOT
ATOM      1 CL   UNL     1      30.527  -9.762 -23.101  0.00  0.00    -0.113 Cl
ATOM      2  F   UNL     1      31.840  -7.971 -19.104  0.00  0.00    -0.233 F 
ATOM      3  O   UNL     1      29.984  -4.900 -22.450  0.00  0.00    -0.287 OA
ATOM      4  C   UNL     1      33.215 -12.564 -23.085  0.00  0.00    +0.009 C 
ATOM      5  C   UNL     1      32.521 -11.931 -21.861  0.00  0.00    +0.002 C 
ATOM      6  C   UNL     1      32.841 -10.437 -21.690  0.00  0.00    +0.020 C 
ATOM      7  C   UNL     1      32.381  -9.619 -22.963  0.00  0.00    +0.098 C 
ATOM      8  C   UNL     1      32.664 -14.007 -22.944  0.00  0.00    +0.060 C 
ATOM      9  C   UNL     1      32.837 -12.909 -20.731  0.00  0.00    +0.000 C 
ATOM     10  C   UNL     1      32.740 -11.825 -24.350  0.00  0.00    +0.031 C 
ATOM     11  C   UNL     1      32.758 -14.296 -21.418  0.00  0.00    +0.007 C 
ATOM     12  C   UNL     1      32.916 -10.286 -24.282  0.00  0.00    +0.125 C 
ATOM     13  C   UNL     1      32.707  -8.065 -22.778  0.00  0.00    +0.051 C 
ATOM     14  C   UNL     1      32.242  -9.875 -20.389  0.00  0.00    +0.041 C 
ATOM     15  C   UNL     1      34.764 -12.555 -23.006  0.00  0.00    +0.001 C 
ATOM     16  C   UNL     1      32.507  -8.382 -20.223  0.00  0.00    +0.180 C 
ATOM     17  C   UNL     1      32.091  -7.600 -21.447  0.00  0.00    -0.005 C 
ATOM     18  C   UNL     1      31.565 -15.112 -20.929  0.00  0.00    +0.000 C 
ATOM     19  C   UNL     1      34.220  -7.737 -22.713  0.00  0.00    +0.010 C 
ATOM     20  C   UNL     1      32.178  -7.251 -23.954  0.00  0.00    -0.018 C 
ATOM     21  C   UNL     1      31.217  -6.585 -21.354  0.00  0.00    +0.036 C 
ATOM     22  C   UNL     1      31.309  -6.241 -23.860  0.00  0.00    +0.038 C 
ATOM     23  C   UNL     1      30.775  -5.832 -22.548  0.00  0.00    +0.195 C 
ENDROOT
BRANCH  12  24
ATOM     24  O   UNL     1      34.297  -9.991 -24.471  0.00  0.00    -0.383 OA
ATOM     25  H   UNL     1      34.595  -9.383 -23.776  0.00  0.00    +0.210 HD
ENDBRANCH  12  24
BRANCH   8  27
ATOM     26  O   UNL     1      33.265 -15.079 -24.985  0.00  0.00    -0.293 OA
ATOM     27  C   UNL     1      33.405 -15.019 -23.763  0.00  0.00    +0.180 C 
BRANCH  27  28
ATOM     28  C   UNL     1      34.326 -15.951 -23.007  0.00  0.00    +0.202 C 
BRANCH  28  29
ATOM     29  O   UNL     1      35.598 -16.001 -23.617  0.00  0.00    -0.375 OA
ATOM     30  H   UNL     1      35.956 -16.899 -23.547  0.00  0.00    +0.211 HD
ENDBRANCH  28  29
ENDBRANCH  27  28
ENDBRANCH   8  27
TORSDOF 4
ENDMDL
