MODEL 1
REMARK VINA RESULT:      -9.0      0.000      0.000
REMARK  Name = 8361
REMARK  4 active torsions:
REMARK  status: ('A' for Active; 'I' for Inactive)
REMARK    1  A    between atoms: C_2  and  C_3
REMARK    2  A    between atoms: C_2  and  O_11
REMARK    3  A    between atoms: C_4  and  O_9
REMARK    4  A    between atoms: O_11  and  C_12
REMARK                            x       y       z     vdW  Elec       q    Type
REMARK                         _______ _______ _______ _____ _____    ______ ____
ROOT
ATOM      1  O   UNL     1      35.345 -16.779 -20.200  0.00  0.00    -0.244 OA
ATOM      2  C   UNL     1      34.714 -16.878 -21.260  0.00  0.00    +0.349 C 
ENDROOT
BRANCH   2   3
ATOM      3  C   UNL     1      34.058 -15.765 -21.933  0.00  0.00    +0.110 C 
ATOM      4  C   UNL     1      34.500 -15.322 -23.180  0.00  0.00    +0.140 C 
ATOM      5  C   UNL     1      32.976 -15.140 -21.314  0.00  0.00    +0.010 C 
ATOM      6  C   UNL     1      33.858 -14.254 -23.808  0.00  0.00    +0.037 C 
ATOM      7  C   UNL     1      32.335 -14.072 -21.941  0.00  0.00    +0.000 C 
ATOM      8  C   UNL     1      32.777 -13.629 -23.188  0.00  0.00    +0.003 C 
BRANCH   4   9
ATOM      9  O   UNL     1      35.556 -15.919 -23.801  0.00  0.00    -0.505 OA
ATOM     10  H   UNL     1      35.584 -15.965 -24.737  0.00  0.00    +0.292 HD
ENDBRANCH   4   9
ENDBRANCH   2   3
BRANCH   2  11
ATOM     11  O   UNL     1      34.545 -18.062 -21.974  0.00  0.00    -0.421 OA
BRANCH  11  12
ATOM     12  C   UNL     1      34.428 -19.200 -21.172  0.00  0.00    +0.149 C 
ATOM     13  C   UNL     1      35.568 -19.898 -20.843  0.00  0.00    +0.038 C 
ATOM     14  C   UNL     1      33.176 -19.579 -20.741  0.00  0.00    +0.038 C 
ATOM     15  C   UNL     1      35.452 -21.034 -20.043  0.00  0.00    +0.003 C 
ATOM     16  C   UNL     1      33.059 -20.716 -19.941  0.00  0.00    +0.003 C 
ATOM     17  C   UNL     1      34.197 -21.443 -19.592  0.00  0.00    +0.000 C 
ENDBRANCH  11  12
ENDBRANCH   2  11
TORSDOF 4
ENDMDL
MODEL 2
REMARK VINA RESULT:      -8.9      1.533      2.469
REMARK  Name = 8361
REMARK  4 active torsions:
REMARK  status: ('A' for Active; 'I' for Inactive)
REMARK    1  A    between atoms: C_2  and  C_3
REMARK    2  A    between atoms: C_2  and  O_11
REMARK    3  A    between atoms: C_4  and  O_9
REMARK    4  A    between atoms: O_11  and  C_12
REMARK                            x       y       z     vdW  Elec       q    Type
REMARK                         _______ _______ _______ _____ _____    ______ ____
ROOT
ATOM      1  O   UNL     1      35.316 -16.897 -20.470  0.00  0.00    -0.244 OA
ATOM      2  C   UNL     1      35.350 -17.556 -21.518  0.00  0.00    +0.349 C 
ENDROOT
BRANCH   2   3
ATOM      3  C   UNL     1      34.891 -17.069 -22.811  0.00  0.00    +0.110 C 
ATOM      4  C   UNL     1      34.334 -15.797 -22.940  0.00  0.00    +0.140 C 
ATOM      5  C   UNL     1      35.015 -17.893 -23.930  0.00  0.00    +0.010 C 
ATOM      6  C   UNL     1      33.900 -15.349 -24.188  0.00  0.00    +0.037 C 
ATOM      7  C   UNL     1      34.581 -17.446 -25.177  0.00  0.00    +0.000 C 
ATOM      8  C   UNL     1      34.023 -16.173 -25.306  0.00  0.00    +0.003 C 
BRANCH   4   9
ATOM      9  O   UNL     1      34.203 -14.977 -21.859  0.00  0.00    -0.505 OA
ATOM     10  H   UNL     1      33.350 -14.722 -21.565  0.00  0.00    +0.292 HD
ENDBRANCH   4   9
ENDBRANCH   2   3
BRANCH   2  11
ATOM     11  O   UNL     1      35.842 -18.856 -21.620  0.00  0.00    -0.421 OA
BRANCH  11  12
ATOM     12  C   UNL     1      35.137 -19.794 -20.860  0.00  0.00    +0.149 C 
ATOM     13  C   UNL     1      33.761 -19.765 -20.883  0.00  0.00    +0.038 C 
ATOM     14  C   UNL     1      35.848 -20.710 -20.117  0.00  0.00    +0.038 C 
ATOM     15  C   UNL     1      33.059 -20.701 -20.124  0.00  0.00    +0.003 C 
ATOM     16  C   UNL     1      35.147 -21.646 -19.358  0.00  0.00    +0.003 C 
ATOM     17  C   UNL     1      33.752 -21.641 -19.362  0.00  0.00    +0.000 C 
ENDBRANCH  11  12
ENDBRANCH   2  11
TORSDOF 4
ENDMDL
MODEL 3
REMARK VINA RESULT:      -8.7      1.274      1.774
REMARK  Name = 8361
REMARK  4 active torsions:
REMARK  status: ('A' for Active; 'I' for Inactive)
REMARK    1  A    between atoms: C_2  and  C_3
REMARK    2  A    between atoms: C_2  and  O_11
REMARK    3  A    between atoms: C_4  and  O_9
REMARK    4  A    between atoms: O_11  and  C_12
REMARK                            x       y       z     vdW  Elec       q    Type
REMARK                         _______ _______ _______ _____ _____    ______ ____
ROOT
ATOM      1  O   UNL     1      35.231 -19.134 -23.392  0.00  0.00    -0.244 OA
ATOM      2  C   UNL     1      35.397 -18.416 -22.398  0.00  0.00    +0.349 C 
ENDROOT
BRANCH   2   3
ATOM      3  C   UNL     1      35.016 -17.012 -22.325  0.00  0.00    +0.110 C 
ATOM      4  C   UNL     1      34.922 -16.236 -23.480  0.00  0.00    +0.140 C 
ATOM      5  C   UNL     1      34.743 -16.446 -21.079  0.00  0.00    +0.010 C 
ATOM      6  C   UNL     1      34.555 -14.892 -23.388  0.00  0.00    +0.037 C 
ATOM      7  C   UNL     1      34.377 -15.104 -20.988  0.00  0.00    +0.000 C 
ATOM      8  C   UNL     1      34.283 -14.326 -22.143  0.00  0.00    +0.003 C 
BRANCH   4   9
ATOM      9  O   UNL     1      35.185 -16.769 -24.706  0.00  0.00    -0.505 OA
ATOM     10  H   UNL     1      36.071 -16.934 -24.965  0.00  0.00    +0.292 HD
ENDBRANCH   4   9
ENDBRANCH   2   3
BRANCH   2  11
ATOM     11  O   UNL     1      35.962 -18.842 -21.198  0.00  0.00    -0.421 OA
BRANCH  11  12
ATOM     12  C   UNL     1      35.277 -19.896 -20.587  0.00  0.00    +0.149 C 
ATOM     13  C   UNL     1      36.005 -20.900 -19.989  0.00  0.00    +0.038 C 
ATOM     14  C   UNL     1      33.901 -19.889 -20.608  0.00  0.00    +0.038 C 
ATOM     15  C   UNL     1      35.322 -21.952 -19.381  0.00  0.00    +0.003 C 
ATOM     16  C   UNL     1      33.216 -20.941 -20.000  0.00  0.00    +0.003 C 
ATOM     17  C   UNL     1      33.927 -21.972 -19.386  0.00  0.00    +0.000 C 
ENDBRANCH  11  12
ENDBRANCH   2  11
TORSDOF 4
ENDMDL
MODEL 4
REMARK VINA RESULT:      -8.6      0.823      2.088
REMARK  Name = 8361
REMARK  4 active torsions:
REMARK  status: ('A' for Active; 'I' for Inactive)
REMARK    1  A    between atoms: C_2  and  C_3
REMARK    2  A    between atoms: C_2  and  O_11
REMARK    3  A    between atoms: C_4  and  O_9
REMARK    4  A    between atoms: O_11  and  C_12
REMARK                            x       y       z     vdW  Elec       q    Type
REMARK                         _______ _______ _______ _____ _____    ______ ____
ROOT
ATOM      1  O   UNL     1      35.220 -16.534 -20.144  0.00  0.00    -0.244 OA
ATOM      2  C   UNL     1      34.725 -16.689 -21.268  0.00  0.00    +0.349 C 
ENDROOT
BRANCH   2   3
ATOM      3  C   UNL     1      34.031 -15.646 -22.010  0.00  0.00    +0.110 C 
ATOM      4  C   UNL     1      33.046 -14.868 -21.401  0.00  0.00    +0.140 C 
ATOM      5  C   UNL     1      34.362 -15.430 -23.349  0.00  0.00    +0.010 C 
ATOM      6  C   UNL     1      32.392 -13.874 -22.131  0.00  0.00    +0.037 C 
ATOM      7  C   UNL     1      33.707 -14.438 -24.077  0.00  0.00    +0.000 C 
ATOM      8  C   UNL     1      32.722 -13.659 -23.468  0.00  0.00    +0.003 C 
BRANCH   4   9
ATOM      9  O   UNL     1      32.708 -15.063 -20.095  0.00  0.00    -0.505 OA
ATOM     10  H   UNL     1      31.890 -14.741 -19.770  0.00  0.00    +0.292 HD
ENDBRANCH   4   9
ENDBRANCH   2   3
BRANCH   2  11
ATOM     11  O   UNL     1      34.767 -17.876 -21.996  0.00  0.00    -0.421 OA
BRANCH  11  12
ATOM     12  C   UNL     1      34.565 -19.024 -21.226  0.00  0.00    +0.149 C 
ATOM     13  C   UNL     1      33.278 -19.374 -20.884  0.00  0.00    +0.038 C 
ATOM     14  C   UNL     1      35.662 -19.762 -20.840  0.00  0.00    +0.038 C 
ATOM     15  C   UNL     1      33.077 -20.520 -20.115  0.00  0.00    +0.003 C 
ATOM     16  C   UNL     1      35.462 -20.908 -20.071  0.00  0.00    +0.003 C 
ATOM     17  C   UNL     1      34.169 -21.287 -19.709  0.00  0.00    +0.000 C 
ENDBRANCH  11  12
ENDBRANCH   2  11
TORSDOF 4
ENDMDL
MODEL 5
REMARK VINA RESULT:      -8.5      1.200      5.986
REMARK  Name = 8361
REMARK  4 active torsions:
REMARK  status: ('A' for Active; 'I' for Inactive)
REMARK    1  A    between atoms: C_2  and  C_3
REMARK    2  A    between atoms: C_2  and  O_11
REMARK    3  A    between atoms: C_4  and  O_9
REMARK    4  A    between atoms: O_11  and  C_12
REMARK                            x       y       z     vdW  Elec       q    Type
REMARK                         _______ _______ _______ _____ _____    ______ ____
ROOT
ATOM      1  O   UNL     1      34.383 -19.133 -22.937  0.00  0.00    -0.244 OA
ATOM      2  C   UNL     1      34.769 -18.977 -21.771  0.00  0.00    +0.349 C 
ENDROOT
BRANCH   2   3
ATOM      3  C   UNL     1      34.784 -20.028 -20.764  0.00  0.00    +0.110 C 
ATOM      4  C   UNL     1      33.596 -20.600 -20.309  0.00  0.00    +0.140 C 
ATOM      5  C   UNL     1      36.008 -20.461 -20.253  0.00  0.00    +0.010 C 
ATOM      6  C   UNL     1      33.632 -21.606 -19.342  0.00  0.00    +0.037 C 
ATOM      7  C   UNL     1      36.044 -21.465 -19.286  0.00  0.00    +0.000 C 
ATOM      8  C   UNL     1      34.855 -22.038 -18.830  0.00  0.00    +0.003 C 
BRANCH   4   9
ATOM      9  O   UNL     1      32.390 -20.190 -20.794  0.00  0.00    -0.505 OA
ATOM     10  H   UNL     1      31.679 -20.798 -20.856  0.00  0.00    +0.292 HD
ENDBRANCH   4   9
ENDBRANCH   2   3
BRANCH   2  11
ATOM     11  O   UNL     1      35.257 -17.780 -21.252  0.00  0.00    -0.421 OA
BRANCH  11  12
ATOM     12  C   UNL     1      34.518 -16.654 -21.622  0.00  0.00    +0.149 C 
ATOM     13  C   UNL     1      34.950 -15.900 -22.689  0.00  0.00    +0.038 C 
ATOM     14  C   UNL     1      33.385 -16.342 -20.904  0.00  0.00    +0.038 C 
ATOM     15  C   UNL     1      34.213 -14.775 -23.059  0.00  0.00    +0.003 C 
ATOM     16  C   UNL     1      32.646 -15.217 -21.272  0.00  0.00    +0.003 C 
ATOM     17  C   UNL     1      33.061 -14.434 -22.350  0.00  0.00    +0.000 C 
ENDBRANCH  11  12
ENDBRANCH   2  11
TORSDOF 4
ENDMDL
MODEL 6
REMARK VINA RESULT:      -8.5      1.089      5.715
REMARK  Name = 8361
REMARK  4 active torsions:
REMARK  status: ('A' for Active; 'I' for Inactive)
REMARK    1  A    between atoms: C_2  and  C_3
REMARK    2  A    between atoms: C_2  and  O_11
REMARK    3  A    between atoms: C_4  and  O_9
REMARK    4  A    between atoms: O_11  and  C_12
REMARK                            x       y       z     vdW  Elec       q    Type
REMARK                         _______ _______ _______ _____ _____    ______ ____
ROOT
ATOM      1  O   UNL     1      34.578 -18.265 -23.432  0.00  0.00    -0.244 OA
ATOM      2  C   UNL     1      34.808 -18.194 -22.217  0.00  0.00    +0.349 C 
ENDROOT
BRANCH   2   3
ATOM      3  C   UNL     1      34.636 -19.297 -21.283  0.00  0.00    +0.110 C 
ATOM      4  C   UNL     1      35.736 -19.880 -20.654  0.00  0.00    +0.140 C 
ATOM      5  C   UNL     1      33.350 -19.770 -21.020  0.00  0.00    +0.010 C 
ATOM      6  C   UNL     1      35.549 -20.937 -19.761  0.00  0.00    +0.037 C 
ATOM      7  C   UNL     1      33.164 -20.826 -20.129  0.00  0.00    +0.000 C 
ATOM      8  C   UNL     1      34.264 -21.410 -19.500  0.00  0.00    +0.003 C 
BRANCH   4   9
ATOM      9  O   UNL     1      37.000 -19.433 -20.897  0.00  0.00    -0.505 OA
ATOM     10  H   UNL     1      37.176 -18.512 -20.918  0.00  0.00    +0.292 HD
ENDBRANCH   4   9
ENDBRANCH   2   3
BRANCH   2  11
ATOM     11  O   UNL     1      35.275 -17.055 -21.565  0.00  0.00    -0.421 OA
BRANCH  11  12
ATOM     12  C   UNL     1      34.432 -15.946 -21.678  0.00  0.00    +0.149 C 
ATOM     13  C   UNL     1      33.477 -15.739 -20.708  0.00  0.00    +0.038 C 
ATOM     14  C   UNL     1      34.589 -15.104 -22.756  0.00  0.00    +0.038 C 
ATOM     15  C   UNL     1      32.636 -14.633 -20.821  0.00  0.00    +0.003 C 
ATOM     16  C   UNL     1      33.747 -13.998 -22.870  0.00  0.00    +0.003 C 
ATOM     17  C   UNL     1      32.771 -13.763 -21.902  0.00  0.00    +0.000 C 
ENDBRANCH  11  12
ENDBRANCH   2  11
TORSDOF 4
ENDMDL
MODEL 7
REMARK VINA RESULT:      -8.5      4.316      8.074
REMARK  Name = 8361
REMARK  4 active torsions:
REMARK  status: ('A' for Active; 'I' for Inactive)
REMARK    1  A    between atoms: C_2  and  C_3
REMARK    2  A    between atoms: C_2  and  O_11
REMARK    3  A    between atoms: C_4  and  O_9
REMARK    4  A    between atoms: O_11  and  C_12
REMARK                            x       y       z     vdW  Elec       q    Type
REMARK                         _______ _______ _______ _____ _____    ______ ____
ROOT
ATOM      1  O   UNL     1      33.868 -23.886 -19.126  0.00  0.00    -0.244 OA
ATOM      2  C   UNL     1      33.268 -23.068 -18.416  0.00  0.00    +0.349 C 
ENDROOT
BRANCH   2   3
ATOM      3  C   UNL     1      33.081 -23.209 -16.979  0.00  0.00    +0.110 C 
ATOM      4  C   UNL     1      34.175 -23.372 -16.128  0.00  0.00    +0.140 C 
ATOM      5  C   UNL     1      31.788 -23.179 -16.456  0.00  0.00    +0.010 C 
ATOM      6  C   UNL     1      33.973 -23.506 -14.753  0.00  0.00    +0.037 C 
ATOM      7  C   UNL     1      31.588 -23.314 -15.083  0.00  0.00    +0.000 C 
ATOM      8  C   UNL     1      32.681 -23.478 -14.231  0.00  0.00    +0.003 C 
BRANCH   4   9
ATOM      9  O   UNL     1      35.445 -23.405 -16.619  0.00  0.00    -0.505 OA
ATOM     10  H   UNL     1      35.618 -23.111 -17.492  0.00  0.00    +0.292 HD
ENDBRANCH   4   9
ENDBRANCH   2   3
BRANCH   2  11
ATOM     11  O   UNL     1      32.693 -21.887 -18.881  0.00  0.00    -0.421 OA
BRANCH  11  12
ATOM     12  C   UNL     1      33.541 -21.114 -19.678  0.00  0.00    +0.149 C 
ATOM     13  C   UNL     1      32.983 -20.231 -20.575  0.00  0.00    +0.038 C 
ATOM     14  C   UNL     1      34.902 -21.267 -19.536  0.00  0.00    +0.038 C 
ATOM     15  C   UNL     1      33.829 -19.460 -21.371  0.00  0.00    +0.003 C 
ATOM     16  C   UNL     1      35.749 -20.497 -20.332  0.00  0.00    +0.003 C 
ATOM     17  C   UNL     1      35.213 -19.593 -21.249  0.00  0.00    +0.000 C 
ENDBRANCH  11  12
ENDBRANCH   2  11
TORSDOF 4
ENDMDL
MODEL 8
REMARK VINA RESULT:      -8.4      4.318      8.095
REMARK  Name = 8361
REMARK  4 active torsions:
REMARK  status: ('A' for Active; 'I' for Inactive)
REMARK    1  A    between atoms: C_2  and  C_3
REMARK    2  A    between atoms: C_2  and  O_11
REMARK    3  A    between atoms: C_4  and  O_9
REMARK    4  A    between atoms: O_11  and  C_12
REMARK                            x       y       z     vdW  Elec       q    Type
REMARK                         _______ _______ _______ _____ _____    ______ ____
ROOT
ATOM      1  O   UNL     1      33.830 -23.910 -19.119  0.00  0.00    -0.244 OA
ATOM      2  C   UNL     1      33.272 -23.080 -18.390  0.00  0.00    +0.349 C 
ENDROOT
BRANCH   2   3
ATOM      3  C   UNL     1      33.124 -23.219 -16.948  0.00  0.00    +0.110 C 
ATOM      4  C   UNL     1      31.888 -23.020 -16.332  0.00  0.00    +0.140 C 
ATOM      5  C   UNL     1      34.240 -23.557 -16.181  0.00  0.00    +0.010 C 
ATOM      6  C   UNL     1      31.769 -23.158 -14.949  0.00  0.00    +0.037 C 
ATOM      7  C   UNL     1      34.120 -23.694 -14.799  0.00  0.00    +0.000 C 
ATOM      8  C   UNL     1      32.884 -23.495 -14.182  0.00  0.00    +0.003 C 
BRANCH   4   9
ATOM      9  O   UNL     1      30.787 -22.689 -17.064  0.00  0.00    -0.505 OA
ATOM     10  H   UNL     1      29.987 -23.164 -16.947  0.00  0.00    +0.292 HD
ENDBRANCH   4   9
ENDBRANCH   2   3
BRANCH   2  11
ATOM     11  O   UNL     1      32.712 -21.885 -18.836  0.00  0.00    -0.421 OA
BRANCH  11  12
ATOM     12  C   UNL     1      33.564 -21.118 -19.635  0.00  0.00    +0.149 C 
ATOM     13  C   UNL     1      34.923 -21.304 -19.521  0.00  0.00    +0.038 C 
ATOM     14  C   UNL     1      33.010 -20.207 -20.506  0.00  0.00    +0.038 C 
ATOM     15  C   UNL     1      35.774 -20.539 -20.319  0.00  0.00    +0.003 C 
ATOM     16  C   UNL     1      33.860 -19.440 -21.304  0.00  0.00    +0.003 C 
ATOM     17  C   UNL     1      35.241 -19.607 -21.210  0.00  0.00    +0.000 C 
ENDBRANCH  11  12
ENDBRANCH   2  11
TORSDOF 4
ENDMDL
MODEL 9
REMARK VINA RESULT:      -8.4      4.065      6.360
REMARK  Name = 8361
REMARK  4 active torsions:
REMARK  status: ('A' for Active; 'I' for Inactive)
REMARK    1  A    between atoms: C_2  and  C_3
REMARK    2  A    between atoms: C_2  and  O_11
REMARK    3  A    between atoms: C_4  and  O_9
REMARK    4  A    between atoms: O_11  and  C_12
REMARK                            x       y       z     vdW  Elec       q    Type
REMARK                         _______ _______ _______ _____ _____    ______ ____
ROOT
ATOM      1  O   UNL     1      33.992 -23.966 -19.535  0.00  0.00    -0.244 OA
ATOM      2  C   UNL     1      33.742 -22.789 -19.239  0.00  0.00    +0.349 C 
ENDROOT
BRANCH   2   3
ATOM      3  C   UNL     1      34.486 -21.642 -19.740  0.00  0.00    +0.110 C 
ATOM      4  C   UNL     1      33.834 -20.599 -20.399  0.00  0.00    +0.140 C 
ATOM      5  C   UNL     1      35.868 -21.594 -19.552  0.00  0.00    +0.010 C 
ATOM      6  C   UNL     1      34.565 -19.508 -20.871  0.00  0.00    +0.037 C 
ATOM      7  C   UNL     1      36.598 -20.504 -20.025  0.00  0.00    +0.000 C 
ATOM      8  C   UNL     1      35.946 -19.461 -20.685  0.00  0.00    +0.003 C 
BRANCH   4   9
ATOM      9  O   UNL     1      32.486 -20.627 -20.592  0.00  0.00    -0.505 OA
ATOM     10  H   UNL     1      31.906 -20.449 -19.877  0.00  0.00    +0.292 HD
ENDBRANCH   4   9
ENDBRANCH   2   3
BRANCH   2  11
ATOM     11  O   UNL     1      32.710 -22.386 -18.395  0.00  0.00    -0.421 OA
BRANCH  11  12
ATOM     12  C   UNL     1      32.782 -22.926 -17.108  0.00  0.00    +0.149 C 
ATOM     13  C   UNL     1      34.021 -23.173 -16.561  0.00  0.00    +0.038 C 
ATOM     14  C   UNL     1      31.609 -23.191 -16.437  0.00  0.00    +0.038 C 
ATOM     15  C   UNL     1      34.092 -23.713 -15.277  0.00  0.00    +0.003 C 
ATOM     16  C   UNL     1      31.678 -23.731 -15.153  0.00  0.00    +0.003 C 
ATOM     17  C   UNL     1      32.920 -23.991 -14.573  0.00  0.00    +0.000 C 
ENDBRANCH  11  12
ENDBRANCH   2  11
TORSDOF 4
ENDMDL
