MODEL 1
REMARK VINA RESULT:      -7.0      0.000      0.000
REMARK  Name = 47318
REMARK  1 active torsions:
REMARK  status: ('A' for Active; 'I' for Inactive)
REMARK    1  A    between atoms: C_5  and  C_10
REMARK                            x       y       z     vdW  Elec       q    Type
REMARK                         _______ _______ _______ _____ _____    ______ ____
ROOT
ATOM      1  S   UNL     1      34.691 -18.605 -24.122  0.00  0.00    -0.049 S 
ATOM      2  S   UNL     1      34.679 -16.739 -24.926  0.00  0.00    -0.044 S 
ATOM      3  S   UNL     1      34.031 -14.229 -23.443  0.00  0.00    -0.043 S 
ATOM      4  C   UNL     1      34.645 -16.727 -22.217  0.00  0.00    -0.001 A 
ATOM      5  C   UNL     1      34.797 -18.035 -22.493  0.00  0.00    +0.048 A 
ATOM      6  C   UNL     1      34.683 -16.105 -20.850  0.00  0.00    +0.033 C 
ATOM      7  C   UNL     1      34.430 -15.858 -23.419  0.00  0.00    +0.068 A 
ENDROOT
BRANCH   5  10
ATOM      8  N   UNL     1      33.945 -19.805 -21.113  0.00  0.00    -0.266 NA
ATOM      9  N   UNL     1      36.487 -20.240 -20.011  0.00  0.00    -0.265 NA
ATOM     10  C   UNL     1      35.016 -19.074 -21.481  0.00  0.00    +0.085 C 
ATOM     11  C   UNL     1      36.265 -19.288 -20.939  0.00  0.00    +0.171 C 
ATOM     12  C   UNL     1      34.167 -20.757 -20.184  0.00  0.00    +0.171 C 
ATOM     13  C   UNL     1      35.416 -20.971 -19.643  0.00  0.00    +0.094 C 
ENDBRANCH   5  10
TORSDOF 1
ENDMDL
MODEL 2
REMARK VINA RESULT:      -6.9      3.105      5.186
REMARK  Name = 47318
REMARK  1 active torsions:
REMARK  status: ('A' for Active; 'I' for Inactive)
REMARK    1  A    between atoms: C_5  and  C_10
REMARK                            x       y       z     vdW  Elec       q    Type
REMARK                         _______ _______ _______ _____ _____    ______ ____
ROOT
ATOM      1  S   UNL     1      36.838 -19.659 -20.574  0.00  0.00    -0.049 S 
ATOM      2  S   UNL     1      36.392 -21.444 -19.712  0.00  0.00    -0.044 S 
ATOM      3  S   UNL     1      33.672 -22.292 -18.817  0.00  0.00    -0.043 S 
ATOM      4  C   UNL     1      34.198 -20.095 -20.553  0.00  0.00    -0.001 A 
ATOM      5  C   UNL     1      35.200 -19.323 -21.014  0.00  0.00    +0.048 A 
ATOM      6  C   UNL     1      32.736 -19.897 -20.831  0.00  0.00    +0.033 C 
ATOM      7  C   UNL     1      34.641 -21.243 -19.697  0.00  0.00    +0.068 A 
ENDROOT
BRANCH   5  10
ATOM      8  N   UNL     1      34.846 -16.960 -21.243  0.00  0.00    -0.266 NA
ATOM      9  N   UNL     1      34.838 -17.179 -24.040  0.00  0.00    -0.265 NA
ATOM     10  C   UNL     1      35.011 -18.144 -21.866  0.00  0.00    +0.085 C 
ATOM     11  C   UNL     1      35.007 -18.251 -23.240  0.00  0.00    +0.171 C 
ATOM     12  C   UNL     1      34.677 -15.887 -22.043  0.00  0.00    +0.171 C 
ATOM     13  C   UNL     1      34.673 -15.995 -23.417  0.00  0.00    +0.094 C 
ENDBRANCH   5  10
TORSDOF 1
ENDMDL
MODEL 3
REMARK VINA RESULT:      -6.7      1.497      2.491
REMARK  Name = 47318
REMARK  1 active torsions:
REMARK  status: ('A' for Active; 'I' for Inactive)
REMARK    1  A    between atoms: C_5  and  C_10
REMARK                            x       y       z     vdW  Elec       q    Type
REMARK                         _______ _______ _______ _____ _____    ______ ____
ROOT
ATOM      1  S   UNL     1      34.781 -16.671 -20.881  0.00  0.00    -0.049 S 
ATOM      2  S   UNL     1      34.269 -15.585 -22.519  0.00  0.00    -0.044 S 
ATOM      3  S   UNL     1      34.636 -16.463 -25.351  0.00  0.00    -0.043 S 
ATOM      4  C   UNL     1      34.771 -18.186 -23.086  0.00  0.00    -0.001 A 
ATOM      5  C   UNL     1      34.846 -18.169 -21.742  0.00  0.00    +0.048 A 
ATOM      6  C   UNL     1      34.845 -19.409 -23.955  0.00  0.00    +0.033 C 
ATOM      7  C   UNL     1      34.591 -16.839 -23.717  0.00  0.00    +0.068 A 
ENDROOT
BRANCH   5  10
ATOM      8  N   UNL     1      36.284 -19.663 -20.532  0.00  0.00    -0.266 NA
ATOM      9  N   UNL     1      34.091 -21.231 -19.759  0.00  0.00    -0.265 NA
ATOM     10  C   UNL     1      35.024 -19.363 -20.908  0.00  0.00    +0.085 C 
ATOM     11  C   UNL     1      33.948 -20.133 -20.528  0.00  0.00    +0.171 C 
ATOM     12  C   UNL     1      36.427 -20.760 -19.763  0.00  0.00    +0.171 C 
ATOM     13  C   UNL     1      35.350 -21.531 -19.383  0.00  0.00    +0.094 C 
ENDBRANCH   5  10
TORSDOF 1
ENDMDL
MODEL 4
REMARK VINA RESULT:      -6.5      1.322      2.091
REMARK  Name = 47318
REMARK  1 active torsions:
REMARK  status: ('A' for Active; 'I' for Inactive)
REMARK    1  A    between atoms: C_5  and  C_10
REMARK                            x       y       z     vdW  Elec       q    Type
REMARK                         _______ _______ _______ _____ _____    ______ ____
ROOT
ATOM      1  S   UNL     1      34.760 -16.584 -20.949  0.00  0.00    -0.049 S 
ATOM      2  S   UNL     1      34.196 -15.535 -22.595  0.00  0.00    -0.044 S 
ATOM      3  S   UNL     1      34.545 -16.445 -25.419  0.00  0.00    -0.043 S 
ATOM      4  C   UNL     1      34.758 -18.131 -23.132  0.00  0.00    -0.001 A 
ATOM      5  C   UNL     1      34.851 -18.093 -21.790  0.00  0.00    +0.048 A 
ATOM      6  C   UNL     1      34.851 -19.363 -23.986  0.00  0.00    +0.033 C 
ATOM      7  C   UNL     1      34.533 -16.798 -23.780  0.00  0.00    +0.068 A 
ENDROOT
BRANCH   5  10
ATOM      8  N   UNL     1      33.988 -19.999 -20.616  0.00  0.00    -0.266 NA
ATOM      9  N   UNL     1      36.559 -20.684 -19.729  0.00  0.00    -0.265 NA
ATOM     10  C   UNL     1      35.072 -19.269 -20.942  0.00  0.00    +0.085 C 
ATOM     11  C   UNL     1      36.335 -19.605 -20.506  0.00  0.00    +0.171 C 
ATOM     12  C   UNL     1      34.211 -21.078 -19.839  0.00  0.00    +0.171 C 
ATOM     13  C   UNL     1      35.474 -21.414 -19.403  0.00  0.00    +0.094 C 
ENDBRANCH   5  10
TORSDOF 1
ENDMDL
MODEL 5
REMARK VINA RESULT:      -6.4      4.536      6.115
REMARK  Name = 47318
REMARK  1 active torsions:
REMARK  status: ('A' for Active; 'I' for Inactive)
REMARK    1  A    between atoms: C_5  and  C_10
REMARK                            x       y       z     vdW  Elec       q    Type
REMARK                         _______ _______ _______ _____ _____    ______ ____
ROOT
ATOM      1  S   UNL     1      32.281 -13.410 -22.026  0.00  0.00    -0.049 S 
ATOM      2  S   UNL     1      31.695 -11.468 -21.908  0.00  0.00    -0.044 S 
ATOM      3  S   UNL     1      32.987  -9.190 -23.346  0.00  0.00    -0.043 S 
ATOM      4  C   UNL     1      33.392 -11.942 -23.967  0.00  0.00    -0.001 A 
ATOM      5  C   UNL     1      33.172 -13.181 -23.490  0.00  0.00    +0.048 A 
ATOM      6  C   UNL     1      34.172 -11.601 -25.204  0.00  0.00    +0.033 C 
ATOM      7  C   UNL     1      32.774 -10.843 -23.156  0.00  0.00    +0.068 A 
ENDROOT
BRANCH   5  10
ATOM      8  N   UNL     1      34.566 -15.133 -23.401  0.00  0.00    -0.266 NA
ATOM      9  N   UNL     1      33.709 -15.925 -25.952  0.00  0.00    -0.265 NA
ATOM     10  C   UNL     1      33.678 -14.409 -24.112  0.00  0.00    +0.085 C 
ATOM     11  C   UNL     1      33.258 -14.799 -25.365  0.00  0.00    +0.171 C 
ATOM     12  C   UNL     1      35.017 -16.260 -23.987  0.00  0.00    +0.171 C 
ATOM     13  C   UNL     1      34.596 -16.649 -25.241  0.00  0.00    +0.094 C 
ENDBRANCH   5  10
TORSDOF 1
ENDMDL
MODEL 6
REMARK VINA RESULT:      -6.4      4.473      5.676
REMARK  Name = 47318
REMARK  1 active torsions:
REMARK  status: ('A' for Active; 'I' for Inactive)
REMARK    1  A    between atoms: C_5  and  C_10
REMARK                            x       y       z     vdW  Elec       q    Type
REMARK                         _______ _______ _______ _____ _____    ______ ____
ROOT
ATOM      1  S   UNL     1      33.815 -12.006 -24.908  0.00  0.00    -0.049 S 
ATOM      2  S   UNL     1      33.131 -10.567 -23.647  0.00  0.00    -0.044 S 
ATOM      3  S   UNL     1      31.264 -11.027 -21.361  0.00  0.00    -0.043 S 
ATOM      4  C   UNL     1      32.693 -13.078 -22.729  0.00  0.00    -0.001 A 
ATOM      5  C   UNL     1      33.426 -13.304 -23.835  0.00  0.00    +0.048 A 
ATOM      6  C   UNL     1      32.260 -14.115 -21.733  0.00  0.00    +0.033 C 
ATOM      7  C   UNL     1      32.309 -11.644 -22.518  0.00  0.00    +0.068 A 
ENDROOT
BRANCH   5  10
ATOM      8  N   UNL     1      34.787 -15.239 -23.425  0.00  0.00    -0.266 NA
ATOM      9  N   UNL     1      33.924 -16.417 -25.820  0.00  0.00    -0.265 NA
ATOM     10  C   UNL     1      33.913 -14.625 -24.248  0.00  0.00    +0.085 C 
ATOM     11  C   UNL     1      33.490 -15.204 -25.424  0.00  0.00    +0.171 C 
ATOM     12  C   UNL     1      35.221 -16.452 -23.820  0.00  0.00    +0.171 C 
ATOM     13  C   UNL     1      34.797 -17.031 -24.997  0.00  0.00    +0.094 C 
ENDBRANCH   5  10
TORSDOF 1
ENDMDL
MODEL 7
REMARK VINA RESULT:      -6.2      3.619      5.826
REMARK  Name = 47318
REMARK  1 active torsions:
REMARK  status: ('A' for Active; 'I' for Inactive)
REMARK    1  A    between atoms: C_5  and  C_10
REMARK                            x       y       z     vdW  Elec       q    Type
REMARK                         _______ _______ _______ _____ _____    ______ ____
ROOT
ATOM      1  S   UNL     1      34.232 -16.244 -24.714  0.00  0.00    -0.049 S 
ATOM      2  S   UNL     1      34.866 -18.067 -24.083  0.00  0.00    -0.044 S 
ATOM      3  S   UNL     1      36.080 -18.639 -21.414  0.00  0.00    -0.043 S 
ATOM      4  C   UNL     1      34.647 -16.266 -22.071  0.00  0.00    -0.001 A 
ATOM      5  C   UNL     1      34.145 -15.585 -23.118  0.00  0.00    +0.048 A 
ATOM      6  C   UNL     1      34.664 -15.798 -20.644  0.00  0.00    +0.033 C 
ATOM      7  C   UNL     1      35.220 -17.607 -22.418  0.00  0.00    +0.068 A 
ENDROOT
BRANCH   5  10
ATOM      8  N   UNL     1      34.046 -13.291 -23.817  0.00  0.00    -0.266 NA
ATOM      9  N   UNL     1      31.913 -12.794 -22.065  0.00  0.00    -0.265 NA
ATOM     10  C   UNL     1      33.536 -14.254 -23.024  0.00  0.00    +0.085 C 
ATOM     11  C   UNL     1      32.488 -14.009 -22.164  0.00  0.00    +0.171 C 
ATOM     12  C   UNL     1      33.472 -12.075 -23.719  0.00  0.00    +0.171 C 
ATOM     13  C   UNL     1      32.423 -11.831 -22.858  0.00  0.00    +0.094 C 
ENDBRANCH   5  10
TORSDOF 1
ENDMDL
MODEL 8
REMARK VINA RESULT:      -6.1      2.992      5.088
REMARK  Name = 47318
REMARK  1 active torsions:
REMARK  status: ('A' for Active; 'I' for Inactive)
REMARK    1  A    between atoms: C_5  and  C_10
REMARK                            x       y       z     vdW  Elec       q    Type
REMARK                         _______ _______ _______ _____ _____    ______ ____
ROOT
ATOM      1  S   UNL     1      32.959 -19.848 -21.286  0.00  0.00    -0.049 S 
ATOM      2  S   UNL     1      33.433 -20.977 -19.665  0.00  0.00    -0.044 S 
ATOM      3  S   UNL     1      36.199 -21.781 -18.875  0.00  0.00    -0.043 S 
ATOM      4  C   UNL     1      35.578 -19.727 -20.750  0.00  0.00    -0.001 A 
ATOM      5  C   UNL     1      34.560 -19.220 -21.469  0.00  0.00    +0.048 A 
ATOM      6  C   UNL     1      37.014 -19.297 -20.833  0.00  0.00    +0.033 C 
ATOM      7  C   UNL     1      35.184 -20.810 -19.791  0.00  0.00    +0.068 A 
ENDROOT
BRANCH   5  10
ATOM      8  N   UNL     1      34.622 -18.521 -23.764  0.00  0.00    -0.266 NA
ATOM      9  N   UNL     1      35.037 -15.855 -22.996  0.00  0.00    -0.265 NA
ATOM     10  C   UNL     1      34.703 -18.156 -22.469  0.00  0.00    +0.085 C 
ATOM     11  C   UNL     1      34.906 -16.847 -22.092  0.00  0.00    +0.171 C 
ATOM     12  C   UNL     1      34.752 -17.530 -24.669  0.00  0.00    +0.171 C 
ATOM     13  C   UNL     1      34.956 -16.220 -24.291  0.00  0.00    +0.094 C 
ENDBRANCH   5  10
TORSDOF 1
ENDMDL
MODEL 9
REMARK VINA RESULT:      -6.0      1.976      2.973
REMARK  Name = 47318
REMARK  1 active torsions:
REMARK  status: ('A' for Active; 'I' for Inactive)
REMARK    1  A    between atoms: C_5  and  C_10
REMARK                            x       y       z     vdW  Elec       q    Type
REMARK                         _______ _______ _______ _____ _____    ______ ____
ROOT
ATOM      1  S   UNL     1      34.125 -14.863 -21.939  0.00  0.00    -0.049 S 
ATOM      2  S   UNL     1      33.109 -13.885 -23.401  0.00  0.00    -0.044 S 
ATOM      3  S   UNL     1      33.168 -14.587 -26.304  0.00  0.00    -0.043 S 
ATOM      4  C   UNL     1      34.072 -16.287 -24.203  0.00  0.00    -0.001 A 
ATOM      5  C   UNL     1      34.372 -16.285 -22.891  0.00  0.00    +0.048 A 
ATOM      6  C   UNL     1      34.265 -17.438 -25.148  0.00  0.00    +0.033 C 
ATOM      7  C   UNL     1      33.490 -15.002 -24.711  0.00  0.00    +0.068 A 
ENDROOT
BRANCH   5  10
ATOM      8  N   UNL     1      36.260 -17.676 -22.383  0.00  0.00    -0.266 NA
ATOM      9  N   UNL     1      34.706 -19.244 -20.652  0.00  0.00    -0.265 NA
ATOM     10  C   UNL     1      34.953 -17.424 -22.173  0.00  0.00    +0.085 C 
ATOM     11  C   UNL     1      34.190 -18.194 -21.323  0.00  0.00    +0.171 C 
ATOM     12  C   UNL     1      36.777 -18.725 -21.712  0.00  0.00    +0.171 C 
ATOM     13  C   UNL     1      36.013 -19.495 -20.862  0.00  0.00    +0.094 C 
ENDBRANCH   5  10
TORSDOF 1
ENDMDL
