MODEL 1
REMARK VINA RESULT:      -7.6      0.000      0.000
REMARK  Name = 42396
REMARK  8 active torsions:
REMARK  status: ('A' for Active; 'I' for Inactive)
REMARK    1  A    between atoms: C_1  and  O_2
REMARK    2  A    between atoms: C_1  and  C_4
REMARK    3  A    between atoms: C_1  and  C_11
REMARK    4  A    between atoms: C_4  and  N_5
REMARK    5  A    between atoms: N_5  and  C_8
REMARK    6  A    between atoms: C_11  and  O_12
REMARK    7  A    between atoms: O_12  and  C_13
REMARK    8  A    between atoms: C_18  and  O_19
REMARK                            x       y       z     vdW  Elec       q    Type
REMARK                         _______ _______ _______ _____ _____    ______ ____
ROOT
ATOM      1  C   UNL     1      34.498 -16.376 -21.391  0.00  0.00    +0.133 C 
ENDROOT
BRANCH   1   2
ATOM      2  O   UNL     1      34.894 -15.409 -20.414  0.00  0.00    -0.383 OA
ATOM      3  H   UNL     1      34.390 -15.551 -19.597  0.00  0.00    +0.210 HD
ENDBRANCH   1   2
BRANCH   1   4
ATOM      4  C   UNL     1      34.691 -15.759 -22.779  0.00  0.00    -0.048 C 
BRANCH   4   5
ATOM      5  N   UNL     1      35.511 -16.598 -23.642  0.00  0.00    +0.387 N 
ATOM      6  H   UNL     1      35.640 -17.508 -23.198  0.00  0.00    -0.084 HD
ATOM      7  H   UNL     1      36.411 -16.139 -23.782  0.00  0.00    -0.084 HD
BRANCH   5   8
ATOM      8  C   UNL     1      34.878 -16.786 -24.940  0.00  0.00    -0.062 C 
ATOM      9  C   UNL     1      33.748 -15.779 -25.129  0.00  0.00    -0.023 C 
ATOM     10  C   UNL     1      34.362 -18.218 -25.050  0.00  0.00    -0.023 C 
ENDBRANCH   5   8
ENDBRANCH   4   5
ENDBRANCH   1   4
BRANCH   1  11
ATOM     11  C   UNL     1      35.313 -17.649 -21.178  0.00  0.00    +0.232 C 
BRANCH  11  12
ATOM     12  O   UNL     1      34.544 -18.766 -21.614  0.00  0.00    -0.473 OA
BRANCH  12  13
ATOM     13  C   UNL     1      34.510 -19.853 -20.783  0.00  0.00    +0.139 C 
ATOM     14  C   UNL     1      33.286 -20.334 -20.328  0.00  0.00    +0.040 C 
ATOM     15  C   UNL     1      35.698 -20.468 -20.401  0.00  0.00    +0.040 C 
ATOM     16  C   UNL     1      33.251 -21.441 -19.480  0.00  0.00    +0.040 C 
ATOM     17  C   UNL     1      35.661 -21.575 -19.555  0.00  0.00    +0.040 C 
ATOM     18  C   UNL     1      34.438 -22.062 -19.094  0.00  0.00    +0.134 C 
BRANCH  18  19
ATOM     19  O   UNL     1      34.404 -23.145 -18.269  0.00  0.00    -0.506 OA
ATOM     20  H   UNL     1      35.201 -23.490 -17.918  0.00  0.00    +0.292 HD
ENDBRANCH  18  19
ENDBRANCH  12  13
ENDBRANCH  11  12
ENDBRANCH   1  11
TORSDOF 8
ENDMDL
MODEL 2
REMARK VINA RESULT:      -7.6      0.042      1.209
REMARK  Name = 42396
REMARK  8 active torsions:
REMARK  status: ('A' for Active; 'I' for Inactive)
REMARK    1  A    between atoms: C_1  and  O_2
REMARK    2  A    between atoms: C_1  and  C_4
REMARK    3  A    between atoms: C_1  and  C_11
REMARK    4  A    between atoms: C_4  and  N_5
REMARK    5  A    between atoms: N_5  and  C_8
REMARK    6  A    between atoms: C_11  and  O_12
REMARK    7  A    between atoms: O_12  and  C_13
REMARK    8  A    between atoms: C_18  and  O_19
REMARK                            x       y       z     vdW  Elec       q    Type
REMARK                         _______ _______ _______ _____ _____    ______ ____
ROOT
ATOM      1  C   UNL     1      34.474 -16.369 -21.403  0.00  0.00    +0.133 C 
ENDROOT
BRANCH   1   2
ATOM      2  O   UNL     1      34.889 -15.379 -20.456  0.00  0.00    -0.383 OA
ATOM      3  H   UNL     1      35.690 -14.939 -20.780  0.00  0.00    +0.210 HD
ENDBRANCH   1   2
BRANCH   1   4
ATOM      4  C   UNL     1      34.615 -15.777 -22.807  0.00  0.00    -0.048 C 
BRANCH   4   5
ATOM      5  N   UNL     1      35.488 -16.578 -23.654  0.00  0.00    +0.387 N 
ATOM      6  H   UNL     1      35.659 -17.477 -23.202  0.00  0.00    -0.084 HD
ATOM      7  H   UNL     1      36.363 -16.073 -23.789  0.00  0.00    -0.084 HD
BRANCH   5   8
ATOM      8  C   UNL     1      34.879 -16.809 -24.958  0.00  0.00    -0.062 C 
ATOM      9  C   UNL     1      33.751 -15.811 -25.200  0.00  0.00    -0.023 C 
ATOM     10  C   UNL     1      34.367 -18.244 -25.032  0.00  0.00    -0.023 C 
ENDBRANCH   5   8
ENDBRANCH   4   5
ENDBRANCH   1   4
BRANCH   1  11
ATOM     11  C   UNL     1      35.313 -17.628 -21.192  0.00  0.00    +0.232 C 
BRANCH  11  12
ATOM     12  O   UNL     1      34.570 -18.756 -21.643  0.00  0.00    -0.473 OA
BRANCH  12  13
ATOM     13  C   UNL     1      34.527 -19.840 -20.808  0.00  0.00    +0.139 C 
ATOM     14  C   UNL     1      35.713 -20.450 -20.410  0.00  0.00    +0.040 C 
ATOM     15  C   UNL     1      33.301 -20.322 -20.363  0.00  0.00    +0.040 C 
ATOM     16  C   UNL     1      35.671 -21.555 -19.560  0.00  0.00    +0.040 C 
ATOM     17  C   UNL     1      33.259 -21.425 -19.512  0.00  0.00    +0.040 C 
ATOM     18  C   UNL     1      34.444 -22.042 -19.110  0.00  0.00    +0.134 C 
BRANCH  18  19
ATOM     19  O   UNL     1      34.402 -23.119 -18.278  0.00  0.00    -0.506 OA
ATOM     20  H   UNL     1      33.763 -23.791 -18.415  0.00  0.00    +0.292 HD
ENDBRANCH  18  19
ENDBRANCH  12  13
ENDBRANCH  11  12
ENDBRANCH   1  11
TORSDOF 8
ENDMDL
MODEL 3
REMARK VINA RESULT:      -7.2      1.527      2.874
REMARK  Name = 42396
REMARK  8 active torsions:
REMARK  status: ('A' for Active; 'I' for Inactive)
REMARK    1  A    between atoms: C_1  and  O_2
REMARK    2  A    between atoms: C_1  and  C_4
REMARK    3  A    between atoms: C_1  and  C_11
REMARK    4  A    between atoms: C_4  and  N_5
REMARK    5  A    between atoms: N_5  and  C_8
REMARK    6  A    between atoms: C_11  and  O_12
REMARK    7  A    between atoms: O_12  and  C_13
REMARK    8  A    between atoms: C_18  and  O_19
REMARK                            x       y       z     vdW  Elec       q    Type
REMARK                         _______ _______ _______ _____ _____    ______ ____
ROOT
ATOM      1  C   UNL     1      35.014 -17.634 -24.168  0.00  0.00    +0.133 C 
ENDROOT
BRANCH   1   2
ATOM      2  O   UNL     1      34.596 -17.763 -25.530  0.00  0.00    -0.383 OA
ATOM      3  H   UNL     1      35.285 -17.410 -26.114  0.00  0.00    +0.210 HD
ENDBRANCH   1   2
BRANCH   1   4
ATOM      4  C   UNL     1      34.265 -16.454 -23.547  0.00  0.00    -0.048 C 
BRANCH   4   5
ATOM      5  N   UNL     1      34.920 -15.961 -22.343  0.00  0.00    +0.387 N 
ATOM      6  H   UNL     1      35.903 -15.780 -22.548  0.00  0.00    -0.084 HD
ATOM      7  H   UNL     1      34.831 -16.667 -21.612  0.00  0.00    -0.084 HD
BRANCH   5   8
ATOM      8  C   UNL     1      34.296 -14.729 -21.878  0.00  0.00    -0.062 C 
ATOM      9  C   UNL     1      33.007 -15.040 -21.124  0.00  0.00    -0.023 C 
ATOM     10  C   UNL     1      34.028 -13.814 -23.069  0.00  0.00    -0.023 C 
ENDBRANCH   5   8
ENDBRANCH   4   5
ENDBRANCH   1   4
BRANCH   1  11
ATOM     11  C   UNL     1      34.757 -18.958 -23.450  0.00  0.00    +0.232 C 
BRANCH  11  12
ATOM     12  O   UNL     1      34.252 -18.683 -22.147  0.00  0.00    -0.473 OA
BRANCH  12  13
ATOM     13  C   UNL     1      34.402 -19.667 -21.207  0.00  0.00    +0.139 C 
ATOM     14  C   UNL     1      35.678 -20.099 -20.860  0.00  0.00    +0.040 C 
ATOM     15  C   UNL     1      33.279 -20.226 -20.606  0.00  0.00    +0.040 C 
ATOM     16  C   UNL     1      35.832 -21.103 -19.904  0.00  0.00    +0.040 C 
ATOM     17  C   UNL     1      33.433 -21.228 -19.649  0.00  0.00    +0.040 C 
ATOM     18  C   UNL     1      34.710 -21.666 -19.298  0.00  0.00    +0.134 C 
BRANCH  18  19
ATOM     19  O   UNL     1      34.860 -22.644 -18.362  0.00  0.00    -0.506 OA
ATOM     20  H   UNL     1      34.163 -23.251 -18.204  0.00  0.00    +0.292 HD
ENDBRANCH  18  19
ENDBRANCH  12  13
ENDBRANCH  11  12
ENDBRANCH   1  11
TORSDOF 8
ENDMDL
MODEL 4
REMARK VINA RESULT:      -7.1      1.404      2.066
REMARK  Name = 42396
REMARK  8 active torsions:
REMARK  status: ('A' for Active; 'I' for Inactive)
REMARK    1  A    between atoms: C_1  and  O_2
REMARK    2  A    between atoms: C_1  and  C_4
REMARK    3  A    between atoms: C_1  and  C_11
REMARK    4  A    between atoms: C_4  and  N_5
REMARK    5  A    between atoms: N_5  and  C_8
REMARK    6  A    between atoms: C_11  and  O_12
REMARK    7  A    between atoms: O_12  and  C_13
REMARK    8  A    between atoms: C_18  and  O_19
REMARK                            x       y       z     vdW  Elec       q    Type
REMARK                         _______ _______ _______ _____ _____    ______ ____
ROOT
ATOM      1  C   UNL     1      34.401 -15.851 -21.333  0.00  0.00    +0.133 C 
ENDROOT
BRANCH   1   2
ATOM      2  O   UNL     1      34.880 -15.073 -20.232  0.00  0.00    -0.383 OA
ATOM      3  H   UNL     1      35.398 -15.638 -19.638  0.00  0.00    +0.210 HD
ENDBRANCH   1   2
BRANCH   1   4
ATOM      4  C   UNL     1      34.547 -15.016 -22.607  0.00  0.00    -0.048 C 
BRANCH   4   5
ATOM      5  N   UNL     1      33.791 -15.577 -23.719  0.00  0.00    +0.387 N 
ATOM      6  H   UNL     1      33.100 -16.234 -23.355  0.00  0.00    -0.084 HD
ATOM      7  H   UNL     1      34.440 -16.052 -24.346  0.00  0.00    -0.084 HD
BRANCH   5   8
ATOM      8  C   UNL     1      33.105 -14.530 -24.463  0.00  0.00    -0.062 C 
ATOM      9  C   UNL     1      33.192 -14.802 -25.962  0.00  0.00    -0.023 C 
ATOM     10  C   UNL     1      33.716 -13.176 -24.116  0.00  0.00    -0.023 C 
ENDBRANCH   5   8
ENDBRANCH   4   5
ENDBRANCH   1   4
BRANCH   1  11
ATOM     11  C   UNL     1      35.179 -17.164 -21.379  0.00  0.00    +0.232 C 
BRANCH  11  12
ATOM     12  O   UNL     1      34.287 -18.215 -21.733  0.00  0.00    -0.473 OA
BRANCH  12  13
ATOM     13  C   UNL     1      34.370 -19.368 -21.000  0.00  0.00    +0.139 C 
ATOM     14  C   UNL     1      35.616 -19.929 -20.738  0.00  0.00    +0.040 C 
ATOM     15  C   UNL     1      33.210 -19.968 -20.522  0.00  0.00    +0.040 C 
ATOM     16  C   UNL     1      35.702 -21.104 -19.992  0.00  0.00    +0.040 C 
ATOM     17  C   UNL     1      33.297 -21.142 -19.774  0.00  0.00    +0.040 C 
ATOM     18  C   UNL     1      34.543 -21.710 -19.509  0.00  0.00    +0.134 C 
BRANCH  18  19
ATOM     19  O   UNL     1      34.626 -22.856 -18.778  0.00  0.00    -0.506 OA
ATOM     20  H   UNL     1      33.921 -23.101 -18.211  0.00  0.00    +0.292 HD
ENDBRANCH  18  19
ENDBRANCH  12  13
ENDBRANCH  11  12
ENDBRANCH   1  11
TORSDOF 8
ENDMDL
MODEL 5
REMARK VINA RESULT:      -6.9      4.932      8.835
REMARK  Name = 42396
REMARK  8 active torsions:
REMARK  status: ('A' for Active; 'I' for Inactive)
REMARK    1  A    between atoms: C_1  and  O_2
REMARK    2  A    between atoms: C_1  and  C_4
REMARK    3  A    between atoms: C_1  and  C_11
REMARK    4  A    between atoms: C_4  and  N_5
REMARK    5  A    between atoms: N_5  and  C_8
REMARK    6  A    between atoms: C_11  and  O_12
REMARK    7  A    between atoms: O_12  and  C_13
REMARK    8  A    between atoms: C_18  and  O_19
REMARK                            x       y       z     vdW  Elec       q    Type
REMARK                         _______ _______ _______ _____ _____    ______ ____
ROOT
ATOM      1  C   UNL     1      36.229 -23.278 -15.569  0.00  0.00    +0.133 C 
ENDROOT
BRANCH   1   2
ATOM      2  O   UNL     1      35.363 -24.379 -15.861  0.00  0.00    -0.383 OA
ATOM      3  H   UNL     1      35.265 -24.932 -15.070  0.00  0.00    +0.210 HD
ENDBRANCH   1   2
BRANCH   1   4
ATOM      4  C   UNL     1      37.584 -23.838 -15.134  0.00  0.00    -0.048 C 
BRANCH   4   5
ATOM      5  N   UNL     1      37.651 -25.286 -15.280  0.00  0.00    +0.387 N 
ATOM      6  H   UNL     1      37.822 -25.515 -16.260  0.00  0.00    -0.084 HD
ATOM      7  H   UNL     1      36.766 -25.686 -14.969  0.00  0.00    -0.084 HD
BRANCH   5   8
ATOM      8  C   UNL     1      38.725 -25.843 -14.468  0.00  0.00    -0.062 C 
ATOM      9  C   UNL     1      38.513 -25.493 -12.998  0.00  0.00    -0.023 C 
ATOM     10  C   UNL     1      40.066 -25.317 -14.969  0.00  0.00    -0.023 C 
ENDBRANCH   5   8
ENDBRANCH   4   5
ENDBRANCH   1   4
BRANCH   1  11
ATOM     11  C   UNL     1      36.314 -22.382 -16.802  0.00  0.00    +0.232 C 
BRANCH  11  12
ATOM     12  O   UNL     1      35.354 -22.822 -17.758  0.00  0.00    -0.473 OA
BRANCH  12  13
ATOM     13  C   UNL     1      35.025 -21.941 -18.752  0.00  0.00    +0.139 C 
ATOM     14  C   UNL     1      33.688 -21.738 -19.079  0.00  0.00    +0.040 C 
ATOM     15  C   UNL     1      36.030 -21.254 -19.427  0.00  0.00    +0.040 C 
ATOM     16  C   UNL     1      33.352 -20.840 -20.092  0.00  0.00    +0.040 C 
ATOM     17  C   UNL     1      35.693 -20.356 -20.438  0.00  0.00    +0.040 C 
ATOM     18  C   UNL     1      34.355 -20.149 -20.771  0.00  0.00    +0.134 C 
BRANCH  18  19
ATOM     19  O   UNL     1      34.027 -19.270 -21.759  0.00  0.00    -0.506 OA
ATOM     20  H   UNL     1      33.921 -18.360 -21.559  0.00  0.00    +0.292 HD
ENDBRANCH  18  19
ENDBRANCH  12  13
ENDBRANCH  11  12
ENDBRANCH   1  11
TORSDOF 8
ENDMDL
MODEL 6
REMARK VINA RESULT:      -6.8      2.442      6.472
REMARK  Name = 42396
REMARK  8 active torsions:
REMARK  status: ('A' for Active; 'I' for Inactive)
REMARK    1  A    between atoms: C_1  and  O_2
REMARK    2  A    between atoms: C_1  and  C_4
REMARK    3  A    between atoms: C_1  and  C_11
REMARK    4  A    between atoms: C_4  and  N_5
REMARK    5  A    between atoms: N_5  and  C_8
REMARK    6  A    between atoms: C_11  and  O_12
REMARK    7  A    between atoms: O_12  and  C_13
REMARK    8  A    between atoms: C_18  and  O_19
REMARK                            x       y       z     vdW  Elec       q    Type
REMARK                         _______ _______ _______ _____ _____    ______ ____
ROOT
ATOM      1  C   UNL     1      34.814 -18.299 -23.209  0.00  0.00    +0.133 C 
ENDROOT
BRANCH   1   2
ATOM      2  O   UNL     1      35.031 -19.380 -24.121  0.00  0.00    -0.383 OA
ATOM      3  H   UNL     1      34.936 -20.223 -23.651  0.00  0.00    +0.210 HD
ENDBRANCH   1   2
BRANCH   1   4
ATOM      4  C   UNL     1      35.783 -18.461 -22.036  0.00  0.00    -0.048 C 
BRANCH   4   5
ATOM      5  N   UNL     1      35.090 -18.765 -20.791  0.00  0.00    +0.387 N 
ATOM      6  H   UNL     1      34.290 -18.140 -20.694  0.00  0.00    -0.084 HD
ATOM      7  H   UNL     1      35.742 -18.636 -20.017  0.00  0.00    -0.084 HD
BRANCH   5   8
ATOM      8  C   UNL     1      34.621 -20.144 -20.779  0.00  0.00    -0.062 C 
ATOM      9  C   UNL     1      33.152 -20.200 -20.371  0.00  0.00    -0.023 C 
ATOM     10  C   UNL     1      35.485 -20.966 -19.828  0.00  0.00    -0.023 C 
ENDBRANCH   5   8
ENDBRANCH   4   5
ENDBRANCH   1   4
BRANCH   1  11
ATOM     11  C   UNL     1      34.992 -16.982 -23.961  0.00  0.00    +0.232 C 
BRANCH  11  12
ATOM     12  O   UNL     1      35.325 -15.960 -23.027  0.00  0.00    -0.473 OA
BRANCH  12  13
ATOM     13  C   UNL     1      34.335 -15.070 -22.709  0.00  0.00    +0.139 C 
ATOM     14  C   UNL     1      33.847 -14.205 -23.683  0.00  0.00    +0.040 C 
ATOM     15  C   UNL     1      33.823 -15.039 -21.416  0.00  0.00    +0.040 C 
ATOM     16  C   UNL     1      32.839 -13.297 -23.360  0.00  0.00    +0.040 C 
ATOM     17  C   UNL     1      32.814 -14.133 -21.093  0.00  0.00    +0.040 C 
ATOM     18  C   UNL     1      32.322 -13.262 -22.065  0.00  0.00    +0.134 C 
BRANCH  18  19
ATOM     19  O   UNL     1      31.335 -12.378 -21.749  0.00  0.00    -0.506 OA
ATOM     20  H   UNL     1      30.467 -12.509 -22.078  0.00  0.00    +0.292 HD
ENDBRANCH  18  19
ENDBRANCH  12  13
ENDBRANCH  11  12
ENDBRANCH   1  11
TORSDOF 8
ENDMDL
MODEL 7
REMARK VINA RESULT:      -6.8      4.509      8.482
REMARK  Name = 42396
REMARK  8 active torsions:
REMARK  status: ('A' for Active; 'I' for Inactive)
REMARK    1  A    between atoms: C_1  and  O_2
REMARK    2  A    between atoms: C_1  and  C_4
REMARK    3  A    between atoms: C_1  and  C_11
REMARK    4  A    between atoms: C_4  and  N_5
REMARK    5  A    between atoms: N_5  and  C_8
REMARK    6  A    between atoms: C_11  and  O_12
REMARK    7  A    between atoms: O_12  and  C_13
REMARK    8  A    between atoms: C_18  and  O_19
REMARK                            x       y       z     vdW  Elec       q    Type
REMARK                         _______ _______ _______ _____ _____    ______ ____
ROOT
ATOM      1  C   UNL     1      34.450 -23.567 -15.493  0.00  0.00    +0.133 C 
ENDROOT
BRANCH   1   2
ATOM      2  O   UNL     1      35.070 -22.407 -14.931  0.00  0.00    -0.383 OA
ATOM      3  H   UNL     1      36.022 -22.427 -15.117  0.00  0.00    +0.210 HD
ENDBRANCH   1   2
BRANCH   1   4
ATOM      4  C   UNL     1      33.471 -24.133 -14.463  0.00  0.00    -0.048 C 
BRANCH   4   5
ATOM      5  N   UNL     1      32.639 -23.095 -13.869  0.00  0.00    +0.387 N 
ATOM      6  H   UNL     1      32.714 -22.246 -14.431  0.00  0.00    -0.084 HD
ATOM      7  H   UNL     1      32.963 -22.924 -12.918  0.00  0.00    -0.084 HD
BRANCH   5   8
ATOM      8  C   UNL     1      31.244 -23.511 -13.819  0.00  0.00    -0.062 C 
ATOM      9  C   UNL     1      31.142 -25.032 -13.873  0.00  0.00    -0.023 C 
ATOM     10  C   UNL     1      30.480 -22.869 -14.973  0.00  0.00    -0.023 C 
ENDBRANCH   5   8
ENDBRANCH   4   5
ENDBRANCH   1   4
BRANCH   1  11
ATOM     11  C   UNL     1      33.782 -23.176 -16.810  0.00  0.00    +0.232 C 
BRANCH  11  12
ATOM     12  O   UNL     1      34.771 -23.136 -17.833  0.00  0.00    -0.473 OA
BRANCH  12  13
ATOM     13  C   UNL     1      34.646 -22.147 -18.772  0.00  0.00    +0.139 C 
ATOM     14  C   UNL     1      35.787 -21.587 -19.339  0.00  0.00    +0.040 C 
ATOM     15  C   UNL     1      33.381 -21.711 -19.152  0.00  0.00    +0.040 C 
ATOM     16  C   UNL     1      35.660 -20.579 -20.294  0.00  0.00    +0.040 C 
ATOM     17  C   UNL     1      33.255 -20.704 -20.108  0.00  0.00    +0.040 C 
ATOM     18  C   UNL     1      34.395 -20.138 -20.679  0.00  0.00    +0.134 C 
BRANCH  18  19
ATOM     19  O   UNL     1      34.270 -19.156 -21.614  0.00  0.00    -0.506 OA
ATOM     20  H   UNL     1      34.801 -18.385 -21.556  0.00  0.00    +0.292 HD
ENDBRANCH  18  19
ENDBRANCH  12  13
ENDBRANCH  11  12
ENDBRANCH   1  11
TORSDOF 8
ENDMDL
MODEL 8
REMARK VINA RESULT:      -6.8      4.585      8.626
REMARK  Name = 42396
REMARK  8 active torsions:
REMARK  status: ('A' for Active; 'I' for Inactive)
REMARK    1  A    between atoms: C_1  and  O_2
REMARK    2  A    between atoms: C_1  and  C_4
REMARK    3  A    between atoms: C_1  and  C_11
REMARK    4  A    between atoms: C_4  and  N_5
REMARK    5  A    between atoms: N_5  and  C_8
REMARK    6  A    between atoms: C_11  and  O_12
REMARK    7  A    between atoms: O_12  and  C_13
REMARK    8  A    between atoms: C_18  and  O_19
REMARK                            x       y       z     vdW  Elec       q    Type
REMARK                         _______ _______ _______ _____ _____    ______ ____
ROOT
ATOM      1  C   UNL     1      35.753 -23.101 -15.645  0.00  0.00    +0.133 C 
ENDROOT
BRANCH   1   2
ATOM      2  O   UNL     1      35.156 -24.355 -15.989  0.00  0.00    -0.383 OA
ATOM      3  H   UNL     1      35.102 -24.914 -15.198  0.00  0.00    +0.210 HD
ENDBRANCH   1   2
BRANCH   1   4
ATOM      4  C   UNL     1      36.969 -23.377 -14.758  0.00  0.00    -0.048 C 
BRANCH   4   5
ATOM      5  N   UNL     1      38.020 -24.087 -15.475  0.00  0.00    +0.387 N 
ATOM      6  H   UNL     1      38.739 -23.421 -15.758  0.00  0.00    -0.084 HD
ATOM      7  H   UNL     1      37.609 -24.537 -16.293  0.00  0.00    -0.084 HD
BRANCH   5   8
ATOM      8  C   UNL     1      38.624 -25.111 -14.634  0.00  0.00    -0.062 C 
ATOM      9  C   UNL     1      40.067 -25.364 -15.061  0.00  0.00    -0.023 C 
ATOM     10  C   UNL     1      37.796 -26.390 -14.717  0.00  0.00    -0.023 C 
ENDBRANCH   5   8
ENDBRANCH   4   5
ENDBRANCH   1   4
BRANCH   1  11
ATOM     11  C   UNL     1      36.101 -22.356 -16.932  0.00  0.00    +0.232 C 
BRANCH  11  12
ATOM     12  O   UNL     1      35.207 -22.770 -17.959  0.00  0.00    -0.473 OA
BRANCH  12  13
ATOM     13  C   UNL     1      34.910 -21.848 -18.927  0.00  0.00    +0.139 C 
ATOM     14  C   UNL     1      35.941 -21.185 -19.585  0.00  0.00    +0.040 C 
ATOM     15  C   UNL     1      33.582 -21.583 -19.245  0.00  0.00    +0.040 C 
ATOM     16  C   UNL     1      35.639 -20.245 -20.570  0.00  0.00    +0.040 C 
ATOM     17  C   UNL     1      33.281 -20.645 -20.231  0.00  0.00    +0.040 C 
ATOM     18  C   UNL     1      34.310 -19.975 -20.894  0.00  0.00    +0.134 C 
BRANCH  18  19
ATOM     19  O   UNL     1      34.015 -19.059 -21.858  0.00  0.00    -0.506 OA
ATOM     20  H   UNL     1      33.278 -19.195 -22.422  0.00  0.00    +0.292 HD
ENDBRANCH  18  19
ENDBRANCH  12  13
ENDBRANCH  11  12
ENDBRANCH   1  11
TORSDOF 8
ENDMDL
MODEL 9
REMARK VINA RESULT:      -6.8      3.997      7.798
REMARK  Name = 42396
REMARK  8 active torsions:
REMARK  status: ('A' for Active; 'I' for Inactive)
REMARK    1  A    between atoms: C_1  and  O_2
REMARK    2  A    between atoms: C_1  and  C_4
REMARK    3  A    between atoms: C_1  and  C_11
REMARK    4  A    between atoms: C_4  and  N_5
REMARK    5  A    between atoms: N_5  and  C_8
REMARK    6  A    between atoms: C_11  and  O_12
REMARK    7  A    between atoms: O_12  and  C_13
REMARK    8  A    between atoms: C_18  and  O_19
REMARK                            x       y       z     vdW  Elec       q    Type
REMARK                         _______ _______ _______ _____ _____    ______ ____
ROOT
ATOM      1  C   UNL     1      33.215 -23.176 -15.936  0.00  0.00    +0.133 C 
ENDROOT
BRANCH   1   2
ATOM      2  O   UNL     1      32.134 -23.918 -15.364  0.00  0.00    -0.383 OA
ATOM      3  H   UNL     1      32.332 -24.112 -14.434  0.00  0.00    +0.210 HD
ENDBRANCH   1   2
BRANCH   1   4
ATOM      4  C   UNL     1      34.525 -23.723 -15.366  0.00  0.00    -0.048 C 
BRANCH   4   5
ATOM      5  N   UNL     1      35.380 -22.665 -14.845  0.00  0.00    +0.387 N 
ATOM      6  H   UNL     1      35.168 -22.521 -13.857  0.00  0.00    -0.084 HD
ATOM      7  H   UNL     1      35.204 -21.813 -15.376  0.00  0.00    -0.084 HD
BRANCH   5   8
ATOM      8  C   UNL     1      36.787 -23.017 -14.983  0.00  0.00    -0.062 C 
ATOM      9  C   UNL     1      37.392 -22.315 -16.195  0.00  0.00    -0.023 C 
ATOM     10  C   UNL     1      36.923 -24.531 -15.102  0.00  0.00    -0.023 C 
ENDBRANCH   5   8
ENDBRANCH   4   5
ENDBRANCH   1   4
BRANCH   1  11
ATOM     11  C   UNL     1      33.129 -23.281 -17.457  0.00  0.00    +0.232 C 
BRANCH  11  12
ATOM     12  O   UNL     1      34.418 -23.030 -18.009  0.00  0.00    -0.473 OA
BRANCH  12  13
ATOM     13  C   UNL     1      34.509 -22.021 -18.930  0.00  0.00    +0.139 C 
ATOM     14  C   UNL     1      33.349 -21.421 -19.411  0.00  0.00    +0.040 C 
ATOM     15  C   UNL     1      35.758 -21.602 -19.374  0.00  0.00    +0.040 C 
ATOM     16  C   UNL     1      33.441 -20.393 -20.349  0.00  0.00    +0.040 C 
ATOM     17  C   UNL     1      35.849 -20.573 -20.311  0.00  0.00    +0.040 C 
ATOM     18  C   UNL     1      34.691 -19.969 -20.798  0.00  0.00    +0.134 C 
BRANCH  18  19
ATOM     19  O   UNL     1      34.781 -18.963 -21.712  0.00  0.00    -0.506 OA
ATOM     20  H   UNL     1      35.592 -18.506 -21.826  0.00  0.00    +0.292 HD
ENDBRANCH  18  19
ENDBRANCH  12  13
ENDBRANCH  11  12
ENDBRANCH   1  11
TORSDOF 8
ENDMDL
