MODEL 1
REMARK VINA RESULT:      -9.4      0.000      0.000
REMARK  Name = 17414308
REMARK  6 active torsions:
REMARK  status: ('A' for Active; 'I' for Inactive)
REMARK    1  A    between atoms: S_1  and  C_4
REMARK    2  A    between atoms: S_1  and  N_16
REMARK    3  A    between atoms: C_7  and  S_10
REMARK    4  A    between atoms: S_10  and  N_13
REMARK    5  A    between atoms: N_16  and  C_18
REMARK    6  A    between atoms: C_18  and  C_20
REMARK                            x       y       z     vdW  Elec       q    Type
REMARK                         _______ _______ _______ _____ _____    ______ ____
ROOT
ATOM      1  S   UNL     1      35.065 -17.963 -22.634  0.00  0.00    +0.064 S 
ATOM      2  O   UNL     1      36.507 -17.899 -22.776  0.00  0.00    -0.153 OA
ATOM      3  O   UNL     1      34.242 -18.188 -23.807  0.00  0.00    -0.153 OA
ENDROOT
BRANCH   1   4
ATOM      4  C   UNL     1      34.707 -19.262 -21.484  0.00  0.00    +0.122 C 
ATOM      5  C   UNL     1      33.383 -19.607 -21.214  0.00  0.00    +0.021 C 
ATOM      6  C   UNL     1      35.748 -19.940 -20.851  0.00  0.00    +0.021 C 
ATOM      7  C   UNL     1      34.141 -21.309 -19.677  0.00  0.00    +0.122 C 
ATOM      8  C   UNL     1      33.100 -20.631 -20.309  0.00  0.00    +0.021 C 
ATOM      9  C   UNL     1      35.465 -20.964 -19.948  0.00  0.00    +0.021 C 
BRANCH   7  10
ATOM     10  S   UNL     1      33.788 -22.590 -18.544  0.00  0.00    +0.057 S 
ATOM     11  O   UNL     1      34.850 -22.631 -17.549  0.00  0.00    -0.153 OA
ATOM     12  O   UNL     1      32.401 -22.461 -18.118  0.00  0.00    -0.153 OA
BRANCH  10  13
ATOM     13  N   UNL     1      33.923 -23.963 -19.553  0.00  0.00    -0.203 NA
ATOM     14  H   UNL     1      34.352 -23.693 -20.438  0.00  0.00    +0.144 HD
ATOM     15  H   UNL     1      32.996 -24.349 -19.728  0.00  0.00    +0.144 HD
ENDBRANCH  10  13
ENDBRANCH   7  10
ENDBRANCH   1   4
BRANCH   1  16
ATOM     16  N   UNL     1      34.507 -16.559 -21.801  0.00  0.00    -0.150 NA
ATOM     17  C   UNL     1      34.912 -16.388 -20.383  0.00  0.00    +0.115 C 
BRANCH  16  18
ATOM     18  C   UNL     1      33.106 -16.126 -22.036  0.00  0.00    +0.122 C 
BRANCH  18  20
ATOM     19 CL   UNL     1      33.048 -10.391 -23.829  0.00  0.00    -0.082 Cl
ATOM     20  C   UNL     1      33.091 -14.696 -22.482  0.00  0.00    -0.004 C 
ATOM     21  C   UNL     1      32.299 -13.764 -21.812  0.00  0.00    -0.002 C 
ATOM     22  C   UNL     1      33.870 -14.297 -23.570  0.00  0.00    -0.002 C 
ATOM     23  C   UNL     1      32.286 -12.432 -22.228  0.00  0.00    +0.011 C 
ATOM     24  C   UNL     1      33.856 -12.966 -23.986  0.00  0.00    +0.011 C 
ATOM     25  C   UNL     1      33.064 -12.034 -23.316  0.00  0.00    +0.058 C 
ENDBRANCH  18  20
ENDBRANCH  16  18
ENDBRANCH   1  16
TORSDOF 6
ENDMDL
MODEL 2
REMARK VINA RESULT:      -9.4      0.034      1.425
REMARK  Name = 17414308
REMARK  6 active torsions:
REMARK  status: ('A' for Active; 'I' for Inactive)
REMARK    1  A    between atoms: S_1  and  C_4
REMARK    2  A    between atoms: S_1  and  N_16
REMARK    3  A    between atoms: C_7  and  S_10
REMARK    4  A    between atoms: S_10  and  N_13
REMARK    5  A    between atoms: N_16  and  C_18
REMARK    6  A    between atoms: C_18  and  C_20
REMARK                            x       y       z     vdW  Elec       q    Type
REMARK                         _______ _______ _______ _____ _____    ______ ____
ROOT
ATOM      1  S   UNL     1      35.069 -18.003 -22.658  0.00  0.00    +0.064 S 
ATOM      2  O   UNL     1      36.512 -17.948 -22.804  0.00  0.00    -0.153 OA
ATOM      3  O   UNL     1      34.241 -18.231 -23.827  0.00  0.00    -0.153 OA
ENDROOT
BRANCH   1   4
ATOM      4  C   UNL     1      34.707 -19.292 -21.498  0.00  0.00    +0.122 C 
ATOM      5  C   UNL     1      35.747 -19.980 -20.875  0.00  0.00    +0.021 C 
ATOM      6  C   UNL     1      33.382 -19.617 -21.209  0.00  0.00    +0.021 C 
ATOM      7  C   UNL     1      34.138 -21.320 -19.671  0.00  0.00    +0.122 C 
ATOM      8  C   UNL     1      35.462 -20.995 -19.961  0.00  0.00    +0.021 C 
ATOM      9  C   UNL     1      33.098 -20.631 -20.294  0.00  0.00    +0.021 C 
BRANCH   7  10
ATOM     10  S   UNL     1      33.781 -22.591 -18.527  0.00  0.00    +0.057 S 
ATOM     11  O   UNL     1      34.844 -22.626 -17.533  0.00  0.00    -0.153 OA
ATOM     12  O   UNL     1      32.395 -22.453 -18.101  0.00  0.00    -0.153 OA
BRANCH  10  13
ATOM     13  N   UNL     1      33.911 -23.973 -19.524  0.00  0.00    -0.203 NA
ATOM     14  H   UNL     1      33.691 -23.720 -20.487  0.00  0.00    +0.144 HD
ATOM     15  H   UNL     1      33.258 -24.687 -19.202  0.00  0.00    +0.144 HD
ENDBRANCH  10  13
ENDBRANCH   7  10
ENDBRANCH   1   4
BRANCH   1  16
ATOM     16  N   UNL     1      34.522 -16.590 -21.833  0.00  0.00    -0.150 NA
ATOM     17  C   UNL     1      34.938 -16.407 -20.420  0.00  0.00    +0.115 C 
BRANCH  16  18
ATOM     18  C   UNL     1      33.120 -16.155 -22.061  0.00  0.00    +0.122 C 
BRANCH  18  20
ATOM     19 CL   UNL     1      33.055 -10.405 -23.802  0.00  0.00    -0.082 Cl
ATOM     20  C   UNL     1      33.104 -14.722 -22.496  0.00  0.00    -0.004 C 
ATOM     21  C   UNL     1      33.878 -14.313 -23.582  0.00  0.00    -0.002 C 
ATOM     22  C   UNL     1      32.315 -13.795 -21.813  0.00  0.00    -0.002 C 
ATOM     23  C   UNL     1      33.863 -12.978 -23.986  0.00  0.00    +0.011 C 
ATOM     24  C   UNL     1      32.300 -12.461 -22.218  0.00  0.00    +0.011 C 
ATOM     25  C   UNL     1      33.074 -12.051 -23.303  0.00  0.00    +0.058 C 
ENDBRANCH  18  20
ENDBRANCH  16  18
ENDBRANCH   1  16
TORSDOF 6
ENDMDL
MODEL 3
REMARK VINA RESULT:      -9.2      1.590      2.461
REMARK  Name = 17414308
REMARK  6 active torsions:
REMARK  status: ('A' for Active; 'I' for Inactive)
REMARK    1  A    between atoms: S_1  and  C_4
REMARK    2  A    between atoms: S_1  and  N_16
REMARK    3  A    between atoms: C_7  and  S_10
REMARK    4  A    between atoms: S_10  and  N_13
REMARK    5  A    between atoms: N_16  and  C_18
REMARK    6  A    between atoms: C_18  and  C_20
REMARK                            x       y       z     vdW  Elec       q    Type
REMARK                         _______ _______ _______ _____ _____    ______ ____
ROOT
ATOM      1  S   UNL     1      35.834 -18.063 -21.639  0.00  0.00    +0.064 S 
ATOM      2  O   UNL     1      35.681 -16.911 -20.771  0.00  0.00    -0.153 OA
ATOM      3  O   UNL     1      37.152 -18.415 -22.132  0.00  0.00    -0.153 OA
ENDROOT
BRANCH   1   4
ATOM      4  C   UNL     1      35.209 -19.469 -20.761  0.00  0.00    +0.122 C 
ATOM      5  C   UNL     1      36.094 -20.391 -20.203  0.00  0.00    +0.021 C 
ATOM      6  C   UNL     1      33.833 -19.653 -20.628  0.00  0.00    +0.021 C 
ATOM      7  C   UNL     1      34.226 -21.682 -19.378  0.00  0.00    +0.122 C 
ATOM      8  C   UNL     1      35.602 -21.498 -19.511  0.00  0.00    +0.021 C 
ATOM      9  C   UNL     1      33.341 -20.759 -19.935  0.00  0.00    +0.021 C 
BRANCH   7  10
ATOM     10  S   UNL     1      33.610 -23.067 -18.511  0.00  0.00    +0.057 S 
ATOM     11  O   UNL     1      32.280 -22.745 -18.014  0.00  0.00    -0.153 OA
ATOM     12  O   UNL     1      33.807 -24.252 -19.335  0.00  0.00    -0.153 OA
BRANCH  10  13
ATOM     13  N   UNL     1      34.693 -23.133 -17.191  0.00  0.00    -0.203 NA
ATOM     14  H   UNL     1      34.443 -22.415 -16.510  0.00  0.00    +0.144 HD
ATOM     15  H   UNL     1      35.644 -22.972 -17.522  0.00  0.00    +0.144 HD
ENDBRANCH  10  13
ENDBRANCH   7  10
ENDBRANCH   1   4
BRANCH   1  16
ATOM     16  N   UNL     1      34.741 -17.932 -22.967  0.00  0.00    -0.150 NA
ATOM     17  C   UNL     1      34.474 -19.153 -23.768  0.00  0.00    +0.115 C 
BRANCH  16  18
ATOM     18  C   UNL     1      34.826 -16.716 -23.817  0.00  0.00    +0.122 C 
BRANCH  18  20
ATOM     19 CL   UNL     1      31.626 -12.290 -21.314  0.00  0.00    -0.082 Cl
ATOM     20  C   UNL     1      34.028 -15.612 -23.194  0.00  0.00    -0.004 C 
ATOM     21  C   UNL     1      34.117 -14.316 -23.699  0.00  0.00    -0.002 C 
ATOM     22  C   UNL     1      33.195 -15.882 -22.106  0.00  0.00    -0.002 C 
ATOM     23  C   UNL     1      33.374 -13.288 -23.118  0.00  0.00    +0.011 C 
ATOM     24  C   UNL     1      32.453 -14.854 -21.526  0.00  0.00    +0.011 C 
ATOM     25  C   UNL     1      32.542 -13.557 -22.031  0.00  0.00    +0.058 C 
ENDBRANCH  18  20
ENDBRANCH  16  18
ENDBRANCH   1  16
TORSDOF 6
ENDMDL
MODEL 4
REMARK VINA RESULT:      -8.6      7.421      9.315
REMARK  Name = 17414308
REMARK  6 active torsions:
REMARK  status: ('A' for Active; 'I' for Inactive)
REMARK    1  A    between atoms: S_1  and  C_4
REMARK    2  A    between atoms: S_1  and  N_16
REMARK    3  A    between atoms: C_7  and  S_10
REMARK    4  A    between atoms: S_10  and  N_13
REMARK    5  A    between atoms: N_16  and  C_18
REMARK    6  A    between atoms: C_18  and  C_20
REMARK                            x       y       z     vdW  Elec       q    Type
REMARK                         _______ _______ _______ _____ _____    ______ ____
ROOT
ATOM      1  S   UNL     1      32.775 -24.098 -14.224  0.00  0.00    +0.064 S 
ATOM      2  O   UNL     1      32.114 -25.390 -14.239  0.00  0.00    -0.153 OA
ATOM      3  O   UNL     1      32.519 -23.179 -13.131  0.00  0.00    -0.153 OA
ENDROOT
BRANCH   1   4
ATOM      4  C   UNL     1      34.520 -24.400 -14.258  0.00  0.00    +0.122 C 
ATOM      5  C   UNL     1      35.022 -25.512 -14.934  0.00  0.00    +0.021 C 
ATOM      6  C   UNL     1      35.392 -23.525 -13.611  0.00  0.00    +0.021 C 
ATOM      7  C   UNL     1      37.268 -24.874 -14.315  0.00  0.00    +0.122 C 
ATOM      8  C   UNL     1      36.396 -25.749 -14.962  0.00  0.00    +0.021 C 
ATOM      9  C   UNL     1      36.766 -23.761 -13.640  0.00  0.00    +0.021 C 
BRANCH   7  10
ATOM     10  S   UNL     1      38.988 -25.171 -14.350  0.00  0.00    +0.057 S 
ATOM     11  O   UNL     1      39.579 -24.596 -13.149  0.00  0.00    -0.153 OA
ATOM     12  O   UNL     1      39.209 -26.576 -14.663  0.00  0.00    -0.153 OA
BRANCH  10  13
ATOM     13  N   UNL     1      39.454 -24.230 -15.698  0.00  0.00    -0.203 NA
ATOM     14  H   UNL     1      38.631 -24.007 -16.258  0.00  0.00    +0.144 HD
ATOM     15  H   UNL     1      40.118 -24.756 -16.266  0.00  0.00    +0.144 HD
ENDBRANCH  10  13
ENDBRANCH   7  10
ENDBRANCH   1   4
BRANCH   1  16
ATOM     16  N   UNL     1      32.502 -23.296 -15.726  0.00  0.00    -0.150 NA
ATOM     17  C   UNL     1      31.193 -22.624 -15.925  0.00  0.00    +0.115 C 
BRANCH  16  18
ATOM     18  C   UNL     1      32.979 -23.962 -16.964  0.00  0.00    +0.122 C 
BRANCH  18  20
ATOM     19 CL   UNL     1      36.602 -20.241 -19.985  0.00  0.00    -0.082 Cl
ATOM     20  C   UNL     1      33.881 -23.035 -17.718  0.00  0.00    -0.004 C 
ATOM     21  C   UNL     1      33.428 -22.410 -18.880  0.00  0.00    -0.002 C 
ATOM     22  C   UNL     1      35.177 -22.795 -17.257  0.00  0.00    -0.002 C 
ATOM     23  C   UNL     1      34.269 -21.546 -19.581  0.00  0.00    +0.011 C 
ATOM     24  C   UNL     1      36.017 -21.932 -17.958  0.00  0.00    +0.011 C 
ATOM     25  C   UNL     1      35.564 -21.307 -19.120  0.00  0.00    +0.058 C 
ENDBRANCH  18  20
ENDBRANCH  16  18
ENDBRANCH   1  16
TORSDOF 6
ENDMDL
MODEL 5
REMARK VINA RESULT:      -8.4      1.613      2.156
REMARK  Name = 17414308
REMARK  6 active torsions:
REMARK  status: ('A' for Active; 'I' for Inactive)
REMARK    1  A    between atoms: S_1  and  C_4
REMARK    2  A    between atoms: S_1  and  N_16
REMARK    3  A    between atoms: C_7  and  S_10
REMARK    4  A    between atoms: S_10  and  N_13
REMARK    5  A    between atoms: N_16  and  C_18
REMARK    6  A    between atoms: C_18  and  C_20
REMARK                            x       y       z     vdW  Elec       q    Type
REMARK                         _______ _______ _______ _____ _____    ______ ____
ROOT
ATOM      1  S   UNL     1      35.076 -18.486 -22.162  0.00  0.00    +0.064 S 
ATOM      2  O   UNL     1      36.521 -18.364 -22.210  0.00  0.00    -0.153 OA
ATOM      3  O   UNL     1      34.342 -18.764 -23.382  0.00  0.00    -0.153 OA
ENDROOT
BRANCH   1   4
ATOM      4  C   UNL     1      34.696 -19.782 -21.015  0.00  0.00    +0.122 C 
ATOM      5  C   UNL     1      33.367 -20.099 -20.738  0.00  0.00    +0.021 C 
ATOM      6  C   UNL     1      35.726 -20.485 -20.391  0.00  0.00    +0.021 C 
ATOM      7  C   UNL     1      34.097 -21.823 -19.212  0.00  0.00    +0.122 C 
ATOM      8  C   UNL     1      33.067 -21.120 -19.836  0.00  0.00    +0.021 C 
ATOM      9  C   UNL     1      35.426 -21.507 -19.489  0.00  0.00    +0.021 C 
BRANCH   7  10
ATOM     10  S   UNL     1      33.722 -23.101 -18.082  0.00  0.00    +0.057 S 
ATOM     11  O   UNL     1      33.664 -24.359 -18.813  0.00  0.00    -0.153 OA
ATOM     12  O   UNL     1      34.605 -22.974 -16.931  0.00  0.00    -0.153 OA
BRANCH  10  13
ATOM     13  N   UNL     1      32.140 -22.664 -17.609  0.00  0.00    -0.203 NA
ATOM     14  H   UNL     1      31.495 -23.421 -17.836  0.00  0.00    +0.144 HD
ATOM     15  H   UNL     1      31.858 -21.818 -18.105  0.00  0.00    +0.144 HD
ENDBRANCH  10  13
ENDBRANCH   7  10
ENDBRANCH   1   4
BRANCH   1  16
ATOM     16  N   UNL     1      34.407 -17.095 -21.393  0.00  0.00    -0.150 NA
ATOM     17  C   UNL     1      32.932 -17.037 -21.227  0.00  0.00    +0.115 C 
BRANCH  16  18
ATOM     18  C   UNL     1      34.980 -15.770 -21.739  0.00  0.00    +0.122 C 
BRANCH  18  20
ATOM     19 CL   UNL     1      32.491 -13.763 -26.825  0.00  0.00    -0.082 Cl
ATOM     20  C   UNL     1      34.360 -15.270 -23.007  0.00  0.00    -0.004 C 
ATOM     21  C   UNL     1      34.503 -15.998 -24.188  0.00  0.00    -0.002 C 
ATOM     22  C   UNL     1      33.638 -14.075 -23.006  0.00  0.00    -0.002 C 
ATOM     23  C   UNL     1      33.925 -15.532 -25.369  0.00  0.00    +0.011 C 
ATOM     24  C   UNL     1      33.061 -13.610 -24.187  0.00  0.00    +0.011 C 
ATOM     25  C   UNL     1      33.204 -14.337 -25.369  0.00  0.00    +0.058 C 
ENDBRANCH  18  20
ENDBRANCH  16  18
ENDBRANCH   1  16
TORSDOF 6
ENDMDL
MODEL 6
REMARK VINA RESULT:      -8.3      5.568      9.909
REMARK  Name = 17414308
REMARK  6 active torsions:
REMARK  status: ('A' for Active; 'I' for Inactive)
REMARK    1  A    between atoms: S_1  and  C_4
REMARK    2  A    between atoms: S_1  and  N_16
REMARK    3  A    between atoms: C_7  and  S_10
REMARK    4  A    between atoms: S_10  and  N_13
REMARK    5  A    between atoms: N_16  and  C_18
REMARK    6  A    between atoms: C_18  and  C_20
REMARK                            x       y       z     vdW  Elec       q    Type
REMARK                         _______ _______ _______ _____ _____    ______ ____
ROOT
ATOM      1  S   UNL     1      33.416 -22.888 -18.203  0.00  0.00    +0.064 S 
ATOM      2  O   UNL     1      32.027 -22.606 -17.892  0.00  0.00    -0.153 OA
ATOM      3  O   UNL     1      33.767 -24.156 -18.816  0.00  0.00    -0.153 OA
ENDROOT
BRANCH   1   4
ATOM      4  C   UNL     1      33.983 -21.607 -19.286  0.00  0.00    +0.122 C 
ATOM      5  C   UNL     1      33.069 -20.719 -19.854  0.00  0.00    +0.021 C 
ATOM      6  C   UNL     1      35.343 -21.484 -19.570  0.00  0.00    +0.021 C 
ATOM      7  C   UNL     1      34.876 -19.587 -20.990  0.00  0.00    +0.122 C 
ATOM      8  C   UNL     1      33.516 -19.710 -20.707  0.00  0.00    +0.021 C 
ATOM      9  C   UNL     1      35.790 -20.473 -20.422  0.00  0.00    +0.021 C 
BRANCH   7  10
ATOM     10  S   UNL     1      35.435 -18.323 -22.057  0.00  0.00    +0.057 S 
ATOM     11  O   UNL     1      36.884 -18.418 -22.163  0.00  0.00    -0.153 OA
ATOM     12  O   UNL     1      34.619 -18.342 -23.263  0.00  0.00    -0.153 OA
BRANCH  10  13
ATOM     13  N   UNL     1      35.037 -16.931 -21.150  0.00  0.00    -0.203 NA
ATOM     14  H   UNL     1      35.888 -16.415 -20.928  0.00  0.00    +0.144 HD
ATOM     15  H   UNL     1      34.574 -17.210 -20.285  0.00  0.00    +0.144 HD
ENDBRANCH  10  13
ENDBRANCH   7  10
ENDBRANCH   1   4
BRANCH   1  16
ATOM     16  N   UNL     1      34.381 -22.645 -16.794  0.00  0.00    -0.150 NA
ATOM     17  C   UNL     1      35.855 -22.594 -16.964  0.00  0.00    +0.115 C 
BRANCH  16  18
ATOM     18  C   UNL     1      33.989 -23.361 -15.554  0.00  0.00    +0.122 C 
BRANCH  18  20
ATOM     19 CL   UNL     1      38.866 -25.744 -12.978  0.00  0.00    -0.082 Cl
ATOM     20  C   UNL     1      35.204 -23.956 -14.912  0.00  0.00    -0.004 C 
ATOM     21  C   UNL     1      35.603 -25.252 -15.238  0.00  0.00    -0.002 C 
ATOM     22  C   UNL     1      35.938 -23.212 -13.987  0.00  0.00    -0.002 C 
ATOM     23  C   UNL     1      36.735 -25.805 -14.641  0.00  0.00    +0.011 C 
ATOM     24  C   UNL     1      37.070 -23.766 -13.389  0.00  0.00    +0.011 C 
ATOM     25  C   UNL     1      37.469 -25.062 -13.715  0.00  0.00    +0.058 C 
ENDBRANCH  18  20
ENDBRANCH  16  18
ENDBRANCH   1  16
TORSDOF 6
ENDMDL
MODEL 7
REMARK VINA RESULT:      -8.2      4.348      8.469
REMARK  Name = 17414308
REMARK  6 active torsions:
REMARK  status: ('A' for Active; 'I' for Inactive)
REMARK    1  A    between atoms: S_1  and  C_4
REMARK    2  A    between atoms: S_1  and  N_16
REMARK    3  A    between atoms: C_7  and  S_10
REMARK    4  A    between atoms: S_10  and  N_13
REMARK    5  A    between atoms: N_16  and  C_18
REMARK    6  A    between atoms: C_18  and  C_20
REMARK                            x       y       z     vdW  Elec       q    Type
REMARK                         _______ _______ _______ _____ _____    ______ ____
ROOT
ATOM      1  S   UNL     1      34.149 -16.400 -21.340  0.00  0.00    +0.064 S 
ATOM      2  O   UNL     1      34.998 -15.590 -20.488  0.00  0.00    -0.153 OA
ATOM      3  O   UNL     1      32.833 -16.793 -20.870  0.00  0.00    -0.153 OA
ENDROOT
BRANCH   1   4
ATOM      4  C   UNL     1      33.920 -15.509 -22.854  0.00  0.00    +0.122 C 
ATOM      5  C   UNL     1      33.849 -14.116 -22.838  0.00  0.00    +0.021 C 
ATOM      6  C   UNL     1      33.812 -16.200 -24.060  0.00  0.00    +0.021 C 
ATOM      7  C   UNL     1      33.562 -14.105 -25.237  0.00  0.00    +0.122 C 
ATOM      8  C   UNL     1      33.670 -13.415 -24.030  0.00  0.00    +0.021 C 
ATOM      9  C   UNL     1      33.634 -15.498 -25.252  0.00  0.00    +0.021 C 
BRANCH   7  10
ATOM     10  S   UNL     1      33.338 -13.227 -26.729  0.00  0.00    +0.057 S 
ATOM     11  O   UNL     1      33.507 -11.806 -26.456  0.00  0.00    -0.153 OA
ATOM     12  O   UNL     1      34.137 -13.864 -27.766  0.00  0.00    -0.153 OA
BRANCH  10  13
ATOM     13  N   UNL     1      31.687 -13.535 -27.044  0.00  0.00    -0.203 NA
ATOM     14  H   UNL     1      31.197 -12.653 -27.188  0.00  0.00    +0.144 HD
ATOM     15  H   UNL     1      31.275 -14.027 -26.250  0.00  0.00    +0.144 HD
ENDBRANCH  10  13
ENDBRANCH   7  10
ENDBRANCH   1   4
BRANCH   1  16
ATOM     16  N   UNL     1      35.016 -17.800 -21.854  0.00  0.00    -0.150 NA
ATOM     17  C   UNL     1      36.184 -17.601 -22.749  0.00  0.00    +0.115 C 
BRANCH  16  18
ATOM     18  C   UNL     1      34.231 -19.004 -22.224  0.00  0.00    +0.122 C 
BRANCH  18  20
ATOM     19 CL   UNL     1      34.247 -22.896 -17.646  0.00  0.00    -0.082 Cl
ATOM     20  C   UNL     1      34.234 -19.975 -21.083  0.00  0.00    -0.004 C 
ATOM     21  C   UNL     1      33.031 -20.368 -20.497  0.00  0.00    -0.002 C 
ATOM     22  C   UNL     1      35.442 -20.485 -20.605  0.00  0.00    -0.002 C 
ATOM     23  C   UNL     1      33.034 -21.272 -19.435  0.00  0.00    +0.011 C 
ATOM     24  C   UNL     1      35.445 -21.388 -19.542  0.00  0.00    +0.011 C 
ATOM     25  C   UNL     1      34.242 -21.781 -18.957  0.00  0.00    +0.058 C 
ENDBRANCH  18  20
ENDBRANCH  16  18
ENDBRANCH   1  16
TORSDOF 6
ENDMDL
MODEL 8
REMARK VINA RESULT:      -8.2      4.524      8.124
REMARK  Name = 17414308
REMARK  6 active torsions:
REMARK  status: ('A' for Active; 'I' for Inactive)
REMARK    1  A    between atoms: S_1  and  C_4
REMARK    2  A    between atoms: S_1  and  N_16
REMARK    3  A    between atoms: C_7  and  S_10
REMARK    4  A    between atoms: S_10  and  N_13
REMARK    5  A    between atoms: N_16  and  C_18
REMARK    6  A    between atoms: C_18  and  C_20
REMARK                            x       y       z     vdW  Elec       q    Type
REMARK                         _______ _______ _______ _____ _____    ______ ____
ROOT
ATOM      1  S   UNL     1      34.552 -16.348 -23.610  0.00  0.00    +0.064 S 
ATOM      2  O   UNL     1      33.717 -16.929 -24.644  0.00  0.00    -0.153 OA
ATOM      3  O   UNL     1      35.897 -15.912 -23.940  0.00  0.00    -0.153 OA
ENDROOT
BRANCH   1   4
ATOM      4  C   UNL     1      33.689 -14.942 -22.965  0.00  0.00    +0.122 C 
ATOM      5  C   UNL     1      32.920 -15.067 -21.808  0.00  0.00    +0.021 C 
ATOM      6  C   UNL     1      33.780 -13.711 -23.613  0.00  0.00    +0.021 C 
ATOM      7  C   UNL     1      32.332 -12.729 -21.947  0.00  0.00    +0.122 C 
ATOM      8  C   UNL     1      32.241 -13.960 -21.300  0.00  0.00    +0.021 C 
ATOM      9  C   UNL     1      33.101 -12.603 -23.103  0.00  0.00    +0.021 C 
BRANCH   7  10
ATOM     10  S   UNL     1      31.481 -11.343 -21.310  0.00  0.00    +0.057 S 
ATOM     11  O   UNL     1      32.173 -10.138 -21.748  0.00  0.00    -0.153 OA
ATOM     12  O   UNL     1      30.061 -11.503 -21.589  0.00  0.00    -0.153 OA
BRANCH  10  13
ATOM     13  N   UNL     1      31.736 -11.547 -19.633  0.00  0.00    -0.203 NA
ATOM     14  H   UNL     1      30.955 -12.065 -19.231  0.00  0.00    +0.144 HD
ATOM     15  H   UNL     1      31.803 -10.633 -19.186  0.00  0.00    +0.144 HD
ENDBRANCH  10  13
ENDBRANCH   7  10
ENDBRANCH   1   4
BRANCH   1  16
ATOM     16  N   UNL     1      34.610 -17.410 -22.252  0.00  0.00    -0.150 NA
ATOM     17  C   UNL     1      35.033 -16.843 -20.947  0.00  0.00    +0.115 C 
BRANCH  16  18
ATOM     18  C   UNL     1      35.146 -18.778 -22.465  0.00  0.00    +0.122 C 
BRANCH  18  20
ATOM     19 CL   UNL     1      33.092 -22.438 -18.166  0.00  0.00    -0.082 Cl
ATOM     20  C   UNL     1      34.634 -19.690 -21.394  0.00  0.00    -0.004 C 
ATOM     21  C   UNL     1      33.266 -19.756 -21.128  0.00  0.00    -0.002 C 
ATOM     22  C   UNL     1      35.525 -20.475 -20.660  0.00  0.00    -0.002 C 
ATOM     23  C   UNL     1      32.789 -20.606 -20.131  0.00  0.00    +0.011 C 
ATOM     24  C   UNL     1      35.048 -21.324 -19.662  0.00  0.00    +0.011 C 
ATOM     25  C   UNL     1      33.681 -21.390 -19.397  0.00  0.00    +0.058 C 
ENDBRANCH  18  20
ENDBRANCH  16  18
ENDBRANCH   1  16
TORSDOF 6
ENDMDL
MODEL 9
REMARK VINA RESULT:      -8.2      4.547      8.187
REMARK  Name = 17414308
REMARK  6 active torsions:
REMARK  status: ('A' for Active; 'I' for Inactive)
REMARK    1  A    between atoms: S_1  and  C_4
REMARK    2  A    between atoms: S_1  and  N_16
REMARK    3  A    between atoms: C_7  and  S_10
REMARK    4  A    between atoms: S_10  and  N_13
REMARK    5  A    between atoms: N_16  and  C_18
REMARK    6  A    between atoms: C_18  and  C_20
REMARK                            x       y       z     vdW  Elec       q    Type
REMARK                         _______ _______ _______ _____ _____    ______ ____
ROOT
ATOM      1  S   UNL     1      34.486 -16.232 -23.493  0.00  0.00    +0.064 S 
ATOM      2  O   UNL     1      33.647 -16.763 -24.550  0.00  0.00    -0.153 OA
ATOM      3  O   UNL     1      35.824 -15.766 -23.809  0.00  0.00    -0.153 OA
ENDROOT
BRANCH   1   4
ATOM      4  C   UNL     1      33.616 -14.872 -22.764  0.00  0.00    +0.122 C 
ATOM      5  C   UNL     1      33.588 -13.636 -23.410  0.00  0.00    +0.021 C 
ATOM      6  C   UNL     1      32.958 -15.038 -21.545  0.00  0.00    +0.021 C 
ATOM      7  C   UNL     1      32.245 -12.731 -21.618  0.00  0.00    +0.122 C 
ATOM      8  C   UNL     1      32.902 -12.566 -22.836  0.00  0.00    +0.021 C 
ATOM      9  C   UNL     1      32.272 -13.967 -20.973  0.00  0.00    +0.021 C 
BRANCH   7  10
ATOM     10  S   UNL     1      31.386 -11.391 -20.900  0.00  0.00    +0.057 S 
ATOM     11  O   UNL     1      29.983 -11.487 -21.279  0.00  0.00    -0.153 OA
ATOM     12  O   UNL     1      31.751 -11.308 -19.493  0.00  0.00    -0.153 OA
BRANCH  10  13
ATOM     13  N   UNL     1      32.091 -10.072 -21.727  0.00  0.00    -0.203 NA
ATOM     14  H   UNL     1      32.605  -9.491 -21.065  0.00  0.00    +0.144 HD
ATOM     15  H   UNL     1      31.358  -9.517 -22.169  0.00  0.00    +0.144 HD
ENDBRANCH  10  13
ENDBRANCH   7  10
ENDBRANCH   1   4
BRANCH   1  16
ATOM     16  N   UNL     1      34.565 -17.367 -22.196  0.00  0.00    -0.150 NA
ATOM     17  C   UNL     1      35.107 -16.897 -20.896  0.00  0.00    +0.115 C 
BRANCH  16  18
ATOM     18  C   UNL     1      35.002 -18.751 -22.513  0.00  0.00    +0.122 C 
BRANCH  18  20
ATOM     19 CL   UNL     1      33.227 -22.468 -18.139  0.00  0.00    -0.082 Cl
ATOM     20  C   UNL     1      34.560 -19.677 -21.422  0.00  0.00    -0.004 C 
ATOM     21  C   UNL     1      35.501 -20.435 -20.726  0.00  0.00    -0.002 C 
ATOM     22  C   UNL     1      33.205 -19.783 -21.104  0.00  0.00    -0.002 C 
ATOM     23  C   UNL     1      35.090 -21.298 -19.710  0.00  0.00    +0.011 C 
ATOM     24  C   UNL     1      32.794 -20.646 -20.089  0.00  0.00    +0.011 C 
ATOM     25  C   UNL     1      33.735 -21.404 -19.392  0.00  0.00    +0.058 C 
ENDBRANCH  18  20
ENDBRANCH  16  18
ENDBRANCH   1  16
TORSDOF 6
ENDMDL
