MODEL 1
REMARK VINA RESULT:      -4.2      0.000      0.000
REMARK  Name = 1061
REMARK  0 active torsions:
REMARK  status: ('A' for Active; 'I' for Inactive)
REMARK                            x       y       z     vdW  Elec       q    Type
REMARK                         _______ _______ _______ _____ _____    ______ ____
ROOT
ATOM      1  P   UNL     1      27.851 -22.639 -16.895  0.00  0.00    +0.559 P 
ATOM      2  O   UNL     1      27.536 -23.911 -17.699  0.00  0.00    -0.113 OA
ATOM      3  O   UNL     1      27.481 -22.861 -15.419  0.00  0.00    -0.220 OA
ATOM      4  O   UNL     1      29.352 -22.322 -17.005  0.00  0.00    -0.113 OA
ATOM      5  O   UNL     1      27.036 -21.462 -17.456  0.00  0.00    -0.113 OA
ENDROOT
TORSDOF 0
ENDMDL
MODEL 2
REMARK VINA RESULT:      -4.2      0.003      1.945
REMARK  Name = 1061
REMARK  0 active torsions:
REMARK  status: ('A' for Active; 'I' for Inactive)
REMARK                            x       y       z     vdW  Elec       q    Type
REMARK                         _______ _______ _______ _____ _____    ______ ____
ROOT
ATOM      1  P   UNL     1      27.850 -22.637 -16.895  0.00  0.00    +0.559 P 
ATOM      2  O   UNL     1      29.350 -22.320 -17.004  0.00  0.00    -0.113 OA
ATOM      3  O   UNL     1      27.479 -22.859 -15.419  0.00  0.00    -0.220 OA
ATOM      4  O   UNL     1      27.035 -21.460 -17.456  0.00  0.00    -0.113 OA
ATOM      5  O   UNL     1      27.534 -23.909 -17.699  0.00  0.00    -0.113 OA
ENDROOT
TORSDOF 0
ENDMDL
MODEL 3
REMARK VINA RESULT:      -4.2      0.002      1.945
REMARK  Name = 1061
REMARK  0 active torsions:
REMARK  status: ('A' for Active; 'I' for Inactive)
REMARK                            x       y       z     vdW  Elec       q    Type
REMARK                         _______ _______ _______ _____ _____    ______ ____
ROOT
ATOM      1  P   UNL     1      27.850 -22.637 -16.895  0.00  0.00    +0.559 P 
ATOM      2  O   UNL     1      27.534 -23.909 -17.699  0.00  0.00    -0.113 OA
ATOM      3  O   UNL     1      27.036 -21.460 -17.456  0.00  0.00    -0.220 OA
ATOM      4  O   UNL     1      27.479 -22.860 -15.419  0.00  0.00    -0.113 OA
ATOM      5  O   UNL     1      29.351 -22.321 -17.004  0.00  0.00    -0.113 OA
ENDROOT
TORSDOF 0
ENDMDL
MODEL 4
REMARK VINA RESULT:      -4.2      0.003      2.246
REMARK  Name = 1061
REMARK  0 active torsions:
REMARK  status: ('A' for Active; 'I' for Inactive)
REMARK                            x       y       z     vdW  Elec       q    Type
REMARK                         _______ _______ _______ _____ _____    ______ ____
ROOT
ATOM      1  P   UNL     1      27.850 -22.637 -16.895  0.00  0.00    +0.559 P 
ATOM      2  O   UNL     1      27.479 -22.859 -15.419  0.00  0.00    -0.113 OA
ATOM      3  O   UNL     1      27.534 -23.908 -17.700  0.00  0.00    -0.220 OA
ATOM      4  O   UNL     1      27.035 -21.460 -17.456  0.00  0.00    -0.113 OA
ATOM      5  O   UNL     1      29.351 -22.321 -17.004  0.00  0.00    -0.113 OA
ENDROOT
TORSDOF 0
ENDMDL
MODEL 5
REMARK VINA RESULT:      -4.1     12.300     13.234
REMARK  Name = 1061
REMARK  0 active torsions:
REMARK  status: ('A' for Active; 'I' for Inactive)
REMARK                            x       y       z     vdW  Elec       q    Type
REMARK                         _______ _______ _______ _____ _____    ______ ____
ROOT
ATOM      1  P   UNL     1      40.217 -26.042 -14.513  0.00  0.00    +0.559 P 
ATOM      2  O   UNL     1      40.101 -24.651 -13.870  0.00  0.00    -0.113 OA
ATOM      3  O   UNL     1      41.277 -26.867 -13.764  0.00  0.00    -0.220 OA
ATOM      4  O   UNL     1      38.859 -26.759 -14.432  0.00  0.00    -0.113 OA
ATOM      5  O   UNL     1      40.632 -25.893 -15.986  0.00  0.00    -0.113 OA
ENDROOT
TORSDOF 0
ENDMDL
MODEL 6
REMARK VINA RESULT:      -4.0     12.339     13.169
REMARK  Name = 1061
REMARK  0 active torsions:
REMARK  status: ('A' for Active; 'I' for Inactive)
REMARK                            x       y       z     vdW  Elec       q    Type
REMARK                         _______ _______ _______ _____ _____    ______ ____
ROOT
ATOM      1  P   UNL     1      40.240 -26.035 -14.559  0.00  0.00    +0.559 P 
ATOM      2  O   UNL     1      41.355 -26.861 -13.897  0.00  0.00    -0.113 OA
ATOM      3  O   UNL     1      38.900 -26.776 -14.418  0.00  0.00    -0.220 OA
ATOM      4  O   UNL     1      40.141 -24.664 -13.870  0.00  0.00    -0.113 OA
ATOM      5  O   UNL     1      40.563 -25.838 -16.050  0.00  0.00    -0.113 OA
ENDROOT
TORSDOF 0
ENDMDL
MODEL 7
REMARK VINA RESULT:      -4.0      9.421     10.151
REMARK  Name = 1061
REMARK  0 active torsions:
REMARK  status: ('A' for Active; 'I' for Inactive)
REMARK                            x       y       z     vdW  Elec       q    Type
REMARK                         _______ _______ _______ _____ _____    ______ ____
ROOT
ATOM      1  P   UNL     1      35.961 -24.267 -11.049  0.00  0.00    +0.559 P 
ATOM      2  O   UNL     1      36.543 -25.564 -11.632  0.00  0.00    -0.113 OA
ATOM      3  O   UNL     1      35.363 -24.551  -9.661  0.00  0.00    -0.220 OA
ATOM      4  O   UNL     1      37.077 -23.217 -10.920  0.00  0.00    -0.113 OA
ATOM      5  O   UNL     1      34.860 -23.733 -11.981  0.00  0.00    -0.113 OA
ENDROOT
TORSDOF 0
ENDMDL
MODEL 8
REMARK VINA RESULT:      -4.0      9.421     10.340
REMARK  Name = 1061
REMARK  0 active torsions:
REMARK  status: ('A' for Active; 'I' for Inactive)
REMARK                            x       y       z     vdW  Elec       q    Type
REMARK                         _______ _______ _______ _____ _____    ______ ____
ROOT
ATOM      1  P   UNL     1      35.961 -24.266 -11.048  0.00  0.00    +0.559 P 
ATOM      2  O   UNL     1      35.363 -24.551  -9.661  0.00  0.00    -0.113 OA
ATOM      3  O   UNL     1      34.861 -23.733 -11.981  0.00  0.00    -0.220 OA
ATOM      4  O   UNL     1      37.077 -23.216 -10.920  0.00  0.00    -0.113 OA
ATOM      5  O   UNL     1      36.543 -25.565 -11.632  0.00  0.00    -0.113 OA
ENDROOT
TORSDOF 0
ENDMDL
MODEL 9
REMARK VINA RESULT:      -4.0      9.421     10.369
REMARK  Name = 1061
REMARK  0 active torsions:
REMARK  status: ('A' for Active; 'I' for Inactive)
REMARK                            x       y       z     vdW  Elec       q    Type
REMARK                         _______ _______ _______ _____ _____    ______ ____
ROOT
ATOM      1  P   UNL     1      35.961 -24.266 -11.049  0.00  0.00    +0.559 P 
ATOM      2  O   UNL     1      34.861 -23.733 -11.981  0.00  0.00    -0.113 OA
ATOM      3  O   UNL     1      37.077 -23.217 -10.920  0.00  0.00    -0.220 OA
ATOM      4  O   UNL     1      35.363 -24.551  -9.661  0.00  0.00    -0.113 OA
ATOM      5  O   UNL     1      36.543 -25.565 -11.632  0.00  0.00    -0.113 OA
ENDROOT
TORSDOF 0
ENDMDL
