MODEL 1
REMARK VINA RESULT:      -9.3      0.000      0.000
REMARK  Name = 22530
REMARK  2 active torsions:
REMARK  status: ('A' for Active; 'I' for Inactive)
REMARK    1  A    between atoms: N_1  and  C_16
REMARK    2  A    between atoms: C_16  and  C_17
REMARK                            x       y       z     vdW  Elec       q    Type
REMARK                         _______ _______ _______ _____ _____    ______ ____
ROOT
ATOM      1  N   UNL     1      34.594 -23.241 -15.180  0.00  0.00    -0.327 N 
ATOM      2  N   UNL     1      30.710 -24.569 -15.221  0.00  0.00    +0.388 N 
ATOM      3  C   UNL     1      33.288 -23.584 -15.001  0.00  0.00    +0.029 A 
ATOM      4  C   UNL     1      32.609 -23.392 -16.184  0.00  0.00    -0.030 A 
ATOM      5  C   UNL     1      32.687 -24.114 -13.753  0.00  0.00    +0.021 C 
ATOM      6  C   UNL     1      31.146 -23.660 -16.309  0.00  0.00    -0.049 C 
ATOM      7  C   UNL     1      31.147 -24.094 -13.888  0.00  0.00    -0.071 C 
ATOM      8  C   UNL     1      33.547 -22.897 -17.132  0.00  0.00    +0.011 A 
ATOM      9  C   UNL     1      34.783 -22.813 -16.478  0.00  0.00    +0.060 A 
ATOM     10  C   UNL     1      33.470 -22.508 -18.485  0.00  0.00    +0.001 C 
ATOM     11  C   UNL     1      35.944 -22.361 -17.116  0.00  0.00    +0.017 C 
ATOM     12  C   UNL     1      29.256 -24.729 -15.257  0.00  0.00    -0.100 C 
ATOM     13  C   UNL     1      34.624 -22.054 -19.133  0.00  0.00    +0.000 C 
ATOM     14  C   UNL     1      35.840 -21.983 -18.458  0.00  0.00    +0.001 C 
ATOM     15  H   UNL     1      31.153 -25.474 -15.378  0.00  0.00    -0.079 HD
ENDROOT
BRANCH   1  16
ATOM     16  C   UNL     1      35.626 -23.306 -14.166  0.00  0.00    +0.132 C 
BRANCH  16  17
ATOM     17  C   UNL     1      36.536 -24.483 -14.385  0.00  0.00    +0.000 C 
ATOM     18  C   UNL     1      37.878 -24.385 -14.042  0.00  0.00    -0.002 C 
ATOM     19  C   UNL     1      36.023 -25.653 -14.928  0.00  0.00    -0.002 C 
ATOM     20  C   UNL     1      38.721 -25.477 -14.244  0.00  0.00    -0.000 C 
ATOM     21  C   UNL     1      36.866 -26.746 -15.131  0.00  0.00    -0.000 C 
ATOM     22  C   UNL     1      38.216 -26.657 -14.788  0.00  0.00    -0.000 C 
ENDBRANCH  16  17
ENDBRANCH   1  16
TORSDOF 2
ENDMDL
MODEL 2
REMARK VINA RESULT:      -9.1     12.129     14.846
REMARK  Name = 22530
REMARK  2 active torsions:
REMARK  status: ('A' for Active; 'I' for Inactive)
REMARK    1  A    between atoms: N_1  and  C_16
REMARK    2  A    between atoms: C_16  and  C_17
REMARK                            x       y       z     vdW  Elec       q    Type
REMARK                         _______ _______ _______ _____ _____    ______ ____
ROOT
ATOM      1  N   UNL     1      32.663 -11.473 -23.238  0.00  0.00    -0.327 N 
ATOM      2  N   UNL     1      32.053  -8.009 -21.120  0.00  0.00    +0.388 N 
ATOM      3  C   UNL     1      32.465 -10.451 -22.359  0.00  0.00    +0.029 A 
ATOM      4  C   UNL     1      33.250  -9.383 -22.733  0.00  0.00    -0.030 A 
ATOM      5  C   UNL     1      31.534 -10.458 -21.206  0.00  0.00    +0.021 C 
ATOM      6  C   UNL     1      33.275  -8.109 -21.956  0.00  0.00    -0.049 C 
ATOM      7  C   UNL     1      31.829  -9.231 -20.313  0.00  0.00    -0.071 C 
ATOM      8  C   UNL     1      33.971  -9.776 -23.895  0.00  0.00    +0.011 A 
ATOM      9  C   UNL     1      33.584 -11.089 -24.190  0.00  0.00    +0.060 A 
ATOM     10  C   UNL     1      34.920  -9.147 -24.727  0.00  0.00    +0.001 C 
ATOM     11  C   UNL     1      34.100 -11.800 -25.280  0.00  0.00    +0.017 C 
ATOM     12  C   UNL     1      32.133  -6.832 -20.256  0.00  0.00    -0.100 C 
ATOM     13  C   UNL     1      35.443  -9.847 -25.819  0.00  0.00    +0.000 C 
ATOM     14  C   UNL     1      35.038 -11.152 -26.090  0.00  0.00    +0.001 C 
ATOM     15  H   UNL     1      31.255  -7.915 -21.748  0.00  0.00    -0.079 HD
ENDROOT
BRANCH   1  16
ATOM     16  C   UNL     1      32.015 -12.767 -23.180  0.00  0.00    +0.132 C 
BRANCH  16  17
ATOM     17  C   UNL     1      32.809 -13.743 -22.356  0.00  0.00    +0.000 C 
ATOM     18  C   UNL     1      33.928 -14.353 -22.907  0.00  0.00    -0.002 C 
ATOM     19  C   UNL     1      32.414 -14.020 -21.054  0.00  0.00    -0.002 C 
ATOM     20  C   UNL     1      34.665 -15.257 -22.143  0.00  0.00    -0.000 C 
ATOM     21  C   UNL     1      33.151 -14.924 -20.289  0.00  0.00    -0.000 C 
ATOM     22  C   UNL     1      34.278 -15.542 -20.834  0.00  0.00    -0.000 C 
ENDBRANCH  16  17
ENDBRANCH   1  16
TORSDOF 2
ENDMDL
MODEL 3
REMARK VINA RESULT:      -9.0      1.954      5.806
REMARK  Name = 22530
REMARK  2 active torsions:
REMARK  status: ('A' for Active; 'I' for Inactive)
REMARK    1  A    between atoms: N_1  and  C_16
REMARK    2  A    between atoms: C_16  and  C_17
REMARK                            x       y       z     vdW  Elec       q    Type
REMARK                         _______ _______ _______ _____ _____    ______ ____
ROOT
ATOM      1  N   UNL     1      33.690 -23.469 -16.904  0.00  0.00    -0.327 N 
ATOM      2  N   UNL     1      36.343 -23.666 -13.778  0.00  0.00    +0.388 N 
ATOM      3  C   UNL     1      34.698 -23.409 -15.990  0.00  0.00    +0.029 A 
ATOM      4  C   UNL     1      34.155 -23.209 -14.740  0.00  0.00    -0.030 A 
ATOM      5  C   UNL     1      36.145 -23.568 -16.273  0.00  0.00    +0.021 C 
ATOM      6  C   UNL     1      35.005 -23.078 -13.520  0.00  0.00    -0.049 C 
ATOM      7  C   UNL     1      36.951 -23.144 -15.023  0.00  0.00    -0.071 C 
ATOM      8  C   UNL     1      32.744 -23.134 -14.901  0.00  0.00    +0.011 A 
ATOM      9  C   UNL     1      32.479 -23.301 -16.265  0.00  0.00    +0.060 A 
ATOM     10  C   UNL     1      31.660 -22.937 -14.021  0.00  0.00    +0.001 C 
ATOM     11  C   UNL     1      31.181 -23.283 -16.789  0.00  0.00    +0.017 C 
ATOM     12  C   UNL     1      37.224 -23.422 -12.636  0.00  0.00    -0.100 C 
ATOM     13  C   UNL     1      30.358 -22.917 -14.532  0.00  0.00    +0.000 C 
ATOM     14  C   UNL     1      30.124 -23.088 -15.894  0.00  0.00    +0.001 C 
ATOM     15  H   UNL     1      36.221 -24.671 -13.902  0.00  0.00    -0.079 HD
ENDROOT
BRANCH   1  16
ATOM     16  C   UNL     1      33.860 -23.671 -18.329  0.00  0.00    +0.132 C 
BRANCH  16  17
ATOM     17  C   UNL     1      34.071 -22.365 -19.046  0.00  0.00    +0.000 C 
ATOM     18  C   UNL     1      35.361 -21.954 -19.354  0.00  0.00    -0.002 C 
ATOM     19  C   UNL     1      32.973 -21.589 -19.391  0.00  0.00    -0.002 C 
ATOM     20  C   UNL     1      35.556 -20.744 -20.020  0.00  0.00    -0.000 C 
ATOM     21  C   UNL     1      33.168 -20.379 -20.058  0.00  0.00    -0.000 C 
ATOM     22  C   UNL     1      34.461 -19.957 -20.372  0.00  0.00    -0.000 C 
ENDBRANCH  16  17
ENDBRANCH   1  16
TORSDOF 2
ENDMDL
MODEL 4
REMARK VINA RESULT:      -8.7     10.508     14.031
REMARK  Name = 22530
REMARK  2 active torsions:
REMARK  status: ('A' for Active; 'I' for Inactive)
REMARK    1  A    between atoms: N_1  and  C_16
REMARK    2  A    between atoms: C_16  and  C_17
REMARK                            x       y       z     vdW  Elec       q    Type
REMARK                         _______ _______ _______ _____ _____    ______ ____
ROOT
ATOM      1  N   UNL     1      32.898 -13.471 -23.533  0.00  0.00    -0.327 N 
ATOM      2  N   UNL     1      34.494 -16.855 -21.842  0.00  0.00    +0.388 N 
ATOM      3  C   UNL     1      33.596 -14.559 -23.104  0.00  0.00    +0.029 A 
ATOM      4  C   UNL     1      33.514 -14.630 -21.731  0.00  0.00    -0.030 A 
ATOM      5  C   UNL     1      34.303 -15.539 -23.964  0.00  0.00    +0.021 C 
ATOM      6  C   UNL     1      34.195 -15.705 -20.952  0.00  0.00    -0.049 C 
ATOM      7  C   UNL     1      35.196 -16.435 -23.076  0.00  0.00    -0.071 C 
ATOM      8  C   UNL     1      32.733 -13.522 -21.298  0.00  0.00    +0.011 A 
ATOM      9  C   UNL     1      32.359 -12.813 -22.446  0.00  0.00    +0.060 A 
ATOM     10  C   UNL     1      32.308 -13.046 -20.041  0.00  0.00    +0.001 C 
ATOM     11  C   UNL     1      31.577 -11.654 -22.395  0.00  0.00    +0.017 C 
ATOM     12  C   UNL     1      35.279 -17.855 -21.119  0.00  0.00    -0.100 C 
ATOM     13  C   UNL     1      31.526 -11.888 -19.977  0.00  0.00    +0.000 C 
ATOM     14  C   UNL     1      31.166 -11.205 -21.136  0.00  0.00    +0.001 C 
ATOM     15  H   UNL     1      33.604 -17.264 -22.127  0.00  0.00    -0.079 HD
ENDROOT
BRANCH   1  16
ATOM     16  C   UNL     1      32.748 -13.061 -24.914  0.00  0.00    +0.132 C 
BRANCH  16  17
ATOM     17  C   UNL     1      33.782 -12.037 -25.297  0.00  0.00    +0.000 C 
ATOM     18  C   UNL     1      34.154 -11.064 -24.380  0.00  0.00    -0.002 C 
ATOM     19  C   UNL     1      34.350 -12.079 -26.563  0.00  0.00    -0.002 C 
ATOM     20  C   UNL     1      35.114 -10.115 -24.735  0.00  0.00    -0.000 C 
ATOM     21  C   UNL     1      35.310 -11.131 -26.918  0.00  0.00    -0.000 C 
ATOM     22  C   UNL     1      35.691 -10.149 -26.003  0.00  0.00    -0.000 C 
ENDBRANCH  16  17
ENDBRANCH   1  16
TORSDOF 2
ENDMDL
MODEL 5
REMARK VINA RESULT:      -8.7      6.273      9.237
REMARK  Name = 22530
REMARK  2 active torsions:
REMARK  status: ('A' for Active; 'I' for Inactive)
REMARK    1  A    between atoms: N_1  and  C_16
REMARK    2  A    between atoms: C_16  and  C_17
REMARK                            x       y       z     vdW  Elec       q    Type
REMARK                         _______ _______ _______ _____ _____    ______ ____
ROOT
ATOM      1  N   UNL     1      35.242 -17.963 -21.856  0.00  0.00    -0.327 N 
ATOM      2  N   UNL     1      33.112 -14.453 -21.858  0.00  0.00    +0.388 N 
ATOM      3  C   UNL     1      34.706 -16.715 -21.752  0.00  0.00    +0.029 A 
ATOM      4  C   UNL     1      34.118 -16.380 -22.952  0.00  0.00    -0.030 A 
ATOM      5  C   UNL     1      34.714 -15.858 -20.542  0.00  0.00    +0.021 C 
ATOM      6  C   UNL     1      33.456 -15.060 -23.168  0.00  0.00    -0.049 C 
ATOM      7  C   UNL     1      34.269 -14.430 -20.934  0.00  0.00    -0.071 C 
ATOM      8  C   UNL     1      34.312 -17.477 -23.836  0.00  0.00    +0.011 A 
ATOM      9  C   UNL     1      35.018 -18.456 -23.125  0.00  0.00    +0.060 A 
ATOM     10  C   UNL     1      33.961 -17.738 -25.177  0.00  0.00    +0.001 C 
ATOM     11  C   UNL     1      35.385 -19.681 -23.691  0.00  0.00    +0.017 C 
ATOM     12  C   UNL     1      32.587 -13.102 -22.056  0.00  0.00    -0.100 C 
ATOM     13  C   UNL     1      34.323 -18.960 -25.754  0.00  0.00    +0.000 C 
ATOM     14  C   UNL     1      35.022 -19.915 -25.021  0.00  0.00    +0.001 C 
ATOM     15  H   UNL     1      32.394 -15.035 -21.427  0.00  0.00    -0.079 HD
ENDROOT
BRANCH   1  16
ATOM     16  C   UNL     1      35.945 -18.664 -20.802  0.00  0.00    +0.132 C 
BRANCH  16  17
ATOM     17  C   UNL     1      35.176 -19.870 -20.338  0.00  0.00    +0.000 C 
ATOM     18  C   UNL     1      35.861 -20.965 -19.828  0.00  0.00    -0.002 C 
ATOM     19  C   UNL     1      33.791 -19.874 -20.425  0.00  0.00    -0.002 C 
ATOM     20  C   UNL     1      35.148 -22.083 -19.397  0.00  0.00    -0.000 C 
ATOM     21  C   UNL     1      33.076 -20.991 -19.994  0.00  0.00    -0.000 C 
ATOM     22  C   UNL     1      33.756 -22.097 -19.479  0.00  0.00    -0.000 C 
ENDBRANCH  16  17
ENDBRANCH   1  16
TORSDOF 2
ENDMDL
MODEL 6
REMARK VINA RESULT:      -8.7      1.223      4.040
REMARK  Name = 22530
REMARK  2 active torsions:
REMARK  status: ('A' for Active; 'I' for Inactive)
REMARK    1  A    between atoms: N_1  and  C_16
REMARK    2  A    between atoms: C_16  and  C_17
REMARK                            x       y       z     vdW  Elec       q    Type
REMARK                         _______ _______ _______ _____ _____    ______ ____
ROOT
ATOM      1  N   UNL     1      34.983 -23.115 -15.190  0.00  0.00    -0.327 N 
ATOM      2  N   UNL     1      35.596 -21.307 -18.825  0.00  0.00    +0.388 N 
ATOM      3  C   UNL     1      35.372 -22.627 -16.401  0.00  0.00    +0.029 A 
ATOM      4  C   UNL     1      34.288 -22.623 -17.250  0.00  0.00    -0.030 A 
ATOM      5  C   UNL     1      36.729 -22.142 -16.752  0.00  0.00    +0.021 C 
ATOM      6  C   UNL     1      34.393 -22.162 -18.665  0.00  0.00    -0.049 C 
ATOM      7  C   UNL     1      36.814 -21.954 -18.285  0.00  0.00    -0.071 C 
ATOM      8  C   UNL     1      33.182 -23.144 -16.523  0.00  0.00    +0.011 A 
ATOM      9  C   UNL     1      33.643 -23.442 -15.235  0.00  0.00    +0.060 A 
ATOM     10  C   UNL     1      31.829 -23.395 -16.831  0.00  0.00    +0.001 C 
ATOM     11  C   UNL     1      32.814 -23.978 -14.243  0.00  0.00    +0.017 C 
ATOM     12  C   UNL     1      35.781 -20.963 -20.234  0.00  0.00    -0.100 C 
ATOM     13  C   UNL     1      30.990 -23.929 -15.847  0.00  0.00    +0.000 C 
ATOM     14  C   UNL     1      31.477 -24.215 -14.574  0.00  0.00    +0.001 C 
ATOM     15  H   UNL     1      35.444 -20.456 -18.285  0.00  0.00    -0.079 HD
ENDROOT
BRANCH   1  16
ATOM     16  C   UNL     1      35.841 -23.274 -14.034  0.00  0.00    +0.132 C 
BRANCH  16  17
ATOM     17  C   UNL     1      36.728 -24.481 -14.171  0.00  0.00    +0.000 C 
ATOM     18  C   UNL     1      37.992 -24.470 -13.598  0.00  0.00    -0.002 C 
ATOM     19  C   UNL     1      36.270 -25.591 -14.867  0.00  0.00    -0.002 C 
ATOM     20  C   UNL     1      38.815 -25.589 -13.724  0.00  0.00    -0.000 C 
ATOM     21  C   UNL     1      37.092 -26.711 -14.994  0.00  0.00    -0.000 C 
ATOM     22  C   UNL     1      38.365 -26.710 -14.421  0.00  0.00    -0.000 C 
ENDBRANCH  16  17
ENDBRANCH   1  16
TORSDOF 2
ENDMDL
MODEL 7
REMARK VINA RESULT:      -8.6     14.416     17.718
REMARK  Name = 22530
REMARK  2 active torsions:
REMARK  status: ('A' for Active; 'I' for Inactive)
REMARK    1  A    between atoms: N_1  and  C_16
REMARK    2  A    between atoms: C_16  and  C_17
REMARK                            x       y       z     vdW  Elec       q    Type
REMARK                         _______ _______ _______ _____ _____    ______ ____
ROOT
ATOM      1  N   UNL     1      33.449  -9.023 -22.802  0.00  0.00    -0.327 N 
ATOM      2  N   UNL     1      33.815 -11.663 -25.925  0.00  0.00    +0.388 N 
ATOM      3  C   UNL     1      33.781  -9.845 -23.837  0.00  0.00    +0.029 A 
ATOM      4  C   UNL     1      33.149 -11.057 -23.664  0.00  0.00    -0.030 A 
ATOM      5  C   UNL     1      34.649  -9.495 -24.987  0.00  0.00    +0.021 C 
ATOM      6  C   UNL     1      33.327 -12.185 -24.624  0.00  0.00    -0.049 C 
ATOM      7  C   UNL     1      34.998 -10.786 -25.765  0.00  0.00    -0.071 C 
ATOM      8  C   UNL     1      32.401 -10.973 -22.458  0.00  0.00    +0.011 A 
ATOM      9  C   UNL     1      32.604  -9.689 -21.938  0.00  0.00    +0.060 A 
ATOM     10  C   UNL     1      31.569 -11.865 -21.749  0.00  0.00    +0.001 C 
ATOM     11  C   UNL     1      32.013  -9.255 -20.747  0.00  0.00    +0.017 C 
ATOM     12  C   UNL     1      34.120 -12.774 -26.827  0.00  0.00    -0.100 C 
ATOM     13  C   UNL     1      30.972 -11.443 -20.557  0.00  0.00    +0.000 C 
ATOM     14  C   UNL     1      31.191 -10.158 -20.065  0.00  0.00    +0.001 C 
ATOM     15  H   UNL     1      33.072 -11.094 -26.328  0.00  0.00    -0.079 HD
ENDROOT
BRANCH   1  16
ATOM     16  C   UNL     1      33.915  -7.662 -22.629  0.00  0.00    +0.132 C 
BRANCH  16  17
ATOM     17  C   UNL     1      32.958  -6.674 -23.238  0.00  0.00    +0.000 C 
ATOM     18  C   UNL     1      31.921  -6.162 -22.470  0.00  0.00    -0.002 C 
ATOM     19  C   UNL     1      33.125  -6.286 -24.561  0.00  0.00    -0.002 C 
ATOM     20  C   UNL     1      31.035  -5.245 -23.035  0.00  0.00    -0.000 C 
ATOM     21  C   UNL     1      32.240  -5.368 -25.126  0.00  0.00    -0.000 C 
ATOM     22  C   UNL     1      31.194  -4.847 -24.362  0.00  0.00    -0.000 C 
ENDBRANCH  16  17
ENDBRANCH   1  16
TORSDOF 2
ENDMDL
MODEL 8
REMARK VINA RESULT:      -8.5      8.065     10.827
REMARK  Name = 22530
REMARK  2 active torsions:
REMARK  status: ('A' for Active; 'I' for Inactive)
REMARK    1  A    between atoms: N_1  and  C_16
REMARK    2  A    between atoms: C_16  and  C_17
REMARK                            x       y       z     vdW  Elec       q    Type
REMARK                         _______ _______ _______ _____ _____    ______ ____
ROOT
ATOM      1  N   UNL     1      34.197 -15.610 -21.939  0.00  0.00    -0.327 N 
ATOM      2  N   UNL     1      31.417 -12.621 -21.495  0.00  0.00    +0.388 N 
ATOM      3  C   UNL     1      33.415 -14.532 -21.651  0.00  0.00    +0.029 A 
ATOM      4  C   UNL     1      32.878 -14.045 -22.822  0.00  0.00    -0.030 A 
ATOM      5  C   UNL     1      33.148 -13.981 -20.301  0.00  0.00    +0.021 C 
ATOM      6  C   UNL     1      31.987 -12.848 -22.847  0.00  0.00    -0.049 C 
ATOM      7  C   UNL     1      32.462 -12.603 -20.446  0.00  0.00    -0.071 C 
ATOM      8  C   UNL     1      33.362 -14.864 -23.880  0.00  0.00    +0.011 A 
ATOM      9  C   UNL     1      34.185 -15.837 -23.300  0.00  0.00    +0.060 A 
ATOM     10  C   UNL     1      33.187 -14.874 -25.279  0.00  0.00    +0.001 C 
ATOM     11  C   UNL     1      34.837 -16.820 -24.053  0.00  0.00    +0.017 C 
ATOM     12  C   UNL     1      30.652 -11.374 -21.479  0.00  0.00    -0.100 C 
ATOM     13  C   UNL     1      33.833 -15.852 -26.043  0.00  0.00    +0.000 C 
ATOM     14  C   UNL     1      34.644 -16.809 -25.438  0.00  0.00    +0.001 C 
ATOM     15  H   UNL     1      30.796 -13.402 -21.287  0.00  0.00    -0.079 HD
ENDROOT
BRANCH   1  16
ATOM     16  C   UNL     1      34.932 -16.395 -20.969  0.00  0.00    +0.132 C 
BRANCH  16  17
ATOM     17  C   UNL     1      34.428 -17.811 -20.914  0.00  0.00    +0.000 C 
ATOM     18  C   UNL     1      35.332 -18.863 -20.972  0.00  0.00    -0.002 C 
ATOM     19  C   UNL     1      33.065 -18.049 -20.807  0.00  0.00    -0.002 C 
ATOM     20  C   UNL     1      34.865 -20.176 -20.920  0.00  0.00    -0.000 C 
ATOM     21  C   UNL     1      32.596 -19.362 -20.755  0.00  0.00    -0.000 C 
ATOM     22  C   UNL     1      33.498 -20.426 -20.811  0.00  0.00    -0.000 C 
ENDBRANCH  16  17
ENDBRANCH   1  16
TORSDOF 2
ENDMDL
MODEL 9
REMARK VINA RESULT:      -8.5     14.791     17.875
REMARK  Name = 22530
REMARK  2 active torsions:
REMARK  status: ('A' for Active; 'I' for Inactive)
REMARK    1  A    between atoms: N_1  and  C_16
REMARK    2  A    between atoms: C_16  and  C_17
REMARK                            x       y       z     vdW  Elec       q    Type
REMARK                         _______ _______ _______ _____ _____    ______ ____
ROOT
ATOM      1  N   UNL     1      34.125  -8.602 -23.418  0.00  0.00    -0.327 N 
ATOM      2  N   UNL     1      31.861  -9.983 -20.284  0.00  0.00    +0.388 N 
ATOM      3  C   UNL     1      33.274  -8.868 -22.388  0.00  0.00    +0.029 A 
ATOM      4  C   UNL     1      32.796 -10.153 -22.524  0.00  0.00    -0.030 A 
ATOM      5  C   UNL     1      32.934  -7.949 -21.275  0.00  0.00    +0.021 C 
ATOM      6  C   UNL     1      31.820 -10.741 -21.560  0.00  0.00    -0.049 C 
ATOM      7  C   UNL     1      31.727  -8.524 -20.498  0.00  0.00    -0.071 C 
ATOM      8  C   UNL     1      33.379 -10.696 -23.703  0.00  0.00    +0.011 A 
ATOM      9  C   UNL     1      34.208  -9.706 -24.242  0.00  0.00    +0.060 A 
ATOM     10  C   UNL     1      33.283 -11.935 -24.370  0.00  0.00    +0.001 C 
ATOM     11  C   UNL     1      34.946  -9.898 -25.416  0.00  0.00    +0.017 C 
ATOM     12  C   UNL     1      30.815 -10.467 -19.383  0.00  0.00    -0.100 C 
ATOM     13  C   UNL     1      34.016 -12.139 -25.543  0.00  0.00    +0.000 C 
ATOM     14  C   UNL     1      34.835 -11.135 -26.056  0.00  0.00    +0.001 C 
ATOM     15  H   UNL     1      32.773 -10.142 -19.859  0.00  0.00    -0.079 HD
ENDROOT
BRANCH   1  16
ATOM     16  C   UNL     1      34.830  -7.354 -23.623  0.00  0.00    +0.132 C 
BRANCH  16  17
ATOM     17  C   UNL     1      34.106  -6.469 -24.600  0.00  0.00    +0.000 C 
ATOM     18  C   UNL     1      32.802  -6.076 -24.333  0.00  0.00    -0.002 C 
ATOM     19  C   UNL     1      34.752  -6.057 -25.758  0.00  0.00    -0.002 C 
ATOM     20  C   UNL     1      32.131  -5.255 -25.238  0.00  0.00    -0.000 C 
ATOM     21  C   UNL     1      34.082  -5.235 -26.664  0.00  0.00    -0.000 C 
ATOM     22  C   UNL     1      32.770  -4.834 -26.404  0.00  0.00    -0.000 C 
ENDBRANCH  16  17
ENDBRANCH   1  16
TORSDOF 2
ENDMDL
