MODEL 1
REMARK VINA RESULT:      -9.2      0.000      0.000
REMARK  Name = 12450
REMARK  9 active torsions:
REMARK  status: ('A' for Active; 'I' for Inactive)
REMARK    1  A    between atoms: N_1  and  C_4
REMARK    2  A    between atoms: N_1  and  C_26
REMARK    3  A    between atoms: N_1  and  C_28
REMARK    4  A    between atoms: C_2  and  C_3
REMARK    5  A    between atoms: C_2  and  C_9
REMARK    6  A    between atoms: C_2  and  C_20
REMARK    7  A    between atoms: C_10  and  N_15
REMARK    8  A    between atoms: N_15  and  C_16
REMARK    9  A    between atoms: N_15  and  C_18
REMARK                            x       y       z     vdW  Elec       q    Type
REMARK                         _______ _______ _______ _____ _____    ______ ____
ROOT
ATOM      1  C   UNL     1      34.295 -22.868 -16.820  0.00  0.00    +0.067 C 
ENDROOT
BRANCH   1   2
ATOM      2  C   UNL     1      35.353 -23.432 -16.217  0.00  0.00    -0.014 C 
ATOM      3  C   UNL     1      37.583 -24.619 -14.944  0.00  0.00    +0.048 C 
ATOM      4  C   UNL     1      36.587 -22.679 -16.048  0.00  0.00    -0.002 C 
ATOM      5  C   UNL     1      35.275 -24.801 -15.728  0.00  0.00    -0.002 C 
ATOM      6  C   UNL     1      37.654 -23.222 -15.448  0.00  0.00    +0.014 C 
ATOM      7  C   UNL     1      36.318 -25.382 -15.122  0.00  0.00    +0.014 C 
BRANCH   3   8
ATOM      8  N   UNL     1      38.595 -25.158 -14.367  0.00  0.00    -0.307 N 
BRANCH   8   9
ATOM      9  C   UNL     1      39.893 -25.325 -15.071  0.00  0.00    +0.091 C 
ATOM     10  C   UNL     1      40.761 -26.292 -14.295  0.00  0.00    +0.023 C 
ENDBRANCH   8   9
BRANCH   8  11
ATOM     11  C   UNL     1      38.524 -25.642 -12.964  0.00  0.00    +0.091 C 
ATOM     12  C   UNL     1      38.192 -24.480 -12.052  0.00  0.00    +0.023 C 
ENDBRANCH   8  11
ENDBRANCH   3   8
ENDBRANCH   1   2
BRANCH   1  13
ATOM     13  C   UNL     1      34.532 -22.052 -18.040  0.00  0.00    -0.014 C 
ATOM     14  C   UNL     1      34.973 -20.538 -20.302  0.00  0.00    +0.048 C 
ATOM     15  C   UNL     1      33.449 -21.643 -18.788  0.00  0.00    -0.002 C 
ATOM     16  C   UNL     1      35.829 -21.731 -18.383  0.00  0.00    -0.002 C 
ATOM     17  C   UNL     1      33.672 -20.878 -19.933  0.00  0.00    +0.014 C 
ATOM     18  C   UNL     1      36.052 -20.965 -19.528  0.00  0.00    +0.014 C 
BRANCH  14  19
ATOM     19  N   UNL     1      35.198 -19.763 -21.459  0.00  0.00    -0.307 N 
BRANCH  19  20
ATOM     20  C   UNL     1      36.068 -18.605 -21.408  0.00  0.00    +0.091 C 
ATOM     21  C   UNL     1      35.304 -17.363 -20.979  0.00  0.00    +0.023 C 
ENDBRANCH  19  20
BRANCH  19  22
ATOM     22  C   UNL     1      34.553 -20.107 -22.710  0.00  0.00    +0.091 C 
ATOM     23  C   UNL     1      34.986 -19.171 -23.826  0.00  0.00    +0.023 C 
ENDBRANCH  19  22
ENDBRANCH  14  19
ENDBRANCH   1  13
BRANCH   1  24
ATOM     24  C   UNL     1      32.947 -23.093 -16.234  0.00  0.00    -0.014 C 
ATOM     25  C   UNL     1      31.871 -23.252 -17.081  0.00  0.00    -0.004 C 
ATOM     26  C   UNL     1      32.818 -23.135 -14.861  0.00  0.00    -0.004 C 
ATOM     27  C   UNL     1      30.606 -23.463 -16.532  0.00  0.00    -0.000 C 
ATOM     28  C   UNL     1      31.553 -23.345 -14.312  0.00  0.00    -0.000 C 
ATOM     29  C   UNL     1      30.447 -23.509 -15.146  0.00  0.00    -0.000 C 
ENDBRANCH   1  24
TORSDOF 9
ENDMDL
MODEL 2
REMARK VINA RESULT:      -9.2      2.106      5.839
REMARK  Name = 12450
REMARK  9 active torsions:
REMARK  status: ('A' for Active; 'I' for Inactive)
REMARK    1  A    between atoms: N_1  and  C_4
REMARK    2  A    between atoms: N_1  and  C_26
REMARK    3  A    between atoms: N_1  and  C_28
REMARK    4  A    between atoms: C_2  and  C_3
REMARK    5  A    between atoms: C_2  and  C_9
REMARK    6  A    between atoms: C_2  and  C_20
REMARK    7  A    between atoms: C_10  and  N_15
REMARK    8  A    between atoms: N_15  and  C_16
REMARK    9  A    between atoms: N_15  and  C_18
REMARK                            x       y       z     vdW  Elec       q    Type
REMARK                         _______ _______ _______ _____ _____    ______ ____
ROOT
ATOM      1  C   UNL     1      34.645 -22.780 -16.972  0.00  0.00    +0.067 C 
ENDROOT
BRANCH   1   2
ATOM      2  C   UNL     1      35.650 -23.349 -16.287  0.00  0.00    -0.014 C 
ATOM      3  C   UNL     1      37.766 -24.546 -14.841  0.00  0.00    +0.048 C 
ATOM      4  C   UNL     1      36.886 -22.616 -16.058  0.00  0.00    -0.002 C 
ATOM      5  C   UNL     1      35.510 -24.702 -15.769  0.00  0.00    -0.002 C 
ATOM      6  C   UNL     1      37.900 -23.164 -15.376  0.00  0.00    +0.014 C 
ATOM      7  C   UNL     1      36.499 -25.287 -15.081  0.00  0.00    +0.014 C 
BRANCH   3   8
ATOM      8  N   UNL     1      38.727 -25.089 -14.187  0.00  0.00    -0.307 N 
BRANCH   8   9
ATOM      9  C   UNL     1      38.545 -25.569 -12.793  0.00  0.00    +0.091 C 
ATOM     10  C   UNL     1      38.041 -24.429 -11.934  0.00  0.00    +0.023 C 
ENDBRANCH   8   9
BRANCH   8  11
ATOM     11  C   UNL     1      40.074 -25.267 -14.789  0.00  0.00    +0.091 C 
ATOM     12  C   UNL     1      40.745 -26.472 -14.165  0.00  0.00    +0.023 C 
ENDBRANCH   8  11
ENDBRANCH   3   8
ENDBRANCH   1   2
BRANCH   1  13
ATOM     13  C   UNL     1      33.262 -22.932 -16.448  0.00  0.00    -0.014 C 
ATOM     14  C   UNL     1      30.696 -23.213 -15.477  0.00  0.00    +0.048 C 
ATOM     15  C   UNL     1      32.219 -23.031 -17.345  0.00  0.00    -0.002 C 
ATOM     16  C   UNL     1      33.068 -22.968 -15.083  0.00  0.00    -0.002 C 
ATOM     17  C   UNL     1      30.920 -23.172 -16.853  0.00  0.00    +0.014 C 
ATOM     18  C   UNL     1      31.770 -23.110 -14.592  0.00  0.00    +0.014 C 
BRANCH  14  19
ATOM     19  N   UNL     1      29.384 -23.357 -14.981  0.00  0.00    -0.307 N 
BRANCH  19  20
ATOM     20  C   UNL     1      28.927 -24.638 -14.478  0.00  0.00    +0.091 C 
ATOM     21  C   UNL     1      29.782 -25.774 -15.013  0.00  0.00    +0.023 C 
ENDBRANCH  19  20
BRANCH  19  22
ATOM     22  C   UNL     1      28.472 -22.231 -14.978  0.00  0.00    +0.091 C 
ATOM     23  C   UNL     1      27.371 -22.413 -16.009  0.00  0.00    +0.023 C 
ENDBRANCH  19  22
ENDBRANCH  14  19
ENDBRANCH   1  13
BRANCH   1  24
ATOM     24  C   UNL     1      34.974 -22.031 -18.214  0.00  0.00    -0.014 C 
ATOM     25  C   UNL     1      33.946 -21.635 -19.044  0.00  0.00    -0.004 C 
ATOM     26  C   UNL     1      36.296 -21.757 -18.495  0.00  0.00    -0.004 C 
ATOM     27  C   UNL     1      34.254 -20.933 -20.209  0.00  0.00    -0.000 C 
ATOM     28  C   UNL     1      36.604 -21.056 -19.661  0.00  0.00    -0.000 C 
ATOM     29  C   UNL     1      35.584 -20.643 -20.517  0.00  0.00    -0.000 C 
ENDBRANCH   1  24
TORSDOF 9
ENDMDL
MODEL 3
REMARK VINA RESULT:      -9.2      0.018      1.872
REMARK  Name = 12450
REMARK  9 active torsions:
REMARK  status: ('A' for Active; 'I' for Inactive)
REMARK    1  A    between atoms: N_1  and  C_4
REMARK    2  A    between atoms: N_1  and  C_26
REMARK    3  A    between atoms: N_1  and  C_28
REMARK    4  A    between atoms: C_2  and  C_3
REMARK    5  A    between atoms: C_2  and  C_9
REMARK    6  A    between atoms: C_2  and  C_20
REMARK    7  A    between atoms: C_10  and  N_15
REMARK    8  A    between atoms: N_15  and  C_16
REMARK    9  A    between atoms: N_15  and  C_18
REMARK                            x       y       z     vdW  Elec       q    Type
REMARK                         _______ _______ _______ _____ _____    ______ ____
ROOT
ATOM      1  C   UNL     1      34.303 -22.870 -16.814  0.00  0.00    +0.067 C 
ENDROOT
BRANCH   1   2
ATOM      2  C   UNL     1      35.362 -23.432 -16.212  0.00  0.00    -0.014 C 
ATOM      3  C   UNL     1      37.595 -24.614 -14.939  0.00  0.00    +0.048 C 
ATOM      4  C   UNL     1      36.594 -22.675 -16.042  0.00  0.00    -0.002 C 
ATOM      5  C   UNL     1      35.287 -24.801 -15.723  0.00  0.00    -0.002 C 
ATOM      6  C   UNL     1      37.663 -23.216 -15.442  0.00  0.00    +0.014 C 
ATOM      7  C   UNL     1      36.332 -25.379 -15.118  0.00  0.00    +0.014 C 
BRANCH   3   8
ATOM      8  N   UNL     1      38.609 -25.150 -14.363  0.00  0.00    -0.307 N 
BRANCH   8   9
ATOM      9  C   UNL     1      38.544 -25.622 -12.955  0.00  0.00    +0.091 C 
ATOM     10  C   UNL     1      38.179 -24.460 -12.056  0.00  0.00    +0.023 C 
ENDBRANCH   8   9
BRANCH   8  11
ATOM     11  C   UNL     1      39.901 -25.329 -15.074  0.00  0.00    +0.091 C 
ATOM     12  C   UNL     1      40.773 -26.287 -14.291  0.00  0.00    +0.023 C 
ENDBRANCH   8  11
ENDBRANCH   3   8
ENDBRANCH   1   2
BRANCH   1  13
ATOM     13  C   UNL     1      34.538 -22.051 -18.033  0.00  0.00    -0.014 C 
ATOM     14  C   UNL     1      34.975 -20.533 -20.294  0.00  0.00    +0.048 C 
ATOM     15  C   UNL     1      33.453 -21.646 -18.781  0.00  0.00    -0.002 C 
ATOM     16  C   UNL     1      35.834 -21.725 -18.375  0.00  0.00    -0.002 C 
ATOM     17  C   UNL     1      33.674 -20.879 -19.926  0.00  0.00    +0.014 C 
ATOM     18  C   UNL     1      36.055 -20.957 -19.518  0.00  0.00    +0.014 C 
BRANCH  14  19
ATOM     19  N   UNL     1      35.198 -19.757 -21.449  0.00  0.00    -0.307 N 
BRANCH  19  20
ATOM     20  C   UNL     1      34.581 -20.121 -22.709  0.00  0.00    +0.091 C 
ATOM     21  C   UNL     1      35.010 -19.179 -23.822  0.00  0.00    +0.023 C 
ENDBRANCH  19  20
BRANCH  19  22
ATOM     22  C   UNL     1      36.057 -18.590 -21.395  0.00  0.00    +0.091 C 
ATOM     23  C   UNL     1      35.280 -17.355 -20.972  0.00  0.00    +0.023 C 
ENDBRANCH  19  22
ENDBRANCH  14  19
ENDBRANCH   1  13
BRANCH   1  24
ATOM     24  C   UNL     1      32.955 -23.099 -16.229  0.00  0.00    -0.014 C 
ATOM     25  C   UNL     1      32.822 -23.126 -14.856  0.00  0.00    -0.004 C 
ATOM     26  C   UNL     1      31.883 -23.277 -17.077  0.00  0.00    -0.004 C 
ATOM     27  C   UNL     1      31.558 -23.341 -14.307  0.00  0.00    -0.000 C 
ATOM     28  C   UNL     1      30.619 -23.493 -16.528  0.00  0.00    -0.000 C 
ATOM     29  C   UNL     1      30.456 -23.524 -15.143  0.00  0.00    -0.000 C 
ENDBRANCH   1  24
TORSDOF 9
ENDMDL
MODEL 4
REMARK VINA RESULT:      -9.2      2.104      5.719
REMARK  Name = 12450
REMARK  9 active torsions:
REMARK  status: ('A' for Active; 'I' for Inactive)
REMARK    1  A    between atoms: N_1  and  C_4
REMARK    2  A    between atoms: N_1  and  C_26
REMARK    3  A    between atoms: N_1  and  C_28
REMARK    4  A    between atoms: C_2  and  C_3
REMARK    5  A    between atoms: C_2  and  C_9
REMARK    6  A    between atoms: C_2  and  C_20
REMARK    7  A    between atoms: C_10  and  N_15
REMARK    8  A    between atoms: N_15  and  C_16
REMARK    9  A    between atoms: N_15  and  C_18
REMARK                            x       y       z     vdW  Elec       q    Type
REMARK                         _______ _______ _______ _____ _____    ______ ____
ROOT
ATOM      1  C   UNL     1      34.649 -22.774 -16.980  0.00  0.00    +0.067 C 
ENDROOT
BRANCH   1   2
ATOM      2  C   UNL     1      35.654 -23.338 -16.292  0.00  0.00    -0.014 C 
ATOM      3  C   UNL     1      37.771 -24.526 -14.841  0.00  0.00    +0.048 C 
ATOM      4  C   UNL     1      36.891 -22.604 -16.070  0.00  0.00    -0.002 C 
ATOM      5  C   UNL     1      35.514 -24.687 -15.765  0.00  0.00    -0.002 C 
ATOM      6  C   UNL     1      37.906 -23.148 -15.385  0.00  0.00    +0.014 C 
ATOM      7  C   UNL     1      36.504 -25.268 -15.074  0.00  0.00    +0.014 C 
BRANCH   3   8
ATOM      8  N   UNL     1      38.733 -25.065 -14.183  0.00  0.00    -0.307 N 
BRANCH   8   9
ATOM      9  C   UNL     1      40.086 -25.225 -14.775  0.00  0.00    +0.091 C 
ATOM     10  C   UNL     1      40.727 -26.481 -14.226  0.00  0.00    +0.023 C 
ENDBRANCH   8   9
BRANCH   8  11
ATOM     11  C   UNL     1      38.544 -25.556 -12.793  0.00  0.00    +0.091 C 
ATOM     12  C   UNL     1      38.062 -24.416 -11.922  0.00  0.00    +0.023 C 
ENDBRANCH   8  11
ENDBRANCH   3   8
ENDBRANCH   1   2
BRANCH   1  13
ATOM     13  C   UNL     1      33.266 -22.929 -16.459  0.00  0.00    -0.014 C 
ATOM     14  C   UNL     1      30.698 -23.216 -15.492  0.00  0.00    +0.048 C 
ATOM     15  C   UNL     1      32.225 -23.037 -17.358  0.00  0.00    -0.002 C 
ATOM     16  C   UNL     1      33.068 -22.959 -15.094  0.00  0.00    -0.002 C 
ATOM     17  C   UNL     1      30.926 -23.182 -16.868  0.00  0.00    +0.014 C 
ATOM     18  C   UNL     1      31.770 -23.104 -14.606  0.00  0.00    +0.014 C 
BRANCH  14  19
ATOM     19  N   UNL     1      29.386 -23.364 -14.998  0.00  0.00    -0.307 N 
BRANCH  19  20
ATOM     20  C   UNL     1      28.471 -22.240 -14.998  0.00  0.00    +0.091 C 
ATOM     21  C   UNL     1      27.370 -22.428 -16.028  0.00  0.00    +0.023 C 
ENDBRANCH  19  20
BRANCH  19  22
ATOM     22  C   UNL     1      28.938 -24.639 -14.474  0.00  0.00    +0.091 C 
ATOM     23  C   UNL     1      29.769 -25.783 -15.028  0.00  0.00    +0.023 C 
ENDBRANCH  19  22
ENDBRANCH  14  19
ENDBRANCH   1  13
BRANCH   1  24
ATOM     24  C   UNL     1      34.978 -22.027 -18.223  0.00  0.00    -0.014 C 
ATOM     25  C   UNL     1      36.300 -21.761 -18.510  0.00  0.00    -0.004 C 
ATOM     26  C   UNL     1      33.949 -21.623 -19.048  0.00  0.00    -0.004 C 
ATOM     27  C   UNL     1      36.609 -21.060 -19.676  0.00  0.00    -0.000 C 
ATOM     28  C   UNL     1      34.257 -20.921 -20.214  0.00  0.00    -0.000 C 
ATOM     29  C   UNL     1      35.587 -20.640 -20.528  0.00  0.00    -0.000 C 
ENDBRANCH   1  24
TORSDOF 9
ENDMDL
MODEL 5
REMARK VINA RESULT:      -9.2      2.108      5.815
REMARK  Name = 12450
REMARK  9 active torsions:
REMARK  status: ('A' for Active; 'I' for Inactive)
REMARK    1  A    between atoms: N_1  and  C_4
REMARK    2  A    between atoms: N_1  and  C_26
REMARK    3  A    between atoms: N_1  and  C_28
REMARK    4  A    between atoms: C_2  and  C_3
REMARK    5  A    between atoms: C_2  and  C_9
REMARK    6  A    between atoms: C_2  and  C_20
REMARK    7  A    between atoms: C_10  and  N_15
REMARK    8  A    between atoms: N_15  and  C_16
REMARK    9  A    between atoms: N_15  and  C_18
REMARK                            x       y       z     vdW  Elec       q    Type
REMARK                         _______ _______ _______ _____ _____    ______ ____
ROOT
ATOM      1  C   UNL     1      34.659 -22.782 -16.972  0.00  0.00    +0.067 C 
ENDROOT
BRANCH   1   2
ATOM      2  C   UNL     1      35.663 -23.347 -16.283  0.00  0.00    -0.014 C 
ATOM      3  C   UNL     1      37.780 -24.537 -14.833  0.00  0.00    +0.048 C 
ATOM      4  C   UNL     1      35.523 -24.697 -15.758  0.00  0.00    -0.002 C 
ATOM      5  C   UNL     1      36.900 -22.613 -16.056  0.00  0.00    -0.002 C 
ATOM      6  C   UNL     1      36.513 -25.279 -15.069  0.00  0.00    +0.014 C 
ATOM      7  C   UNL     1      37.914 -23.158 -15.373  0.00  0.00    +0.014 C 
BRANCH   3   8
ATOM      8  N   UNL     1      38.740 -25.078 -14.174  0.00  0.00    -0.307 N 
BRANCH   8   9
ATOM      9  C   UNL     1      40.094 -25.239 -14.764  0.00  0.00    +0.091 C 
ATOM     10  C   UNL     1      40.728 -26.502 -14.221  0.00  0.00    +0.023 C 
ENDBRANCH   8   9
BRANCH   8  11
ATOM     11  C   UNL     1      38.548 -25.569 -12.785  0.00  0.00    +0.091 C 
ATOM     12  C   UNL     1      38.036 -24.437 -11.921  0.00  0.00    +0.023 C 
ENDBRANCH   8  11
ENDBRANCH   3   8
ENDBRANCH   1   2
BRANCH   1  13
ATOM     13  C   UNL     1      33.275 -22.935 -16.452  0.00  0.00    -0.014 C 
ATOM     14  C   UNL     1      30.707 -23.220 -15.487  0.00  0.00    +0.048 C 
ATOM     15  C   UNL     1      33.078 -22.971 -15.088  0.00  0.00    -0.002 C 
ATOM     16  C   UNL     1      32.234 -23.037 -17.351  0.00  0.00    -0.002 C 
ATOM     17  C   UNL     1      31.778 -23.116 -14.599  0.00  0.00    +0.014 C 
ATOM     18  C   UNL     1      30.935 -23.182 -16.863  0.00  0.00    +0.014 C 
BRANCH  14  19
ATOM     19  N   UNL     1      29.394 -23.365 -14.993  0.00  0.00    -0.307 N 
BRANCH  19  20
ATOM     20  C   UNL     1      28.944 -24.639 -14.469  0.00  0.00    +0.091 C 
ATOM     21  C   UNL     1      29.767 -25.786 -15.033  0.00  0.00    +0.023 C 
ENDBRANCH  19  20
BRANCH  19  22
ATOM     22  C   UNL     1      28.474 -22.246 -15.014  0.00  0.00    +0.091 C 
ATOM     23  C   UNL     1      27.395 -22.441 -16.066  0.00  0.00    +0.023 C 
ENDBRANCH  19  22
ENDBRANCH  14  19
ENDBRANCH   1  13
BRANCH   1  24
ATOM     24  C   UNL     1      34.989 -22.037 -18.215  0.00  0.00    -0.014 C 
ATOM     25  C   UNL     1      33.962 -21.637 -19.044  0.00  0.00    -0.004 C 
ATOM     26  C   UNL     1      36.312 -21.769 -18.499  0.00  0.00    -0.004 C 
ATOM     27  C   UNL     1      34.272 -20.937 -20.211  0.00  0.00    -0.000 C 
ATOM     28  C   UNL     1      36.622 -21.070 -19.666  0.00  0.00    -0.000 C 
ATOM     29  C   UNL     1      35.602 -20.654 -20.522  0.00  0.00    -0.000 C 
ENDBRANCH   1  24
TORSDOF 9
ENDMDL
MODEL 6
REMARK VINA RESULT:      -9.1      2.069      7.798
REMARK  Name = 12450
REMARK  9 active torsions:
REMARK  status: ('A' for Active; 'I' for Inactive)
REMARK    1  A    between atoms: N_1  and  C_4
REMARK    2  A    between atoms: N_1  and  C_26
REMARK    3  A    between atoms: N_1  and  C_28
REMARK    4  A    between atoms: C_2  and  C_3
REMARK    5  A    between atoms: C_2  and  C_9
REMARK    6  A    between atoms: C_2  and  C_20
REMARK    7  A    between atoms: C_10  and  N_15
REMARK    8  A    between atoms: N_15  and  C_16
REMARK    9  A    between atoms: N_15  and  C_18
REMARK                            x       y       z     vdW  Elec       q    Type
REMARK                         _______ _______ _______ _____ _____    ______ ____
ROOT
ATOM      1  C   UNL     1      34.590 -22.804 -16.971  0.00  0.00    +0.067 C 
ENDROOT
BRANCH   1   2
ATOM      2  C   UNL     1      33.341 -22.938 -16.497  0.00  0.00    -0.014 C 
ATOM      3  C   UNL     1      30.709 -23.218 -15.498  0.00  0.00    +0.048 C 
ATOM      4  C   UNL     1      33.088 -22.854 -15.066  0.00  0.00    -0.002 C 
ATOM      5  C   UNL     1      32.231 -23.168 -17.410  0.00  0.00    -0.002 C 
ATOM      6  C   UNL     1      31.850 -22.984 -14.572  0.00  0.00    +0.014 C 
ATOM      7  C   UNL     1      30.977 -23.303 -16.958  0.00  0.00    +0.014 C 
BRANCH   3   8
ATOM      8  N   UNL     1      29.516 -23.346 -15.043  0.00  0.00    -0.307 N 
BRANCH   8   9
ATOM      9  C   UNL     1      29.007 -24.653 -14.552  0.00  0.00    +0.091 C 
ATOM     10  C   UNL     1      29.998 -25.740 -14.909  0.00  0.00    +0.023 C 
ENDBRANCH   8   9
BRANCH   8  11
ATOM     11  C   UNL     1      28.579 -22.193 -14.983  0.00  0.00    +0.091 C 
ATOM     12  C   UNL     1      27.450 -22.417 -15.966  0.00  0.00    +0.023 C 
ENDBRANCH   8  11
ENDBRANCH   3   8
ENDBRANCH   1   2
BRANCH   1  13
ATOM     13  C   UNL     1      35.703 -23.427 -16.207  0.00  0.00    -0.014 C 
ATOM     14  C   UNL     1      37.769 -24.581 -14.790  0.00  0.00    +0.048 C 
ATOM     15  C   UNL     1      35.538 -24.703 -15.713  0.00  0.00    -0.002 C 
ATOM     16  C   UNL     1      36.864 -22.706 -16.017  0.00  0.00    -0.002 C 
ATOM     17  C   UNL     1      36.583 -25.287 -14.996  0.00  0.00    +0.014 C 
ATOM     18  C   UNL     1      37.908 -23.290 -15.301  0.00  0.00    +0.014 C 
BRANCH  14  19
ATOM     19  N   UNL     1      38.825 -25.171 -14.066  0.00  0.00    -0.307 N 
BRANCH  19  20
ATOM     20  C   UNL     1      38.620 -25.619 -12.703  0.00  0.00    +0.091 C 
ATOM     21  C   UNL     1      38.011 -24.518 -11.850  0.00  0.00    +0.023 C 
ENDBRANCH  19  20
BRANCH  19  22
ATOM     22  C   UNL     1      40.133 -25.327 -14.671  0.00  0.00    +0.091 C 
ATOM     23  C   UNL     1      40.820 -26.589 -14.177  0.00  0.00    +0.023 C 
ENDBRANCH  19  22
ENDBRANCH  14  19
ENDBRANCH   1  13
BRANCH   1  24
ATOM     24  C   UNL     1      34.787 -22.042 -18.232  0.00  0.00    -0.014 C 
ATOM     25  C   UNL     1      33.678 -21.650 -18.953  0.00  0.00    -0.004 C 
ATOM     26  C   UNL     1      36.072 -21.751 -18.639  0.00  0.00    -0.004 C 
ATOM     27  C   UNL     1      33.863 -20.934 -20.136  0.00  0.00    -0.000 C 
ATOM     28  C   UNL     1      36.257 -21.035 -19.823  0.00  0.00    -0.000 C 
ATOM     29  C   UNL     1      35.153 -20.627 -20.571  0.00  0.00    -0.000 C 
ENDBRANCH   1  24
TORSDOF 9
ENDMDL
MODEL 7
REMARK VINA RESULT:      -9.1      2.071      7.927
REMARK  Name = 12450
REMARK  9 active torsions:
REMARK  status: ('A' for Active; 'I' for Inactive)
REMARK    1  A    between atoms: N_1  and  C_4
REMARK    2  A    between atoms: N_1  and  C_26
REMARK    3  A    between atoms: N_1  and  C_28
REMARK    4  A    between atoms: C_2  and  C_3
REMARK    5  A    between atoms: C_2  and  C_9
REMARK    6  A    between atoms: C_2  and  C_20
REMARK    7  A    between atoms: C_10  and  N_15
REMARK    8  A    between atoms: N_15  and  C_16
REMARK    9  A    between atoms: N_15  and  C_18
REMARK                            x       y       z     vdW  Elec       q    Type
REMARK                         _______ _______ _______ _____ _____    ______ ____
ROOT
ATOM      1  C   UNL     1      34.590 -22.804 -16.967  0.00  0.00    +0.067 C 
ENDROOT
BRANCH   1   2
ATOM      2  C   UNL     1      33.342 -22.938 -16.489  0.00  0.00    -0.014 C 
ATOM      3  C   UNL     1      30.713 -23.218 -15.483  0.00  0.00    +0.048 C 
ATOM      4  C   UNL     1      33.095 -22.865 -15.057  0.00  0.00    -0.002 C 
ATOM      5  C   UNL     1      32.229 -23.157 -17.401  0.00  0.00    -0.002 C 
ATOM      6  C   UNL     1      31.858 -22.996 -14.560  0.00  0.00    +0.014 C 
ATOM      7  C   UNL     1      30.976 -23.292 -16.945  0.00  0.00    +0.014 C 
BRANCH   3   8
ATOM      8  N   UNL     1      29.521 -23.347 -15.026  0.00  0.00    -0.307 N 
BRANCH   8   9
ATOM      9  C   UNL     1      28.549 -22.224 -15.064  0.00  0.00    +0.091 C 
ATOM     10  C   UNL     1      27.534 -22.478 -16.157  0.00  0.00    +0.023 C 
ENDBRANCH   8   9
BRANCH   8  11
ATOM     11  C   UNL     1      29.049 -24.626 -14.436  0.00  0.00    +0.091 C 
ATOM     12  C   UNL     1      29.890 -25.764 -14.974  0.00  0.00    +0.023 C 
ENDBRANCH   8  11
ENDBRANCH   3   8
ENDBRANCH   1   2
BRANCH   1  13
ATOM     13  C   UNL     1      35.706 -23.422 -16.204  0.00  0.00    -0.014 C 
ATOM     14  C   UNL     1      37.776 -24.570 -14.788  0.00  0.00    +0.048 C 
ATOM     15  C   UNL     1      36.866 -22.701 -16.022  0.00  0.00    -0.002 C 
ATOM     16  C   UNL     1      35.543 -24.697 -15.703  0.00  0.00    -0.002 C 
ATOM     17  C   UNL     1      37.914 -23.282 -15.306  0.00  0.00    +0.014 C 
ATOM     18  C   UNL     1      36.590 -25.278 -14.988  0.00  0.00    +0.014 C 
BRANCH  14  19
ATOM     19  N   UNL     1      38.834 -25.156 -14.064  0.00  0.00    -0.307 N 
BRANCH  19  20
ATOM     20  C   UNL     1      40.138 -25.324 -14.676  0.00  0.00    +0.091 C 
ATOM     21  C   UNL     1      40.828 -26.577 -14.160  0.00  0.00    +0.023 C 
ENDBRANCH  19  20
BRANCH  19  22
ATOM     22  C   UNL     1      38.630 -25.609 -12.702  0.00  0.00    +0.091 C 
ATOM     23  C   UNL     1      38.024 -24.512 -11.844  0.00  0.00    +0.023 C 
ENDBRANCH  19  22
ENDBRANCH  14  19
ENDBRANCH   1  13
BRANCH   1  24
ATOM     24  C   UNL     1      34.783 -22.045 -18.230  0.00  0.00    -0.014 C 
ATOM     25  C   UNL     1      36.066 -21.754 -18.643  0.00  0.00    -0.004 C 
ATOM     26  C   UNL     1      33.672 -21.657 -18.949  0.00  0.00    -0.004 C 
ATOM     27  C   UNL     1      36.248 -21.042 -19.829  0.00  0.00    -0.000 C 
ATOM     28  C   UNL     1      33.853 -20.944 -20.135  0.00  0.00    -0.000 C 
ATOM     29  C   UNL     1      35.141 -20.637 -20.575  0.00  0.00    -0.000 C 
ENDBRANCH   1  24
TORSDOF 9
ENDMDL
MODEL 8
REMARK VINA RESULT:      -8.7     10.879     16.183
REMARK  Name = 12450
REMARK  9 active torsions:
REMARK  status: ('A' for Active; 'I' for Inactive)
REMARK    1  A    between atoms: N_1  and  C_4
REMARK    2  A    between atoms: N_1  and  C_26
REMARK    3  A    between atoms: N_1  and  C_28
REMARK    4  A    between atoms: C_2  and  C_3
REMARK    5  A    between atoms: C_2  and  C_9
REMARK    6  A    between atoms: C_2  and  C_20
REMARK    7  A    between atoms: C_10  and  N_15
REMARK    8  A    between atoms: N_15  and  C_16
REMARK    9  A    between atoms: N_15  and  C_18
REMARK                            x       y       z     vdW  Elec       q    Type
REMARK                         _______ _______ _______ _____ _____    ______ ____
ROOT
ATOM      1  C   UNL     1      32.415  -9.853 -22.507  0.00  0.00    +0.067 C 
ENDROOT
BRANCH   1   2
ATOM      2  C   UNL     1      32.453  -8.726 -23.235  0.00  0.00    -0.014 C 
ATOM      3  C   UNL     1      32.533  -6.350 -24.768  0.00  0.00    +0.048 C 
ATOM      4  C   UNL     1      31.224  -8.159 -23.771  0.00  0.00    -0.002 C 
ATOM      5  C   UNL     1      33.723  -8.063 -23.493  0.00  0.00    -0.002 C 
ATOM      6  C   UNL     1      31.240  -7.035 -24.499  0.00  0.00    +0.014 C 
ATOM      7  C   UNL     1      33.783  -6.937 -24.216  0.00  0.00    +0.014 C 
BRANCH   3   8
ATOM      8  N   UNL     1      32.569  -5.272 -25.464  0.00  0.00    -0.307 N 
BRANCH   8   9
ATOM      9  C   UNL     1      33.668  -5.006 -26.428  0.00  0.00    +0.091 C 
ATOM     10  C   UNL     1      33.080  -4.508 -27.731  0.00  0.00    +0.023 C 
ENDBRANCH   8   9
BRANCH   8  11
ATOM     11  C   UNL     1      31.511  -4.235 -25.345  0.00  0.00    +0.091 C 
ATOM     12  C   UNL     1      31.675  -3.504 -24.030  0.00  0.00    +0.023 C 
ENDBRANCH   8  11
ENDBRANCH   3   8
ENDBRANCH   1   2
BRANCH   1  13
ATOM     13  C   UNL     1      32.732 -11.138 -23.182  0.00  0.00    -0.014 C 
ATOM     14  C   UNL     1      33.319 -13.524 -24.435  0.00  0.00    +0.048 C 
ATOM     15  C   UNL     1      33.607 -11.132 -24.247  0.00  0.00    -0.002 C 
ATOM     16  C   UNL     1      32.139 -12.296 -22.721  0.00  0.00    -0.002 C 
ATOM     17  C   UNL     1      33.904 -12.339 -24.882  0.00  0.00    +0.014 C 
ATOM     18  C   UNL     1      32.436 -13.502 -23.355  0.00  0.00    +0.014 C 
BRANCH  14  19
ATOM     19  N   UNL     1      33.620 -14.744 -25.075  0.00  0.00    -0.307 N 
BRANCH  19  20
ATOM     20  C   UNL     1      33.086 -15.033 -26.391  0.00  0.00    +0.091 C 
ATOM     21  C   UNL     1      33.253 -13.844 -27.324  0.00  0.00    +0.023 C 
ENDBRANCH  19  20
BRANCH  19  22
ATOM     22  C   UNL     1      34.457 -15.730 -24.421  0.00  0.00    +0.091 C 
ATOM     23  C   UNL     1      34.472 -17.038 -25.194  0.00  0.00    +0.023 C 
ENDBRANCH  19  22
ENDBRANCH  14  19
ENDBRANCH   1  13
BRANCH   1  24
ATOM     24  C   UNL     1      32.058  -9.750 -21.067  0.00  0.00    -0.014 C 
ATOM     25  C   UNL     1      32.280  -8.558 -20.410  0.00  0.00    -0.004 C 
ATOM     26  C   UNL     1      31.516 -10.850 -20.436  0.00  0.00    -0.004 C 
ATOM     27  C   UNL     1      31.944  -8.461 -19.059  0.00  0.00    -0.000 C 
ATOM     28  C   UNL     1      31.182 -10.753 -19.085  0.00  0.00    -0.000 C 
ATOM     29  C   UNL     1      31.395  -9.559 -18.396  0.00  0.00    -0.000 C 
ENDBRANCH   1  24
TORSDOF 9
ENDMDL
MODEL 9
REMARK VINA RESULT:      -8.7     10.984     15.164
REMARK  Name = 12450
REMARK  9 active torsions:
REMARK  status: ('A' for Active; 'I' for Inactive)
REMARK    1  A    between atoms: N_1  and  C_4
REMARK    2  A    between atoms: N_1  and  C_26
REMARK    3  A    between atoms: N_1  and  C_28
REMARK    4  A    between atoms: C_2  and  C_3
REMARK    5  A    between atoms: C_2  and  C_9
REMARK    6  A    between atoms: C_2  and  C_20
REMARK    7  A    between atoms: C_10  and  N_15
REMARK    8  A    between atoms: N_15  and  C_16
REMARK    9  A    between atoms: N_15  and  C_18
REMARK                            x       y       z     vdW  Elec       q    Type
REMARK                         _______ _______ _______ _____ _____    ______ ____
ROOT
ATOM      1  C   UNL     1      32.385  -9.873 -22.501  0.00  0.00    +0.067 C 
ENDROOT
BRANCH   1   2
ATOM      2  C   UNL     1      32.683 -11.018 -23.136  0.00  0.00    -0.014 C 
ATOM      3  C   UNL     1      33.314 -13.429 -24.472  0.00  0.00    +0.048 C 
ATOM      4  C   UNL     1      33.606 -11.011 -24.261  0.00  0.00    -0.002 C 
ATOM      5  C   UNL     1      32.086 -12.273 -22.703  0.00  0.00    -0.002 C 
ATOM      6  C   UNL     1      33.918 -12.142 -24.908  0.00  0.00    +0.014 C 
ATOM      7  C   UNL     1      32.372 -13.426 -23.321  0.00  0.00    +0.014 C 
BRANCH   3   8
ATOM      8  N   UNL     1      33.600 -14.523 -25.080  0.00  0.00    -0.307 N 
BRANCH   8   9
ATOM      9  C   UNL     1      34.479 -15.549 -24.462  0.00  0.00    +0.091 C 
ATOM     10  C   UNL     1      34.300 -16.864 -25.189  0.00  0.00    +0.023 C 
ENDBRANCH   8   9
BRANCH   8  11
ATOM     11  C   UNL     1      33.065 -14.822 -26.433  0.00  0.00    +0.091 C 
ATOM     12  C   UNL     1      33.377 -13.666 -27.359  0.00  0.00    +0.023 C 
ENDBRANCH   8  11
ENDBRANCH   3   8
ENDBRANCH   1   2
BRANCH   1  13
ATOM     13  C   UNL     1      32.407  -8.609 -23.282  0.00  0.00    -0.014 C 
ATOM     14  C   UNL     1      32.448  -6.262 -24.731  0.00  0.00    +0.048 C 
ATOM     15  C   UNL     1      33.618  -7.993 -23.516  0.00  0.00    -0.002 C 
ATOM     16  C   UNL     1      31.215  -8.092 -23.746  0.00  0.00    -0.002 C 
ATOM     17  C   UNL     1      33.639  -6.805 -24.249  0.00  0.00    +0.014 C 
ATOM     18  C   UNL     1      31.236  -6.905 -24.478  0.00  0.00    +0.014 C 
BRANCH  14  19
ATOM     19  N   UNL     1      32.470  -5.063 -25.472  0.00  0.00    -0.307 N 
BRANCH  19  20
ATOM     20  C   UNL     1      31.435  -4.065 -25.283  0.00  0.00    +0.091 C 
ATOM     21  C   UNL     1      31.659  -3.279 -24.001  0.00  0.00    +0.023 C 
ENDBRANCH  19  20
BRANCH  19  22
ATOM     22  C   UNL     1      33.519  -4.817 -26.441  0.00  0.00    +0.091 C 
ATOM     23  C   UNL     1      32.940  -4.428 -27.791  0.00  0.00    +0.023 C 
ENDBRANCH  19  22
ENDBRANCH  14  19
ENDBRANCH   1  13
BRANCH   1  24
ATOM     24  C   UNL     1      32.049  -9.937 -21.054  0.00  0.00    -0.014 C 
ATOM     25  C   UNL     1      32.276  -8.826 -20.269  0.00  0.00    -0.004 C 
ATOM     26  C   UNL     1      31.521 -11.105 -20.544  0.00  0.00    -0.004 C 
ATOM     27  C   UNL     1      31.961  -8.885 -18.911  0.00  0.00    -0.000 C 
ATOM     28  C   UNL     1      31.207 -11.164 -19.186  0.00  0.00    -0.000 C 
ATOM     29  C   UNL     1      31.426 -10.055 -18.370  0.00  0.00    -0.000 C 
ENDBRANCH   1  24
TORSDOF 9
ENDMDL
