MODEL 1
REMARK VINA RESULT:      -6.9      0.000      0.000
REMARK  Name = 11401421
REMARK  5 active torsions:
REMARK  status: ('A' for Active; 'I' for Inactive)
REMARK    1  A    between atoms: CA_1  and  C_3
REMARK    2  A    between atoms: CA_1  and  N_11
REMARK    3  A    between atoms: CA_1  and  C_16
REMARK    4  A    between atoms: C_8  and  O_9
REMARK    5  A    between atoms: C_16  and  O_17
REMARK                            x       y       z     vdW  Elec       q    Type
REMARK                         _______ _______ _______ _____ _____    ______ ____
ROOT
ATOM      1  CA  UNL     1      34.886 -17.990 -22.206  0.00  0.00    +0.059 C 
ENDROOT
BRANCH   1   3
ATOM      2 CL   UNL     1      36.684 -21.702 -19.057  0.00  0.00    -0.079 Cl
ATOM      3  C   UNL     1      34.596 -19.139 -21.300  0.00  0.00    -0.031 C 
ATOM      4  C   UNL     1      35.642 -19.812 -20.670  0.00  0.00    +0.009 C 
ATOM      5  C   UNL     1      33.278 -19.540 -21.081  0.00  0.00    -0.003 C 
ATOM      6  C   UNL     1      35.371 -20.886 -19.822  0.00  0.00    +0.091 C 
ATOM      7  C   UNL     1      33.006 -20.613 -20.233  0.00  0.00    +0.037 C 
ATOM      8  C   UNL     1      34.053 -21.286 -19.603  0.00  0.00    +0.144 C 
BRANCH   8   9
ATOM      9  O   UNL     1      33.759 -22.333 -18.781  0.00  0.00    -0.505 OA
ATOM     10  H   UNL     1      33.169 -23.003 -19.066  0.00  0.00    +0.292 HD
ENDBRANCH   8   9
ENDBRANCH   1   3
BRANCH   1  11
ATOM     11  N   UNL     1      36.234 -18.051 -22.798  0.00  0.00    +0.391 N 
ATOM     12  H1  UNL     1      36.161 -18.280 -23.789  0.00  0.00    -0.088 HD
ATOM     13  H2  UNL     1      36.781 -18.770 -22.324  0.00  0.00    -0.088 HD
ATOM     14  H3  UNL     1      36.694 -17.147 -22.689  0.00  0.00    -0.088 HD
ENDBRANCH   1  11
BRANCH   1  16
ATOM     15  OXT UNL     1      35.138 -16.433 -20.375  0.00  0.00    -0.252 OA
ATOM     16  C   UNL     1      34.710 -16.648 -21.505  0.00  0.00    +0.297 C 
BRANCH  16  17
ATOM     17  O   UNL     1      33.997 -15.724 -22.194  0.00  0.00    -0.481 OA
ATOM     18  H   UNL     1      34.440 -15.029 -22.641  0.00  0.00    +0.295 HD
ENDBRANCH  16  17
ENDBRANCH   1  16
TORSDOF 5
ENDMDL
MODEL 2
REMARK VINA RESULT:      -6.7      2.768      5.003
REMARK  Name = 11401421
REMARK  5 active torsions:
REMARK  status: ('A' for Active; 'I' for Inactive)
REMARK    1  A    between atoms: CA_1  and  C_3
REMARK    2  A    between atoms: CA_1  and  N_11
REMARK    3  A    between atoms: CA_1  and  C_16
REMARK    4  A    between atoms: C_8  and  O_9
REMARK    5  A    between atoms: C_16  and  O_17
REMARK                            x       y       z     vdW  Elec       q    Type
REMARK                         _______ _______ _______ _____ _____    ______ ____
ROOT
ATOM      1  CA  UNL     1      33.929 -20.469 -20.815  0.00  0.00    +0.059 C 
ENDROOT
BRANCH   1   3
ATOM      2 CL   UNL     1      34.530 -15.317 -20.949  0.00  0.00    -0.079 Cl
ATOM      3  C   UNL     1      34.367 -19.259 -21.570  0.00  0.00    -0.031 C 
ATOM      4  C   UNL     1      34.262 -17.997 -20.987  0.00  0.00    +0.009 C 
ATOM      5  C   UNL     1      34.884 -19.391 -22.859  0.00  0.00    -0.003 C 
ATOM      6  C   UNL     1      34.673 -16.866 -21.693  0.00  0.00    +0.091 C 
ATOM      7  C   UNL     1      35.294 -18.261 -23.565  0.00  0.00    +0.037 C 
ATOM      8  C   UNL     1      35.189 -16.999 -22.982  0.00  0.00    +0.144 C 
BRANCH   8   9
ATOM      9  O   UNL     1      35.597 -15.911 -23.695  0.00  0.00    -0.505 OA
ATOM     10  H   UNL     1      36.004 -15.189 -23.258  0.00  0.00    +0.292 HD
ENDBRANCH   8   9
ENDBRANCH   1   3
BRANCH   1  11
ATOM     11  N   UNL     1      32.697 -20.246 -20.037  0.00  0.00    +0.391 N 
ATOM     12  H1  UNL     1      32.936 -20.093 -19.057  0.00  0.00    -0.088 HD
ATOM     13  H2  UNL     1      32.093 -21.064 -20.116  0.00  0.00    -0.088 HD
ATOM     14  H3  UNL     1      32.209 -19.427 -20.401  0.00  0.00    -0.088 HD
ENDBRANCH   1  11
BRANCH   1  16
ATOM     15  OXT UNL     1      36.081 -20.399 -19.717  0.00  0.00    -0.252 OA
ATOM     16  C   UNL     1      35.018 -20.990 -19.884  0.00  0.00    +0.297 C 
BRANCH  16  17
ATOM     17  O   UNL     1      34.755 -22.182 -19.295  0.00  0.00    -0.481 OA
ATOM     18  H   UNL     1      35.141 -22.967 -19.633  0.00  0.00    +0.295 HD
ENDBRANCH  16  17
ENDBRANCH   1  16
TORSDOF 5
ENDMDL
MODEL 3
REMARK VINA RESULT:      -6.6      1.485      2.067
REMARK  Name = 11401421
REMARK  5 active torsions:
REMARK  status: ('A' for Active; 'I' for Inactive)
REMARK    1  A    between atoms: CA_1  and  C_3
REMARK    2  A    between atoms: CA_1  and  N_11
REMARK    3  A    between atoms: CA_1  and  C_16
REMARK    4  A    between atoms: C_8  and  O_9
REMARK    5  A    between atoms: C_16  and  O_17
REMARK                            x       y       z     vdW  Elec       q    Type
REMARK                         _______ _______ _______ _____ _____    ______ ____
ROOT
ATOM      1  CA  UNL     1      34.604 -17.321 -22.235  0.00  0.00    +0.059 C 
ENDROOT
BRANCH   1   3
ATOM      2 CL   UNL     1      33.184 -21.518 -19.534  0.00  0.00    -0.079 Cl
ATOM      3  C   UNL     1      35.006 -18.515 -21.436  0.00  0.00    -0.031 C 
ATOM      4  C   UNL     1      34.033 -19.366 -20.915  0.00  0.00    +0.009 C 
ATOM      5  C   UNL     1      36.358 -18.781 -21.211  0.00  0.00    -0.003 C 
ATOM      6  C   UNL     1      34.410 -20.483 -20.168  0.00  0.00    +0.091 C 
ATOM      7  C   UNL     1      36.735 -19.896 -20.465  0.00  0.00    +0.037 C 
ATOM      8  C   UNL     1      35.760 -20.748 -19.944  0.00  0.00    +0.144 C 
BRANCH   8   9
ATOM      9  O   UNL     1      36.157 -21.831 -19.217  0.00  0.00    -0.505 OA
ATOM     10  H   UNL     1      35.609 -22.163 -18.533  0.00  0.00    +0.292 HD
ENDBRANCH   8   9
ENDBRANCH   1   3
BRANCH   1  11
ATOM     11  N   UNL     1      35.631 -16.909 -23.208  0.00  0.00    +0.391 N 
ATOM     12  H1  UNL     1      35.327 -16.059 -23.683  0.00  0.00    -0.088 HD
ATOM     13  H2  UNL     1      35.765 -17.651 -23.895  0.00  0.00    -0.088 HD
ATOM     14  H3  UNL     1      36.510 -16.733 -22.722  0.00  0.00    -0.088 HD
ENDBRANCH   1  11
BRANCH   1  16
ATOM     15  OXT UNL     1      34.895 -15.841 -20.347  0.00  0.00    -0.252 OA
ATOM     16  C   UNL     1      34.250 -16.131 -21.350  0.00  0.00    +0.297 C 
BRANCH  16  17
ATOM     17  O   UNL     1      33.139 -15.447 -21.716  0.00  0.00    -0.481 OA
ATOM     18  H   UNL     1      32.301 -15.704 -21.384  0.00  0.00    +0.295 HD
ENDBRANCH  16  17
ENDBRANCH   1  16
TORSDOF 5
ENDMDL
MODEL 4
REMARK VINA RESULT:      -6.6      3.231      5.290
REMARK  Name = 11401421
REMARK  5 active torsions:
REMARK  status: ('A' for Active; 'I' for Inactive)
REMARK    1  A    between atoms: CA_1  and  C_3
REMARK    2  A    between atoms: CA_1  and  N_11
REMARK    3  A    between atoms: CA_1  and  C_16
REMARK    4  A    between atoms: C_8  and  O_9
REMARK    5  A    between atoms: C_16  and  O_17
REMARK                            x       y       z     vdW  Elec       q    Type
REMARK                         _______ _______ _______ _____ _____    ______ ____
ROOT
ATOM      1  CA  UNL     1      34.945 -18.927 -20.840  0.00  0.00    +0.059 C 
ENDROOT
BRANCH   1   3
ATOM      2 CL   UNL     1      34.336 -14.618 -23.666  0.00  0.00    -0.079 Cl
ATOM      3  C   UNL     1      34.818 -18.297 -22.186  0.00  0.00    -0.031 C 
ATOM      4  C   UNL     1      34.656 -16.917 -22.297  0.00  0.00    +0.009 C 
ATOM      5  C   UNL     1      34.864 -19.089 -23.334  0.00  0.00    -0.003 C 
ATOM      6  C   UNL     1      34.538 -16.328 -23.557  0.00  0.00    +0.091 C 
ATOM      7  C   UNL     1      34.747 -18.501 -24.593  0.00  0.00    +0.037 C 
ATOM      8  C   UNL     1      34.584 -17.120 -24.704  0.00  0.00    +0.144 C 
BRANCH   8   9
ATOM      9  O   UNL     1      34.471 -16.571 -25.947  0.00  0.00    -0.505 OA
ATOM     10  H   UNL     1      34.754 -15.691 -26.099  0.00  0.00    +0.292 HD
ENDBRANCH   8   9
ENDBRANCH   1   3
BRANCH   1  11
ATOM     11  N   UNL     1      36.293 -19.461 -20.580  0.00  0.00    +0.391 N 
ATOM     12  H1  UNL     1      36.217 -20.371 -20.124  0.00  0.00    -0.088 HD
ATOM     13  H2  UNL     1      36.802 -18.819 -19.973  0.00  0.00    -0.088 HD
ATOM     14  H3  UNL     1      36.794 -19.563 -21.463  0.00  0.00    -0.088 HD
ENDBRANCH   1  11
BRANCH   1  16
ATOM     15  OXT UNL     1      32.730 -19.893 -20.893  0.00  0.00    -0.252 OA
ATOM     16  C   UNL     1      33.920 -20.036 -20.627  0.00  0.00    +0.297 C 
BRANCH  16  17
ATOM     17  O   UNL     1      34.403 -21.173 -20.070  0.00  0.00    -0.481 OA
ATOM     18  H   UNL     1      33.839 -21.720 -19.558  0.00  0.00    +0.295 HD
ENDBRANCH  16  17
ENDBRANCH   1  16
TORSDOF 5
ENDMDL
MODEL 5
REMARK VINA RESULT:      -6.5     10.105     11.227
REMARK  Name = 11401421
REMARK  5 active torsions:
REMARK  status: ('A' for Active; 'I' for Inactive)
REMARK    1  A    between atoms: CA_1  and  C_3
REMARK    2  A    between atoms: CA_1  and  N_11
REMARK    3  A    between atoms: CA_1  and  C_16
REMARK    4  A    between atoms: C_8  and  O_9
REMARK    5  A    between atoms: C_16  and  O_17
REMARK                            x       y       z     vdW  Elec       q    Type
REMARK                         _______ _______ _______ _____ _____    ______ ____
ROOT
ATOM      1  CA  UNL     1      32.016  -7.891 -21.497  0.00  0.00    +0.059 C 
ENDROOT
BRANCH   1   3
ATOM      2 CL   UNL     1      33.499 -12.065 -24.200  0.00  0.00    -0.079 Cl
ATOM      3  C   UNL     1      32.967  -8.504 -22.469  0.00  0.00    -0.031 C 
ATOM      4  C   UNL     1      32.817  -9.838 -22.845  0.00  0.00    +0.009 C 
ATOM      5  C   UNL     1      34.006  -7.742 -23.003  0.00  0.00    -0.003 C 
ATOM      6  C   UNL     1      33.707 -10.411 -23.754  0.00  0.00    +0.091 C 
ATOM      7  C   UNL     1      34.896  -8.314 -23.912  0.00  0.00    +0.037 C 
ATOM      8  C   UNL     1      34.746  -9.649 -24.288  0.00  0.00    +0.144 C 
BRANCH   8   9
ATOM      9  O   UNL     1      35.630 -10.183 -25.177  0.00  0.00    -0.505 OA
ATOM     10  H   UNL     1      36.452  -9.761 -25.333  0.00  0.00    +0.292 HD
ENDBRANCH   8   9
ENDBRANCH   1   3
BRANCH   1  11
ATOM     11  N   UNL     1      31.842  -6.442 -21.700  0.00  0.00    +0.391 N 
ATOM     12  H1  UNL     1      31.342  -6.278 -22.574  0.00  0.00    -0.088 HD
ATOM     13  H2  UNL     1      32.757  -5.993 -21.743  0.00  0.00    -0.088 HD
ATOM     14  H3  UNL     1      31.309  -6.052 -20.923  0.00  0.00    -0.088 HD
ENDBRANCH   1  11
BRANCH   1  16
ATOM     15  OXT UNL     1      32.132  -9.178 -19.455  0.00  0.00    -0.252 OA
ATOM     16  C   UNL     1      32.427  -8.147 -20.052  0.00  0.00    +0.297 C 
BRANCH  16  17
ATOM     17  O   UNL     1      33.095  -7.131 -19.451  0.00  0.00    -0.481 OA
ATOM     18  H   UNL     1      33.054  -6.267 -19.812  0.00  0.00    +0.295 HD
ENDBRANCH  16  17
ENDBRANCH   1  16
TORSDOF 5
ENDMDL
MODEL 6
REMARK VINA RESULT:      -6.5      7.300      9.247
REMARK  Name = 11401421
REMARK  5 active torsions:
REMARK  status: ('A' for Active; 'I' for Inactive)
REMARK    1  A    between atoms: CA_1  and  C_3
REMARK    2  A    between atoms: CA_1  and  N_11
REMARK    3  A    between atoms: CA_1  and  C_16
REMARK    4  A    between atoms: C_8  and  O_9
REMARK    5  A    between atoms: C_16  and  O_17
REMARK                            x       y       z     vdW  Elec       q    Type
REMARK                         _______ _______ _______ _____ _____    ______ ____
ROOT
ATOM      1  CA  UNL     1      38.796 -25.902 -14.274  0.00  0.00    +0.059 C 
ENDROOT
BRANCH   1   3
ATOM      2 CL   UNL     1      37.139 -21.516 -16.495  0.00  0.00    -0.079 Cl
ATOM      3  C   UNL     1      37.655 -25.089 -14.787  0.00  0.00    -0.031 C 
ATOM      4  C   UNL     1      37.889 -23.831 -15.339  0.00  0.00    +0.009 C 
ATOM      5  C   UNL     1      36.354 -25.589 -14.715  0.00  0.00    -0.003 C 
ATOM      6  C   UNL     1      36.822 -23.070 -15.819  0.00  0.00    +0.091 C 
ATOM      7  C   UNL     1      35.288 -24.830 -15.195  0.00  0.00    +0.037 C 
ATOM      8  C   UNL     1      35.522 -23.571 -15.747  0.00  0.00    +0.144 C 
BRANCH   8   9
ATOM      9  O   UNL     1      34.460 -22.849 -16.208  0.00  0.00    -0.505 OA
ATOM     10  H   UNL     1      33.695 -22.748 -15.676  0.00  0.00    +0.292 HD
ENDBRANCH   8   9
ENDBRANCH   1   3
BRANCH   1  11
ATOM     11  N   UNL     1      38.898 -25.886 -12.804  0.00  0.00    +0.391 N 
ATOM     12  H1  UNL     1      39.628 -25.232 -12.521  0.00  0.00    -0.088 HD
ATOM     13  H2  UNL     1      39.132 -26.821 -12.469  0.00  0.00    -0.088 HD
ATOM     14  H3  UNL     1      38.005 -25.596 -12.404  0.00  0.00    -0.088 HD
ENDBRANCH   1  11
BRANCH   1  16
ATOM     15  OXT UNL     1      40.896 -24.707 -14.284  0.00  0.00    -0.252 OA
ATOM     16  C   UNL     1      40.128 -25.463 -14.871  0.00  0.00    +0.297 C 
BRANCH  16  17
ATOM     17  O   UNL     1      40.382 -25.921 -16.122  0.00  0.00    -0.481 OA
ATOM     18  H   UNL     1      40.975 -25.456 -16.679  0.00  0.00    +0.295 HD
ENDBRANCH  16  17
ENDBRANCH   1  16
TORSDOF 5
ENDMDL
MODEL 7
REMARK VINA RESULT:      -6.4      8.905     10.346
REMARK  Name = 11401421
REMARK  5 active torsions:
REMARK  status: ('A' for Active; 'I' for Inactive)
REMARK    1  A    between atoms: CA_1  and  C_3
REMARK    2  A    between atoms: CA_1  and  N_11
REMARK    3  A    between atoms: CA_1  and  C_16
REMARK    4  A    between atoms: C_8  and  O_9
REMARK    5  A    between atoms: C_16  and  O_17
REMARK                            x       y       z     vdW  Elec       q    Type
REMARK                         _______ _______ _______ _____ _____    ______ ____
ROOT
ATOM      1  CA  UNL     1      35.364 -24.611 -12.153  0.00  0.00    +0.059 C 
ENDROOT
BRANCH   1   3
ATOM      2 CL   UNL     1      37.965 -22.755 -16.241  0.00  0.00    -0.079 Cl
ATOM      3  C   UNL     1      36.524 -24.730 -13.082  0.00  0.00    -0.031 C 
ATOM      4  C   UNL     1      36.694 -23.803 -14.109  0.00  0.00    +0.009 C 
ATOM      5  C   UNL     1      37.441 -25.770 -12.923  0.00  0.00    -0.003 C 
ATOM      6  C   UNL     1      37.780 -23.915 -14.978  0.00  0.00    +0.091 C 
ATOM      7  C   UNL     1      38.527 -25.882 -13.790  0.00  0.00    +0.037 C 
ATOM      8  C   UNL     1      38.696 -24.954 -14.818  0.00  0.00    +0.144 C 
BRANCH   8   9
ATOM      9  O   UNL     1      39.766 -25.088 -15.653  0.00  0.00    -0.505 OA
ATOM     10  H   UNL     1      40.039 -24.367 -16.185  0.00  0.00    +0.292 HD
ENDBRANCH   8   9
ENDBRANCH   1   3
BRANCH   1  11
ATOM     11  N   UNL     1      34.398 -23.578 -12.569  0.00  0.00    +0.391 N 
ATOM     12  H1  UNL     1      33.457 -23.864 -12.300  0.00  0.00    -0.088 HD
ATOM     13  H2  UNL     1      34.441 -23.462 -13.582  0.00  0.00    -0.088 HD
ATOM     14  H3  UNL     1      34.630 -22.694 -12.116  0.00  0.00    -0.088 HD
ENDBRANCH   1  11
BRANCH   1  16
ATOM     15  OXT UNL     1      35.277 -24.876  -9.753  0.00  0.00    -0.252 OA
ATOM     16  C   UNL     1      35.803 -24.333 -10.719  0.00  0.00    +0.297 C 
BRANCH  16  17
ATOM     17  O   UNL     1      36.779 -23.402 -10.582  0.00  0.00    -0.481 OA
ATOM     18  H   UNL     1      37.647 -23.666 -10.347  0.00  0.00    +0.295 HD
ENDBRANCH  16  17
ENDBRANCH   1  16
TORSDOF 5
ENDMDL
MODEL 8
REMARK VINA RESULT:      -6.4      4.084      6.292
REMARK  Name = 11401421
REMARK  5 active torsions:
REMARK  status: ('A' for Active; 'I' for Inactive)
REMARK    1  A    between atoms: CA_1  and  C_3
REMARK    2  A    between atoms: CA_1  and  N_11
REMARK    3  A    between atoms: CA_1  and  C_16
REMARK    4  A    between atoms: C_8  and  O_9
REMARK    5  A    between atoms: C_16  and  O_17
REMARK                            x       y       z     vdW  Elec       q    Type
REMARK                         _______ _______ _______ _____ _____    ______ ____
ROOT
ATOM      1  CA  UNL     1      35.617 -17.022 -22.591  0.00  0.00    +0.059 C 
ENDROOT
BRANCH   1   3
ATOM      2 CL   UNL     1      33.122 -12.635 -23.795  0.00  0.00    -0.079 Cl
ATOM      3  C   UNL     1      34.783 -16.261 -23.565  0.00  0.00    -0.031 C 
ATOM      4  C   UNL     1      34.383 -14.958 -23.272  0.00  0.00    +0.009 C 
ATOM      5  C   UNL     1      34.404 -16.852 -24.771  0.00  0.00    -0.003 C 
ATOM      6  C   UNL     1      33.604 -14.245 -24.184  0.00  0.00    +0.091 C 
ATOM      7  C   UNL     1      33.625 -16.140 -25.683  0.00  0.00    +0.037 C 
ATOM      8  C   UNL     1      33.225 -14.836 -25.389  0.00  0.00    +0.144 C 
BRANCH   8   9
ATOM      9  O   UNL     1      32.463 -14.164 -26.298  0.00  0.00    -0.505 OA
ATOM     10  H   UNL     1      31.900 -14.636 -26.879  0.00  0.00    +0.292 HD
ENDBRANCH   8   9
ENDBRANCH   1   3
BRANCH   1  11
ATOM     11  N   UNL     1      36.118 -18.296 -23.137  0.00  0.00    +0.391 N 
ATOM     12  H1  UNL     1      35.351 -18.801 -23.582  0.00  0.00    -0.088 HD
ATOM     13  H2  UNL     1      36.503 -18.862 -22.380  0.00  0.00    -0.088 HD
ATOM     14  H3  UNL     1      36.847 -18.108 -23.824  0.00  0.00    -0.088 HD
ENDBRANCH   1  11
BRANCH   1  16
ATOM     15  OXT UNL     1      34.022 -18.176 -21.189  0.00  0.00    -0.252 OA
ATOM     16  C   UNL     1      34.872 -17.297 -21.289  0.00  0.00    +0.297 C 
BRANCH  16  17
ATOM     17  O   UNL     1      35.173 -16.464 -20.263  0.00  0.00    -0.481 OA
ATOM     18  H   UNL     1      35.997 -16.017 -20.249  0.00  0.00    +0.295 HD
ENDBRANCH  16  17
ENDBRANCH   1  16
TORSDOF 5
ENDMDL
MODEL 9
REMARK VINA RESULT:      -6.3      2.730      4.931
REMARK  Name = 11401421
REMARK  5 active torsions:
REMARK  status: ('A' for Active; 'I' for Inactive)
REMARK    1  A    between atoms: CA_1  and  C_3
REMARK    2  A    between atoms: CA_1  and  N_11
REMARK    3  A    between atoms: CA_1  and  C_16
REMARK    4  A    between atoms: C_8  and  O_9
REMARK    5  A    between atoms: C_16  and  O_17
REMARK                            x       y       z     vdW  Elec       q    Type
REMARK                         _______ _______ _______ _____ _____    ______ ____
ROOT
ATOM      1  CA  UNL     1      34.728 -20.227 -20.183  0.00  0.00    +0.059 C 
ENDROOT
BRANCH   1   3
ATOM      2 CL   UNL     1      34.543 -19.023 -25.226  0.00  0.00    -0.079 Cl
ATOM      3  C   UNL     1      34.862 -19.192 -21.248  0.00  0.00    -0.031 C 
ATOM      4  C   UNL     1      34.665 -19.537 -22.585  0.00  0.00    +0.009 C 
ATOM      5  C   UNL     1      35.183 -17.877 -20.908  0.00  0.00    -0.003 C 
ATOM      6  C   UNL     1      34.790 -18.568 -23.581  0.00  0.00    +0.091 C 
ATOM      7  C   UNL     1      35.308 -16.909 -21.903  0.00  0.00    +0.037 C 
ATOM      8  C   UNL     1      35.110 -17.254 -23.240  0.00  0.00    +0.144 C 
BRANCH   8   9
ATOM      9  O   UNL     1      35.240 -16.288 -24.193  0.00  0.00    -0.505 OA
ATOM     10  H   UNL     1      34.654 -16.268 -24.924  0.00  0.00    +0.292 HD
ENDBRANCH   8   9
ENDBRANCH   1   3
BRANCH   1  11
ATOM     11  N   UNL     1      35.642 -21.367 -20.372  0.00  0.00    +0.391 N 
ATOM     12  H1  UNL     1      35.270 -21.985 -21.094  0.00  0.00    -0.088 HD
ATOM     13  H2  UNL     1      35.728 -21.883 -19.496  0.00  0.00    -0.088 HD
ATOM     14  H3  UNL     1      36.560 -21.024 -20.656  0.00  0.00    -0.088 HD
ENDBRANCH   1  11
BRANCH   1  16
ATOM     15  OXT UNL     1      32.321 -20.015 -20.177  0.00  0.00    -0.252 OA
ATOM     16  C   UNL     1      33.300 -20.746 -20.064  0.00  0.00    +0.297 C 
BRANCH  16  17
ATOM     17  O   UNL     1      33.186 -22.064 -19.768  0.00  0.00    -0.481 OA
ATOM     18  H   UNL     1      33.012 -22.333 -18.886  0.00  0.00    +0.295 HD
ENDBRANCH  16  17
ENDBRANCH   1  16
TORSDOF 5
ENDMDL
