MODEL 1
REMARK VINA RESULT:      -9.2      0.000      0.000
REMARK  Name = 24963749
REMARK  6 active torsions:
REMARK  status: ('A' for Active; 'I' for Inactive)
REMARK    1  A    between atoms: N_1  and  C_23
REMARK    2  A    between atoms: C_2  and  N_14
REMARK    3  A    between atoms: C_11  and  C_22
REMARK    4  A    between atoms: C_15  and  O_17
REMARK    5  A    between atoms: O_17  and  C_18
REMARK    6  A    between atoms: C_23  and  C_25
REMARK                            x       y       z     vdW  Elec       q    Type
REMARK                         _______ _______ _______ _____ _____    ______ ____
ROOT
ATOM      1  N   UNL     1      33.457 -24.052 -15.172  0.00  0.00    -0.325 N 
ATOM      2  C   UNL     1      36.226 -23.645 -12.787  0.00  0.00    +0.085 C 
ATOM      3  C   UNL     1      34.451 -23.764 -14.303  0.00  0.00    +0.035 A 
ATOM      4  C   UNL     1      35.398 -22.997 -14.917  0.00  0.00    -0.007 A 
ATOM      5  C   UNL     1      34.721 -24.091 -12.892  0.00  0.00    +0.063 C 
ATOM      6  C   UNL     1      36.501 -22.662 -13.989  0.00  0.00    +0.048 C 
ATOM      7  C   UNL     1      34.994 -22.781 -16.245  0.00  0.00    +0.014 A 
ATOM      8  C   UNL     1      33.766 -23.456 -16.388  0.00  0.00    +0.060 A 
ATOM      9  C   UNL     1      35.526 -22.091 -17.348  0.00  0.00    +0.011 C 
ATOM     10  C   UNL     1      33.057 -23.462 -17.595  0.00  0.00    +0.018 C 
ATOM     11  C   UNL     1      34.820 -22.095 -18.558  0.00  0.00    +0.069 C 
ATOM     12  C   UNL     1      33.607 -22.768 -18.676  0.00  0.00    +0.012 C 
ENDROOT
BRANCH   2  14
ATOM     13  O   UNL     1      39.078 -23.761 -12.247  0.00  0.00    -0.226 OA
ATOM     14  N   UNL     1      37.098 -24.798 -12.865  0.00  0.00    -0.272 N 
ATOM     15  C   UNL     1      38.446 -24.756 -12.589  0.00  0.00    +0.401 C 
ATOM     16  H   UNL     1      36.705 -25.661 -13.132  0.00  0.00    +0.153 HD
BRANCH  15  17
ATOM     17  O   UNL     1      38.988 -26.000 -12.754  0.00  0.00    -0.438 OA
BRANCH  17  18
ATOM     18  C   UNL     1      39.290 -26.376 -14.102  0.00  0.00    +0.171 C 
ATOM     19  C   UNL     1      38.006 -26.395 -14.917  0.00  0.00    +0.047 C 
ATOM     20  C   UNL     1      40.310 -25.404 -14.676  0.00  0.00    +0.047 C 
ENDBRANCH  17  18
ENDBRANCH  15  17
ENDBRANCH   2  14
BRANCH  11  22
ATOM     21  N   UNL     1      35.786 -20.828 -20.601  0.00  0.00    -0.191 NA
ATOM     22  C   UNL     1      35.354 -21.396 -19.686  0.00  0.00    +0.100 C 
ENDBRANCH  11  22
BRANCH   1  23
ATOM     23  C   UNL     1      32.282 -24.843 -14.886  0.00  0.00    +0.152 C 
BRANCH  23  25
ATOM     24  N   UNL     1      30.078 -24.793 -15.921  0.00  0.00    -0.246 NA
ATOM     25  C   UNL     1      30.990 -24.122 -15.184  0.00  0.00    +0.082 C 
ATOM     26  C   UNL     1      30.803 -22.837 -14.701  0.00  0.00    +0.017 C 
ATOM     27  C   UNL     1      29.601 -22.201 -14.993  0.00  0.00    +0.003 C 
ATOM     28  C   UNL     1      28.922 -24.143 -16.185  0.00  0.00    +0.099 C 
ATOM     29  C   UNL     1      28.638 -22.860 -15.748  0.00  0.00    +0.021 C 
ENDBRANCH  23  25
ENDBRANCH   1  23
TORSDOF 6
ENDMDL
MODEL 2
REMARK VINA RESULT:      -9.0      3.252      6.353
REMARK  Name = 24963749
REMARK  6 active torsions:
REMARK  status: ('A' for Active; 'I' for Inactive)
REMARK    1  A    between atoms: N_1  and  C_23
REMARK    2  A    between atoms: C_2  and  N_14
REMARK    3  A    between atoms: C_11  and  C_22
REMARK    4  A    between atoms: C_15  and  O_17
REMARK    5  A    between atoms: O_17  and  C_18
REMARK    6  A    between atoms: C_23  and  C_25
REMARK                            x       y       z     vdW  Elec       q    Type
REMARK                         _______ _______ _______ _____ _____    ______ ____
ROOT
ATOM      1  N   UNL     1      32.970 -23.121 -15.019  0.00  0.00    -0.325 N 
ATOM      2  C   UNL     1      33.407 -22.874 -18.661  0.00  0.00    +0.085 C 
ATOM      3  C   UNL     1      33.134 -23.171 -16.359  0.00  0.00    +0.035 A 
ATOM      4  C   UNL     1      34.326 -23.765 -16.660  0.00  0.00    -0.007 A 
ATOM      5  C   UNL     1      32.335 -22.736 -17.517  0.00  0.00    +0.063 C 
ATOM      6  C   UNL     1      34.535 -23.836 -18.123  0.00  0.00    +0.048 C 
ATOM      7  C   UNL     1      34.958 -24.113 -15.455  0.00  0.00    +0.014 A 
ATOM      8  C   UNL     1      34.087 -23.699 -14.429  0.00  0.00    +0.060 A 
ATOM      9  C   UNL     1      36.172 -24.735 -15.111  0.00  0.00    +0.011 C 
ATOM     10  C   UNL     1      34.391 -23.885 -13.075  0.00  0.00    +0.018 C 
ATOM     11  C   UNL     1      36.481 -24.923 -13.758  0.00  0.00    +0.069 C 
ATOM     12  C   UNL     1      35.603 -24.505 -12.759  0.00  0.00    +0.012 C 
ENDROOT
BRANCH   2  14
ATOM     13  O   UNL     1      32.471 -20.994 -20.668  0.00  0.00    -0.226 OA
ATOM     14  N   UNL     1      33.961 -21.577 -18.988  0.00  0.00    -0.272 N 
ATOM     15  C   UNL     1      33.446 -20.751 -19.963  0.00  0.00    +0.401 C 
ATOM     16  H   UNL     1      34.751 -21.268 -18.488  0.00  0.00    +0.153 HD
BRANCH  15  17
ATOM     17  O   UNL     1      34.187 -19.605 -20.032  0.00  0.00    -0.438 OA
BRANCH  17  18
ATOM     18  C   UNL     1      35.041 -19.481 -21.174  0.00  0.00    +0.171 C 
ATOM     19  C   UNL     1      34.609 -18.276 -21.995  0.00  0.00    +0.047 C 
ATOM     20  C   UNL     1      36.485 -19.363 -20.710  0.00  0.00    +0.047 C 
ENDBRANCH  17  18
ENDBRANCH  15  17
ENDBRANCH   2  14
BRANCH  11  22
ATOM     21  N   UNL     1      38.713 -26.066 -13.107  0.00  0.00    -0.191 NA
ATOM     22  C   UNL     1      37.713 -25.553 -13.398  0.00  0.00    +0.100 C 
ENDBRANCH  11  22
BRANCH   1  23
ATOM     23  C   UNL     1      31.834 -22.564 -14.322  0.00  0.00    +0.152 C 
BRANCH  23  25
ATOM     24  N   UNL     1      29.648 -22.291 -15.360  0.00  0.00    -0.246 NA
ATOM     25  C   UNL     1      30.515 -23.144 -14.770  0.00  0.00    +0.082 C 
ATOM     26  C   UNL     1      30.258 -24.489 -14.559  0.00  0.00    +0.017 C 
ATOM     27  C   UNL     1      29.033 -24.992 -14.984  0.00  0.00    +0.003 C 
ATOM     28  C   UNL     1      28.467 -22.815 -15.759  0.00  0.00    +0.099 C 
ATOM     29  C   UNL     1      28.115 -24.146 -15.597  0.00  0.00    +0.021 C 
ENDBRANCH  23  25
ENDBRANCH   1  23
TORSDOF 6
ENDMDL
MODEL 3
REMARK VINA RESULT:      -9.0      1.513      2.152
REMARK  Name = 24963749
REMARK  6 active torsions:
REMARK  status: ('A' for Active; 'I' for Inactive)
REMARK    1  A    between atoms: N_1  and  C_23
REMARK    2  A    between atoms: C_2  and  N_14
REMARK    3  A    between atoms: C_11  and  C_22
REMARK    4  A    between atoms: C_15  and  O_17
REMARK    5  A    between atoms: O_17  and  C_18
REMARK    6  A    between atoms: C_23  and  C_25
REMARK                            x       y       z     vdW  Elec       q    Type
REMARK                         _______ _______ _______ _____ _____    ______ ____
ROOT
ATOM      1  N   UNL     1      34.268 -23.312 -17.204  0.00  0.00    -0.325 N 
ATOM      2  C   UNL     1      36.957 -23.635 -14.716  0.00  0.00    +0.085 C 
ATOM      3  C   UNL     1      35.236 -23.294 -16.261  0.00  0.00    +0.035 A 
ATOM      4  C   UNL     1      36.221 -22.421 -16.621  0.00  0.00    -0.007 A 
ATOM      5  C   UNL     1      35.447 -23.991 -14.980  0.00  0.00    +0.063 C 
ATOM      6  C   UNL     1      37.296 -22.377 -15.606  0.00  0.00    +0.048 C 
ATOM      7  C   UNL     1      35.870 -21.849 -17.854  0.00  0.00    +0.014 A 
ATOM      8  C   UNL     1      34.633 -22.424 -18.208  0.00  0.00    +0.060 A 
ATOM      9  C   UNL     1      36.456 -20.907 -18.719  0.00  0.00    +0.011 C 
ATOM     10  C   UNL     1      33.968 -22.088 -19.393  0.00  0.00    +0.018 C 
ATOM     11  C   UNL     1      35.795 -20.568 -19.906  0.00  0.00    +0.069 C 
ATOM     12  C   UNL     1      34.572 -21.149 -20.234  0.00  0.00    +0.012 C 
ENDROOT
BRANCH   2  14
ATOM     13  O   UNL     1      38.000 -25.708 -12.969  0.00  0.00    -0.226 OA
ATOM     14  N   UNL     1      37.805 -24.752 -15.073  0.00  0.00    -0.272 N 
ATOM     15  C   UNL     1      38.253 -25.690 -14.169  0.00  0.00    +0.401 C 
ATOM     16  H   UNL     1      38.079 -24.846 -16.015  0.00  0.00    +0.153 HD
BRANCH  15  17
ATOM     17  O   UNL     1      39.031 -26.612 -14.812  0.00  0.00    -0.438 OA
BRANCH  17  18
ATOM     18  C   UNL     1      40.422 -26.288 -14.919  0.00  0.00    +0.171 C 
ATOM     19  C   UNL     1      40.594 -24.780 -14.832  0.00  0.00    +0.047 C 
ATOM     20  C   UNL     1      41.190 -27.010 -13.823  0.00  0.00    +0.047 C 
ENDBRANCH  17  18
ENDBRANCH  15  17
ENDBRANCH   2  14
BRANCH  11  22
ATOM     21  N   UNL     1      36.861 -18.835 -21.510  0.00  0.00    -0.191 NA
ATOM     22  C   UNL     1      36.383 -19.612 -20.791  0.00  0.00    +0.100 C 
ENDBRANCH  11  22
BRANCH   1  23
ATOM     23  C   UNL     1      33.067 -24.113 -17.174  0.00  0.00    +0.152 C 
BRANCH  23  25
ATOM     24  N   UNL     1      30.968 -22.888 -17.003  0.00  0.00    -0.246 NA
ATOM     25  C   UNL     1      31.966 -23.510 -16.336  0.00  0.00    +0.082 C 
ATOM     26  C   UNL     1      32.027 -23.617 -14.956  0.00  0.00    +0.017 C 
ATOM     27  C   UNL     1      30.997 -23.051 -14.213  0.00  0.00    +0.003 C 
ATOM     28  C   UNL     1      29.985 -22.349 -16.248  0.00  0.00    +0.099 C 
ATOM     29  C   UNL     1      29.953 -22.403 -14.864  0.00  0.00    +0.021 C 
ENDBRANCH  23  25
ENDBRANCH   1  23
TORSDOF 6
ENDMDL
MODEL 4
REMARK VINA RESULT:      -8.5     15.011     18.163
REMARK  Name = 24963749
REMARK  6 active torsions:
REMARK  status: ('A' for Active; 'I' for Inactive)
REMARK    1  A    between atoms: N_1  and  C_23
REMARK    2  A    between atoms: C_2  and  N_14
REMARK    3  A    between atoms: C_11  and  C_22
REMARK    4  A    between atoms: C_15  and  O_17
REMARK    5  A    between atoms: O_17  and  C_18
REMARK    6  A    between atoms: C_23  and  C_25
REMARK                            x       y       z     vdW  Elec       q    Type
REMARK                         _______ _______ _______ _____ _____    ______ ____
ROOT
ATOM      1  N   UNL     1      32.620  -6.783 -21.939  0.00  0.00    -0.325 N 
ATOM      2  C   UNL     1      34.846  -8.702 -24.149  0.00  0.00    +0.085 C 
ATOM      3  C   UNL     1      33.514  -7.371 -22.764  0.00  0.00    +0.035 A 
ATOM      4  C   UNL     1      33.504  -6.749 -23.980  0.00  0.00    -0.007 A 
ATOM      5  C   UNL     1      34.457  -8.496 -22.638  0.00  0.00    +0.063 C 
ATOM      6  C   UNL     1      34.476  -7.369 -24.907  0.00  0.00    +0.048 C 
ATOM      7  C   UNL     1      32.558  -5.713 -23.934  0.00  0.00    +0.014 A 
ATOM      8  C   UNL     1      32.009  -5.749 -22.637  0.00  0.00    +0.060 A 
ATOM      9  C   UNL     1      32.099  -4.741 -24.842  0.00  0.00    +0.011 C 
ATOM     10  C   UNL     1      31.019  -4.850 -22.222  0.00  0.00    +0.018 C 
ATOM     11  C   UNL     1      31.109  -3.840 -24.432  0.00  0.00    +0.069 C 
ATOM     12  C   UNL     1      30.581  -3.894 -23.144  0.00  0.00    +0.012 C 
ENDROOT
BRANCH   2  14
ATOM     13  O   UNL     1      35.777 -10.636 -26.106  0.00  0.00    -0.226 OA
ATOM     14  N   UNL     1      34.117  -9.822 -24.706  0.00  0.00    -0.272 N 
ATOM     15  C   UNL     1      34.645 -10.690 -25.635  0.00  0.00    +0.401 C 
ATOM     16  H   UNL     1      33.191  -9.970 -24.405  0.00  0.00    +0.153 HD
BRANCH  15  17
ATOM     17  O   UNL     1      33.713 -11.634 -25.962  0.00  0.00    -0.438 OA
BRANCH  17  18
ATOM     18  C   UNL     1      33.838 -12.894 -25.292  0.00  0.00    +0.171 C 
ATOM     19  C   UNL     1      33.292 -12.765 -23.878  0.00  0.00    +0.047 C 
ATOM     20  C   UNL     1      33.102 -13.960 -26.089  0.00  0.00    +0.047 C 
ENDBRANCH  17  18
ENDBRANCH  15  17
ENDBRANCH   2  14
BRANCH  11  22
ATOM     21  N   UNL     1      30.252  -2.046 -26.093  0.00  0.00    -0.191 NA
ATOM     22  C   UNL     1      30.636  -2.850 -25.349  0.00  0.00    +0.100 C 
ENDBRANCH  11  22
BRANCH   1  23
ATOM     23  C   UNL     1      32.346  -7.165 -20.573  0.00  0.00    +0.152 C 
BRANCH  23  25
ATOM     24  N   UNL     1      32.188  -9.164 -19.191  0.00  0.00    -0.246 NA
ATOM     25  C   UNL     1      32.002  -8.625 -20.417  0.00  0.00    +0.082 C 
ATOM     26  C   UNL     1      31.525  -9.331 -21.509  0.00  0.00    +0.017 C 
ATOM     27  C   UNL     1      31.218 -10.675 -21.331  0.00  0.00    +0.003 C 
ATOM     28  C   UNL     1      31.879 -10.473 -19.056  0.00  0.00    +0.099 C 
ATOM     29  C   UNL     1      31.394 -11.264 -20.085  0.00  0.00    +0.021 C 
ENDBRANCH  23  25
ENDBRANCH   1  23
TORSDOF 6
ENDMDL
MODEL 5
REMARK VINA RESULT:      -7.8     16.505     19.742
REMARK  Name = 24963749
REMARK  6 active torsions:
REMARK  status: ('A' for Active; 'I' for Inactive)
REMARK    1  A    between atoms: N_1  and  C_23
REMARK    2  A    between atoms: C_2  and  N_14
REMARK    3  A    between atoms: C_11  and  C_22
REMARK    4  A    between atoms: C_15  and  O_17
REMARK    5  A    between atoms: O_17  and  C_18
REMARK    6  A    between atoms: C_23  and  C_25
REMARK                            x       y       z     vdW  Elec       q    Type
REMARK                         _______ _______ _______ _____ _____    ______ ____
ROOT
ATOM      1  N   UNL     1      32.335  -5.888 -24.894  0.00  0.00    -0.325 N 
ATOM      2  C   UNL     1      33.764  -8.479 -22.711  0.00  0.00    +0.085 C 
ATOM      3  C   UNL     1      32.951  -6.742 -24.048  0.00  0.00    +0.035 A 
ATOM      4  C   UNL     1      34.259  -6.893 -24.409  0.00  0.00    -0.007 A 
ATOM      5  C   UNL     1      32.529  -7.517 -22.868  0.00  0.00    +0.063 C 
ATOM      6  C   UNL     1      34.963  -7.822 -23.499  0.00  0.00    +0.048 C 
ATOM      7  C   UNL     1      34.494  -6.098 -25.543  0.00  0.00    +0.014 A 
ATOM      8  C   UNL     1      33.267  -5.470 -25.835  0.00  0.00    +0.060 A 
ATOM      9  C   UNL     1      35.608  -5.833 -26.360  0.00  0.00    +0.011 C 
ATOM     10  C   UNL     1      33.120  -4.592 -26.914  0.00  0.00    +0.018 C 
ATOM     11  C   UNL     1      35.465  -4.955 -27.442  0.00  0.00    +0.069 C 
ATOM     12  C   UNL     1      34.241  -4.345 -27.711  0.00  0.00    +0.012 C 
ENDROOT
BRANCH   2  14
ATOM     13  O   UNL     1      31.889 -10.439 -21.673  0.00  0.00    -0.226 OA
ATOM     14  N   UNL     1      33.455  -9.784 -23.253  0.00  0.00    -0.272 N 
ATOM     15  C   UNL     1      32.545 -10.650 -22.688  0.00  0.00    +0.401 C 
ATOM     16  H   UNL     1      33.922 -10.070 -24.072  0.00  0.00    +0.153 HD
BRANCH  15  17
ATOM     17  O   UNL     1      32.479 -11.795 -23.430  0.00  0.00    -0.438 OA
BRANCH  17  18
ATOM     18  C   UNL     1      33.729 -12.300 -23.913  0.00  0.00    +0.171 C 
ATOM     19  C   UNL     1      34.019 -13.637 -23.247  0.00  0.00    +0.047 C 
ATOM     20  C   UNL     1      33.669 -12.423 -25.427  0.00  0.00    +0.047 C 
ENDBRANCH  17  18
ENDBRANCH  15  17
ENDBRANCH   2  14
BRANCH  11  22
ATOM     21  N   UNL     1      37.507  -4.458 -28.957  0.00  0.00    -0.191 NA
ATOM     22  C   UNL     1      36.591  -4.681 -28.278  0.00  0.00    +0.100 C 
ENDBRANCH  11  22
BRANCH   1  23
ATOM     23  C   UNL     1      30.950  -5.482 -24.832  0.00  0.00    +0.152 C 
BRANCH  23  25
ATOM     24  N   UNL     1      30.487  -4.210 -22.808  0.00  0.00    -0.246 NA
ATOM     25  C   UNL     1      30.744  -4.161 -24.134  0.00  0.00    +0.082 C 
ATOM     26  C   UNL     1      30.827  -2.987 -24.865  0.00  0.00    +0.017 C 
ATOM     27  C   UNL     1      30.633  -1.786 -24.191  0.00  0.00    +0.003 C 
ATOM     28  C   UNL     1      30.303  -3.023 -22.187  0.00  0.00    +0.099 C 
ATOM     29  C   UNL     1      30.366  -1.796 -22.827  0.00  0.00    +0.021 C 
ENDBRANCH  23  25
ENDBRANCH   1  23
TORSDOF 6
ENDMDL
MODEL 6
REMARK VINA RESULT:      -7.5      9.814     13.459
REMARK  Name = 24963749
REMARK  6 active torsions:
REMARK  status: ('A' for Active; 'I' for Inactive)
REMARK    1  A    between atoms: N_1  and  C_23
REMARK    2  A    between atoms: C_2  and  N_14
REMARK    3  A    between atoms: C_11  and  C_22
REMARK    4  A    between atoms: C_15  and  O_17
REMARK    5  A    between atoms: O_17  and  C_18
REMARK    6  A    between atoms: C_23  and  C_25
REMARK                            x       y       z     vdW  Elec       q    Type
REMARK                         _______ _______ _______ _____ _____    ______ ____
ROOT
ATOM      1  N   UNL     1      33.802 -14.770 -21.380  0.00  0.00    -0.325 N 
ATOM      2  C   UNL     1      31.558 -12.086 -20.247  0.00  0.00    +0.085 C 
ATOM      3  C   UNL     1      32.873 -13.854 -21.026  0.00  0.00    +0.035 A 
ATOM      4  C   UNL     1      32.317 -13.299 -22.142  0.00  0.00    -0.007 A 
ATOM      5  C   UNL     1      32.355 -13.346 -19.744  0.00  0.00    +0.063 C 
ATOM      6  C   UNL     1      31.293 -12.293 -21.788  0.00  0.00    +0.048 C 
ATOM      7  C   UNL     1      32.918 -13.886 -23.268  0.00  0.00    +0.014 A 
ATOM      8  C   UNL     1      33.854 -14.812 -22.767  0.00  0.00    +0.060 A 
ATOM      9  C   UNL     1      32.779 -13.741 -24.660  0.00  0.00    +0.011 C 
ATOM     10  C   UNL     1      34.651 -15.594 -23.611  0.00  0.00    +0.018 C 
ATOM     11  C   UNL     1      33.576 -14.521 -25.509  0.00  0.00    +0.069 C 
ATOM     12  C   UNL     1      34.494 -15.432 -24.990  0.00  0.00    +0.012 C 
ENDROOT
BRANCH   2  14
ATOM     13  O   UNL     1      30.628  -9.550 -19.179  0.00  0.00    -0.226 OA
ATOM     14  N   UNL     1      32.329 -10.882 -20.022  0.00  0.00    -0.272 N 
ATOM     15  C   UNL     1      31.797  -9.720 -19.508  0.00  0.00    +0.401 C 
ATOM     16  H   UNL     1      33.287 -10.894 -20.249  0.00  0.00    +0.153 HD
BRANCH  15  17
ATOM     17  O   UNL     1      32.775  -8.769 -19.417  0.00  0.00    -0.438 OA
BRANCH  17  18
ATOM     18  C   UNL     1      32.899  -7.892 -20.542  0.00  0.00    +0.171 C 
ATOM     19  C   UNL     1      32.478  -8.631 -21.802  0.00  0.00    +0.047 C 
ATOM     20  C   UNL     1      32.054  -6.650 -20.304  0.00  0.00    +0.047 C 
ENDBRANCH  17  18
ENDBRANCH  15  17
ENDBRANCH   2  14
BRANCH  11  22
ATOM     21  N   UNL     1      33.333 -14.266 -28.075  0.00  0.00    -0.191 NA
ATOM     22  C   UNL     1      33.442 -14.381 -26.925  0.00  0.00    +0.100 C 
ENDBRANCH  11  22
BRANCH   1  23
ATOM     23  C   UNL     1      34.601 -15.563 -20.475  0.00  0.00    +0.152 C 
BRANCH  23  25
ATOM     24  N   UNL     1      35.695 -17.702 -20.876  0.00  0.00    -0.246 NA
ATOM     25  C   UNL     1      34.520 -17.045 -20.748  0.00  0.00    +0.082 C 
ATOM     26  C   UNL     1      33.278 -17.649 -20.853  0.00  0.00    +0.017 C 
ATOM     27  C   UNL     1      33.239 -19.016 -21.106  0.00  0.00    +0.003 C 
ATOM     28  C   UNL     1      35.618 -19.029 -21.122  0.00  0.00    +0.099 C 
ATOM     29  C   UNL     1      34.427 -19.726 -21.243  0.00  0.00    +0.021 C 
ENDBRANCH  23  25
ENDBRANCH   1  23
TORSDOF 6
ENDMDL
MODEL 7
REMARK VINA RESULT:      -7.1     11.146     14.804
REMARK  Name = 24963749
REMARK  6 active torsions:
REMARK  status: ('A' for Active; 'I' for Inactive)
REMARK    1  A    between atoms: N_1  and  C_23
REMARK    2  A    between atoms: C_2  and  N_14
REMARK    3  A    between atoms: C_11  and  C_22
REMARK    4  A    between atoms: C_15  and  O_17
REMARK    5  A    between atoms: O_17  and  C_18
REMARK    6  A    between atoms: C_23  and  C_25
REMARK                            x       y       z     vdW  Elec       q    Type
REMARK                         _______ _______ _______ _____ _____    ______ ____
ROOT
ATOM      1  N   UNL     1      32.150 -13.319 -22.063  0.00  0.00    -0.325 N 
ATOM      2  C   UNL     1      33.654 -11.859 -25.084  0.00  0.00    +0.085 C 
ATOM      3  C   UNL     1      32.670 -12.904 -23.239  0.00  0.00    +0.035 A 
ATOM      4  C   UNL     1      33.703 -13.717 -23.604  0.00  0.00    -0.007 A 
ATOM      5  C   UNL     1      32.374 -11.801 -24.170  0.00  0.00    +0.063 C 
ATOM      6  C   UNL     1      34.294 -13.288 -24.891  0.00  0.00    +0.048 C 
ATOM      7  C   UNL     1      33.854 -14.704 -22.617  0.00  0.00    +0.014 A 
ATOM      8  C   UNL     1      32.864 -14.437 -21.650  0.00  0.00    +0.060 A 
ATOM      9  C   UNL     1      34.717 -15.798 -22.425  0.00  0.00    +0.011 C 
ATOM     10  C   UNL     1      32.711 -15.226 -20.504  0.00  0.00    +0.018 C 
ATOM     11  C   UNL     1      34.568 -16.590 -21.280  0.00  0.00    +0.069 C 
ATOM     12  C   UNL     1      33.581 -16.307 -20.338  0.00  0.00    +0.012 C 
ENDROOT
BRANCH   2  14
ATOM     13  O   UNL     1      33.060  -9.189 -24.106  0.00  0.00    -0.226 OA
ATOM     14  N   UNL     1      34.592 -10.827 -24.698  0.00  0.00    -0.272 N 
ATOM     15  C   UNL     1      34.214  -9.583 -24.244  0.00  0.00    +0.401 C 
ATOM     16  H   UNL     1      35.555 -11.024 -24.766  0.00  0.00    +0.153 HD
BRANCH  15  17
ATOM     17  O   UNL     1      35.326  -8.839 -23.964  0.00  0.00    -0.438 OA
BRANCH  17  18
ATOM     18  C   UNL     1      35.090  -7.471 -23.612  0.00  0.00    +0.171 C 
ATOM     19  C   UNL     1      34.600  -6.716 -24.838  0.00  0.00    +0.047 C 
ATOM     20  C   UNL     1      34.086  -7.413 -22.472  0.00  0.00    +0.047 C 
ENDBRANCH  17  18
ENDBRANCH  15  17
ENDBRANCH   2  14
BRANCH  11  22
ATOM     21  N   UNL     1      36.149 -18.609 -20.912  0.00  0.00    -0.191 NA
ATOM     22  C   UNL     1      35.441 -17.704 -21.077  0.00  0.00    +0.100 C 
ENDBRANCH  11  22
BRANCH   1  23
ATOM     23  C   UNL     1      31.045 -12.709 -21.359  0.00  0.00    +0.152 C 
BRANCH  23  25
ATOM     24  N   UNL     1      31.417 -10.306 -21.491  0.00  0.00    -0.246 NA
ATOM     25  C   UNL     1      31.406 -11.402 -20.699  0.00  0.00    +0.082 C 
ATOM     26  C   UNL     1      31.703 -11.384 -19.346  0.00  0.00    +0.017 C 
ATOM     27  C   UNL     1      32.031 -10.162 -18.768  0.00  0.00    +0.003 C 
ATOM     28  C   UNL     1      31.742  -9.137 -20.895  0.00  0.00    +0.099 C 
ATOM     29  C   UNL     1      32.053  -9.013 -19.550  0.00  0.00    +0.021 C 
ENDBRANCH  23  25
ENDBRANCH   1  23
TORSDOF 6
ENDMDL
MODEL 8
REMARK VINA RESULT:      -6.5     14.495     17.781
REMARK  Name = 24963749
REMARK  6 active torsions:
REMARK  status: ('A' for Active; 'I' for Inactive)
REMARK    1  A    between atoms: N_1  and  C_23
REMARK    2  A    between atoms: C_2  and  N_14
REMARK    3  A    between atoms: C_11  and  C_22
REMARK    4  A    between atoms: C_15  and  O_17
REMARK    5  A    between atoms: O_17  and  C_18
REMARK    6  A    between atoms: C_23  and  C_25
REMARK                            x       y       z     vdW  Elec       q    Type
REMARK                         _______ _______ _______ _____ _____    ______ ____
ROOT
ATOM      1  N   UNL     1      32.079  -7.638 -23.549  0.00  0.00    -0.325 N 
ATOM      2  C   UNL     1      34.915  -9.911 -24.105  0.00  0.00    +0.085 C 
ATOM      3  C   UNL     1      33.204  -8.372 -23.700  0.00  0.00    +0.035 A 
ATOM      4  C   UNL     1      34.060  -7.741 -24.554  0.00  0.00    -0.007 A 
ATOM      5  C   UNL     1      33.681  -9.658 -23.163  0.00  0.00    +0.063 C 
ATOM      6  C   UNL     1      35.304  -8.520 -24.739  0.00  0.00    +0.048 C 
ATOM      7  C   UNL     1      33.458  -6.543 -24.973  0.00  0.00    +0.014 A 
ATOM      8  C   UNL     1      32.207  -6.495 -24.328  0.00  0.00    +0.060 A 
ATOM      9  C   UNL     1      33.827  -5.487 -25.826  0.00  0.00    +0.011 C 
ATOM     10  C   UNL     1      31.317  -5.430 -24.509  0.00  0.00    +0.018 C 
ATOM     11  C   UNL     1      32.939  -4.420 -26.011  0.00  0.00    +0.069 C 
ATOM     12  C   UNL     1      31.707  -4.393 -25.362  0.00  0.00    +0.012 C 
ENDROOT
BRANCH   2  14
ATOM     13  O   UNL     1      33.640 -12.502 -23.790  0.00  0.00    -0.226 OA
ATOM     14  N   UNL     1      34.569 -10.861 -25.141  0.00  0.00    -0.272 N 
ATOM     15  C   UNL     1      33.962 -12.073 -24.894  0.00  0.00    +0.401 C 
ATOM     16  H   UNL     1      34.780 -10.629 -26.075  0.00  0.00    +0.153 HD
BRANCH  15  17
ATOM     17  O   UNL     1      33.769 -12.738 -26.072  0.00  0.00    -0.438 OA
BRANCH  17  18
ATOM     18  C   UNL     1      32.865 -13.848 -26.021  0.00  0.00    +0.171 C 
ATOM     19  C   UNL     1      32.032 -13.873 -27.294  0.00  0.00    +0.047 C 
ATOM     20  C   UNL     1      33.659 -15.132 -25.838  0.00  0.00    +0.047 C 
ENDBRANCH  17  18
ENDBRANCH  15  17
ENDBRANCH   2  14
BRANCH  11  22
ATOM     21  N   UNL     1      33.604  -2.468 -27.580  0.00  0.00    -0.191 NA
ATOM     22  C   UNL     1      33.306  -3.343 -26.877  0.00  0.00    +0.100 C 
ENDBRANCH  11  22
BRANCH   1  23
ATOM     23  C   UNL     1      30.944  -7.982 -22.724  0.00  0.00    +0.152 C 
BRANCH  23  25
ATOM     24  N   UNL     1      30.853 -10.323 -22.060  0.00  0.00    -0.246 NA
ATOM     25  C   UNL     1      31.240  -9.072 -21.724  0.00  0.00    +0.082 C 
ATOM     26  C   UNL     1      31.878  -8.750 -20.537  0.00  0.00    +0.017 C 
ATOM     27  C   UNL     1      32.136  -9.779 -19.637  0.00  0.00    +0.003 C 
ATOM     28  C   UNL     1      31.120 -11.297 -21.160  0.00  0.00    +0.099 C 
ATOM     29  C   UNL     1      31.754 -11.078 -19.947  0.00  0.00    +0.021 C 
ENDBRANCH  23  25
ENDBRANCH   1  23
TORSDOF 6
ENDMDL
MODEL 9
REMARK VINA RESULT:      -6.3     14.092     18.013
REMARK  Name = 24963749
REMARK  6 active torsions:
REMARK  status: ('A' for Active; 'I' for Inactive)
REMARK    1  A    between atoms: N_1  and  C_23
REMARK    2  A    between atoms: C_2  and  N_14
REMARK    3  A    between atoms: C_11  and  C_22
REMARK    4  A    between atoms: C_15  and  O_17
REMARK    5  A    between atoms: O_17  and  C_18
REMARK    6  A    between atoms: C_23  and  C_25
REMARK                            x       y       z     vdW  Elec       q    Type
REMARK                         _______ _______ _______ _____ _____    ______ ____
ROOT
ATOM      1  N   UNL     1      33.301 -10.563 -24.168  0.00  0.00    -0.325 N 
ATOM      2  C   UNL     1      34.619  -7.135 -24.331  0.00  0.00    +0.085 C 
ATOM      3  C   UNL     1      33.865  -9.336 -24.116  0.00  0.00    +0.035 A 
ATOM      4  C   UNL     1      33.566  -8.736 -22.928  0.00  0.00    -0.007 A 
ATOM      5  C   UNL     1      34.698  -8.540 -25.034  0.00  0.00    +0.063 C 
ATOM      6  C   UNL     1      34.172  -7.389 -22.840  0.00  0.00    +0.048 C 
ATOM      7  C   UNL     1      32.771  -9.619 -22.179  0.00  0.00    +0.014 A 
ATOM      8  C   UNL     1      32.614 -10.768 -22.978  0.00  0.00    +0.060 A 
ATOM      9  C   UNL     1      32.163  -9.581 -20.911  0.00  0.00    +0.011 C 
ATOM     10  C   UNL     1      31.870 -11.875 -22.552  0.00  0.00    +0.018 C 
ATOM     11  C   UNL     1      31.418 -10.686 -20.480  0.00  0.00    +0.069 C 
ATOM     12  C   UNL     1      31.277 -11.812 -21.288  0.00  0.00    +0.012 C 
ENDROOT
BRANCH   2  14
ATOM     13  O   UNL     1      35.078  -5.414 -26.626  0.00  0.00    -0.226 OA
ATOM     14  N   UNL     1      33.662  -6.287 -25.010  0.00  0.00    -0.272 N 
ATOM     15  C   UNL     1      33.975  -5.501 -26.097  0.00  0.00    +0.401 C 
ATOM     16  H   UNL     1      32.736  -6.270 -24.675  0.00  0.00    +0.153 HD
BRANCH  15  17
ATOM     17  O   UNL     1      32.862  -4.822 -26.507  0.00  0.00    -0.438 OA
BRANCH  17  18
ATOM     18  C   UNL     1      32.445  -3.740 -25.665  0.00  0.00    +0.171 C 
ATOM     19  C   UNL     1      32.630  -2.427 -26.409  0.00  0.00    +0.047 C 
ATOM     20  C   UNL     1      30.998  -3.958 -25.251  0.00  0.00    +0.047 C 
ENDBRANCH  17  18
ENDBRANCH  15  17
ENDBRANCH   2  14
BRANCH  11  22
ATOM     21  N   UNL     1      30.292 -10.632 -18.148  0.00  0.00    -0.191 NA
ATOM     22  C   UNL     1      30.796 -10.656 -19.193  0.00  0.00    +0.100 C 
ENDBRANCH  11  22
BRANCH   1  23
ATOM     23  C   UNL     1      33.395 -11.496 -25.267  0.00  0.00    +0.152 C 
BRANCH  23  25
ATOM     24  N   UNL     1      34.245 -13.110 -23.653  0.00  0.00    -0.246 NA
ATOM     25  C   UNL     1      33.594 -12.925 -24.823  0.00  0.00    +0.082 C 
ATOM     26  C   UNL     1      33.113 -13.954 -25.615  0.00  0.00    +0.017 C 
ATOM     27  C   UNL     1      33.313 -15.260 -25.177  0.00  0.00    +0.003 C 
ATOM     28  C   UNL     1      34.421 -14.392 -23.260  0.00  0.00    +0.099 C 
ATOM     29  C   UNL     1      33.978 -15.491 -23.979  0.00  0.00    +0.021 C 
ENDBRANCH  23  25
ENDBRANCH   1  23
TORSDOF 6
ENDMDL
