MODEL 1
REMARK VINA RESULT:     -10.4      0.000      0.000
REMARK  Name = 5338
REMARK  3 active torsions:
REMARK  status: ('A' for Active; 'I' for Inactive)
REMARK    1  A    between atoms: S_1  and  N_4
REMARK    2  A    between atoms: S_1  and  C_16
REMARK    3  A    between atoms: C_21  and  N_22
REMARK                            x       y       z     vdW  Elec       q    Type
REMARK                         _______ _______ _______ _____ _____    ______ ____
ROOT
ATOM      1  S   UNL     1      35.191 -18.563 -22.218  0.00  0.00    +0.075 S 
ATOM      2  O   UNL     1      34.543 -18.932 -23.463  0.00  0.00    -0.150 OA
ATOM      3  O   UNL     1      36.629 -18.377 -22.182  0.00  0.00    -0.150 OA
ENDROOT
BRANCH   1   4
ATOM      4  N   UNL     1      34.401 -17.180 -21.559  0.00  0.00    -0.191 N 
ATOM      5  N   UNL     1      33.914 -16.263 -23.684  0.00  0.00    -0.391 NA
ATOM      6  N   UNL     1      34.120 -13.687 -22.665  0.00  0.00    -0.263 NA
ATOM      7  C   UNL     1      34.204 -16.039 -22.390  0.00  0.00    +0.200 C 
ATOM      8  C   UNL     1      33.725 -15.195 -24.478  0.00  0.00    +0.128 C 
ATOM      9  C   UNL     1      33.829 -13.890 -23.961  0.00  0.00    +0.084 C 
ATOM     10  C   UNL     1      34.305 -14.769 -21.887  0.00  0.00    +0.201 C 
ATOM     11  C   UNL     1      33.422 -15.367 -25.827  0.00  0.00    +0.086 C 
ATOM     12  C   UNL     1      33.626 -12.807 -24.813  0.00  0.00    +0.073 C 
ATOM     13  C   UNL     1      33.222 -14.276 -26.670  0.00  0.00    -0.023 C 
ATOM     14  C   UNL     1      33.324 -12.991 -26.161  0.00  0.00    -0.024 C 
ATOM     15  H   UNL     1      34.091 -17.178 -20.625  0.00  0.00    +0.176 HD
ENDBRANCH   1   4
BRANCH   1  16
ATOM     16  C   UNL     1      34.779 -19.813 -21.035  0.00  0.00    +0.125 C 
ATOM     17  C   UNL     1      35.792 -20.571 -20.474  0.00  0.00    +0.021 C 
ATOM     18  C   UNL     1      33.453 -20.008 -20.694  0.00  0.00    +0.021 C 
ATOM     19  C   UNL     1      35.468 -21.556 -19.543  0.00  0.00    +0.015 C 
ATOM     20  C   UNL     1      33.129 -20.994 -19.763  0.00  0.00    +0.015 C 
ATOM     21  C   UNL     1      34.136 -21.768 -19.187  0.00  0.00    +0.042 C 
BRANCH  21  22
ATOM     22  N   UNL     1      33.808 -22.763 -18.242  0.00  0.00    -0.357 N 
ATOM     23  H   UNL     1      34.088 -23.695 -18.393  0.00  0.00    +0.142 HD
ATOM     24  H   UNL     1      33.299 -22.526 -17.434  0.00  0.00    +0.142 HD
ENDBRANCH  21  22
ENDBRANCH   1  16
TORSDOF 3
ENDMDL
MODEL 2
REMARK VINA RESULT:      -9.9      1.377      2.423
REMARK  Name = 5338
REMARK  3 active torsions:
REMARK  status: ('A' for Active; 'I' for Inactive)
REMARK    1  A    between atoms: S_1  and  N_4
REMARK    2  A    between atoms: S_1  and  C_16
REMARK    3  A    between atoms: C_21  and  N_22
REMARK                            x       y       z     vdW  Elec       q    Type
REMARK                         _______ _______ _______ _____ _____    ______ ____
ROOT
ATOM      1  S   UNL     1      34.484 -17.740 -21.193  0.00  0.00    +0.075 S 
ATOM      2  O   UNL     1      35.594 -17.166 -20.456  0.00  0.00    -0.150 OA
ATOM      3  O   UNL     1      33.179 -17.110 -21.136  0.00  0.00    -0.150 OA
ENDROOT
BRANCH   1   4
ATOM      4  N   UNL     1      34.956 -17.970 -22.835  0.00  0.00    -0.191 N 
ATOM      5  N   UNL     1      34.454 -15.742 -23.446  0.00  0.00    -0.391 NA
ATOM      6  N   UNL     1      33.764 -16.559 -26.011  0.00  0.00    -0.263 NA
ATOM      7  C   UNL     1      34.518 -17.034 -23.816  0.00  0.00    +0.200 C 
ATOM      8  C   UNL     1      34.043 -14.848 -24.363  0.00  0.00    +0.128 C 
ATOM      9  C   UNL     1      33.694 -15.262 -25.662  0.00  0.00    +0.084 C 
ATOM     10  C   UNL     1      34.179 -17.437 -25.079  0.00  0.00    +0.201 C 
ATOM     11  C   UNL     1      33.957 -13.497 -24.037  0.00  0.00    +0.086 C 
ATOM     12  C   UNL     1      33.272 -14.309 -26.586  0.00  0.00    +0.073 C 
ATOM     13  C   UNL     1      33.534 -12.552 -24.969  0.00  0.00    -0.023 C 
ATOM     14  C   UNL     1      33.190 -12.959 -26.249  0.00  0.00    -0.024 C 
ATOM     15  H   UNL     1      35.519 -18.736 -23.091  0.00  0.00    +0.176 HD
ENDBRANCH   1   4
BRANCH   1  16
ATOM     16  C   UNL     1      34.303 -19.408 -20.630  0.00  0.00    +0.125 C 
ATOM     17  C   UNL     1      33.032 -19.919 -20.434  0.00  0.00    +0.021 C 
ATOM     18  C   UNL     1      35.435 -20.168 -20.400  0.00  0.00    +0.021 C 
ATOM     19  C   UNL     1      32.889 -21.233 -19.990  0.00  0.00    +0.015 C 
ATOM     20  C   UNL     1      35.292 -21.482 -19.955  0.00  0.00    +0.015 C 
ATOM     21  C   UNL     1      34.019 -22.015 -19.751  0.00  0.00    +0.042 C 
BRANCH  21  22
ATOM     22  N   UNL     1      33.874 -23.345 -19.304  0.00  0.00    -0.357 N 
ATOM     23  H   UNL     1      34.050 -24.093 -19.920  0.00  0.00    +0.142 HD
ATOM     24  H   UNL     1      33.597 -23.526 -18.377  0.00  0.00    +0.142 HD
ENDBRANCH  21  22
ENDBRANCH   1  16
TORSDOF 3
ENDMDL
MODEL 3
REMARK VINA RESULT:      -9.9      4.315      5.959
REMARK  Name = 5338
REMARK  3 active torsions:
REMARK  status: ('A' for Active; 'I' for Inactive)
REMARK    1  A    between atoms: S_1  and  N_4
REMARK    2  A    between atoms: S_1  and  C_16
REMARK    3  A    between atoms: C_21  and  N_22
REMARK                            x       y       z     vdW  Elec       q    Type
REMARK                         _______ _______ _______ _____ _____    ______ ____
ROOT
ATOM      1  S   UNL     1      33.156 -13.523 -23.722  0.00  0.00    +0.075 S 
ATOM      2  O   UNL     1      32.589 -14.086 -24.933  0.00  0.00    -0.150 OA
ATOM      3  O   UNL     1      34.133 -12.455 -23.813  0.00  0.00    -0.150 OA
ENDROOT
BRANCH   1   4
ATOM      4  N   UNL     1      31.877 -13.064 -22.661  0.00  0.00    -0.191 N 
ATOM      5  N   UNL     1      32.386 -10.759 -22.807  0.00  0.00    -0.391 NA
ATOM      6  N   UNL     1      31.506 -10.359 -20.202  0.00  0.00    -0.263 NA
ATOM      7  C   UNL     1      31.911 -11.772 -22.060  0.00  0.00    +0.200 C 
ATOM      8  C   UNL     1      32.422  -9.535 -22.251  0.00  0.00    +0.128 C 
ATOM      9  C   UNL     1      31.976  -9.333 -20.933  0.00  0.00    +0.084 C 
ATOM     10  C   UNL     1      31.477 -11.575 -20.776  0.00  0.00    +0.201 C 
ATOM     11  C   UNL     1      32.903  -8.449 -22.978  0.00  0.00    +0.086 C 
ATOM     12  C   UNL     1      32.028  -8.051 -20.389  0.00  0.00    +0.073 C 
ATOM     13  C   UNL     1      32.951  -7.171 -22.425  0.00  0.00    -0.023 C 
ATOM     14  C   UNL     1      32.511  -6.971 -21.125  0.00  0.00    -0.024 C 
ATOM     15  H   UNL     1      31.136 -13.684 -22.473  0.00  0.00    +0.176 HD
ENDBRANCH   1   4
BRANCH   1  16
ATOM     16  C   UNL     1      33.901 -14.861 -22.835  0.00  0.00    +0.125 C 
ATOM     17  C   UNL     1      34.429 -15.927 -23.541  0.00  0.00    +0.021 C 
ATOM     18  C   UNL     1      33.941 -14.814 -21.453  0.00  0.00    +0.021 C 
ATOM     19  C   UNL     1      35.015 -16.982 -22.843  0.00  0.00    +0.015 C 
ATOM     20  C   UNL     1      34.526 -15.869 -20.754  0.00  0.00    +0.015 C 
ATOM     21  C   UNL     1      35.064 -16.953 -21.449  0.00  0.00    +0.042 C 
BRANCH  21  22
ATOM     22  N   UNL     1      35.659 -18.019 -20.742  0.00  0.00    -0.357 N 
ATOM     23  H   UNL     1      36.565 -18.322 -20.980  0.00  0.00    +0.142 HD
ATOM     24  H   UNL     1      35.169 -18.460 -20.011  0.00  0.00    +0.142 HD
ENDBRANCH  21  22
ENDBRANCH   1  16
TORSDOF 3
ENDMDL
MODEL 4
REMARK VINA RESULT:      -9.8      2.090      7.612
REMARK  Name = 5338
REMARK  3 active torsions:
REMARK  status: ('A' for Active; 'I' for Inactive)
REMARK    1  A    between atoms: S_1  and  N_4
REMARK    2  A    between atoms: S_1  and  C_16
REMARK    3  A    between atoms: C_21  and  N_22
REMARK                            x       y       z     vdW  Elec       q    Type
REMARK                         _______ _______ _______ _____ _____    ______ ____
ROOT
ATOM      1  S   UNL     1      34.257 -15.706 -21.914  0.00  0.00    +0.075 S 
ATOM      2  O   UNL     1      33.046 -16.370 -21.468  0.00  0.00    -0.150 OA
ATOM      3  O   UNL     1      34.871 -14.691 -21.080  0.00  0.00    -0.150 OA
ENDROOT
BRANCH   1   4
ATOM      4  N   UNL     1      35.425 -16.897 -22.350  0.00  0.00    -0.191 N 
ATOM      5  N   UNL     1      34.279 -18.641 -21.238  0.00  0.00    -0.391 NA
ATOM      6  N   UNL     1      36.683 -19.912 -20.668  0.00  0.00    -0.263 NA
ATOM      7  C   UNL     1      35.459 -18.125 -21.629  0.00  0.00    +0.200 C 
ATOM      8  C   UNL     1      34.297 -19.800 -20.557  0.00  0.00    +0.128 C 
ATOM      9  C   UNL     1      35.515 -20.444 -20.269  0.00  0.00    +0.084 C 
ATOM     10  C   UNL     1      36.643 -18.752 -21.349  0.00  0.00    +0.201 C 
ATOM     11  C   UNL     1      33.106 -20.381 -20.128  0.00  0.00    +0.086 C 
ATOM     12  C   UNL     1      35.496 -21.644 -19.562  0.00  0.00    +0.073 C 
ATOM     13  C   UNL     1      33.098 -21.581 -19.421  0.00  0.00    -0.023 C 
ATOM     14  C   UNL     1      34.298 -22.216 -19.137  0.00  0.00    -0.024 C 
ATOM     15  H   UNL     1      36.059 -16.731 -23.085  0.00  0.00    +0.176 HD
ENDBRANCH   1   4
BRANCH   1  16
ATOM     16  C   UNL     1      33.890 -14.969 -23.480  0.00  0.00    +0.125 C 
ATOM     17  C   UNL     1      33.738 -13.596 -23.560  0.00  0.00    +0.021 C 
ATOM     18  C   UNL     1      33.762 -15.779 -24.594  0.00  0.00    +0.021 C 
ATOM     19  C   UNL     1      33.448 -13.014 -24.793  0.00  0.00    +0.015 C 
ATOM     20  C   UNL     1      33.472 -15.198 -25.828  0.00  0.00    +0.015 C 
ATOM     21  C   UNL     1      33.315 -13.815 -25.927  0.00  0.00    +0.042 C 
BRANCH  21  22
ATOM     22  N   UNL     1      33.024 -13.227 -27.176  0.00  0.00    -0.357 N 
ATOM     23  H   UNL     1      33.675 -12.622 -27.599  0.00  0.00    +0.142 HD
ATOM     24  H   UNL     1      32.169 -13.420 -27.625  0.00  0.00    +0.142 HD
ENDBRANCH  21  22
ENDBRANCH   1  16
TORSDOF 3
ENDMDL
MODEL 5
REMARK VINA RESULT:      -9.6      3.760      8.275
REMARK  Name = 5338
REMARK  3 active torsions:
REMARK  status: ('A' for Active; 'I' for Inactive)
REMARK    1  A    between atoms: S_1  and  N_4
REMARK    2  A    between atoms: S_1  and  C_16
REMARK    3  A    between atoms: C_21  and  N_22
REMARK                            x       y       z     vdW  Elec       q    Type
REMARK                         _______ _______ _______ _____ _____    ______ ____
ROOT
ATOM      1  S   UNL     1      33.255 -12.652 -23.824  0.00  0.00    +0.075 S 
ATOM      2  O   UNL     1      33.887 -12.719 -25.129  0.00  0.00    -0.150 OA
ATOM      3  O   UNL     1      31.944 -13.238 -23.627  0.00  0.00    -0.150 OA
ENDROOT
BRANCH   1   4
ATOM      4  N   UNL     1      34.352 -13.249 -22.636  0.00  0.00    -0.191 N 
ATOM      5  N   UNL     1      34.461 -15.403 -23.605  0.00  0.00    -0.391 NA
ATOM      6  N   UNL     1      34.839 -16.553 -21.104  0.00  0.00    -0.263 NA
ATOM      7  C   UNL     1      34.506 -14.658 -22.486  0.00  0.00    +0.200 C 
ATOM      8  C   UNL     1      34.606 -16.734 -23.477  0.00  0.00    +0.128 C 
ATOM      9  C   UNL     1      34.797 -17.316 -22.211  0.00  0.00    +0.084 C 
ATOM     10  C   UNL     1      34.693 -15.224 -21.254  0.00  0.00    +0.201 C 
ATOM     11  C   UNL     1      34.568 -17.555 -24.602  0.00  0.00    +0.086 C 
ATOM     12  C   UNL     1      34.944 -18.698 -22.116  0.00  0.00    +0.073 C 
ATOM     13  C   UNL     1      34.715 -18.936 -24.496  0.00  0.00    -0.023 C 
ATOM     14  C   UNL     1      34.904 -19.510 -23.248  0.00  0.00    -0.024 C 
ATOM     15  H   UNL     1      34.864 -12.627 -22.069  0.00  0.00    +0.176 HD
ENDBRANCH   1   4
BRANCH   1  16
ATOM     16  C   UNL     1      33.151 -10.939 -23.393  0.00  0.00    +0.125 C 
ATOM     17  C   UNL     1      32.163 -10.522 -22.519  0.00  0.00    +0.021 C 
ATOM     18  C   UNL     1      34.061 -10.050 -23.937  0.00  0.00    +0.021 C 
ATOM     19  C   UNL     1      32.080  -9.172 -22.179  0.00  0.00    +0.015 C 
ATOM     20  C   UNL     1      33.978  -8.700 -23.599  0.00  0.00    +0.015 C 
ATOM     21  C   UNL     1      32.988  -8.261 -22.719  0.00  0.00    +0.042 C 
BRANCH  21  22
ATOM     22  N   UNL     1      32.906  -6.895 -22.374  0.00  0.00    -0.357 N 
ATOM     23  H   UNL     1      33.116  -6.606 -21.457  0.00  0.00    +0.142 HD
ATOM     24  H   UNL     1      32.637  -6.232 -23.050  0.00  0.00    +0.142 HD
ENDBRANCH  21  22
ENDBRANCH   1  16
TORSDOF 3
ENDMDL
MODEL 6
REMARK VINA RESULT:      -9.3      4.257      6.322
REMARK  Name = 5338
REMARK  3 active torsions:
REMARK  status: ('A' for Active; 'I' for Inactive)
REMARK    1  A    between atoms: S_1  and  N_4
REMARK    2  A    between atoms: S_1  and  C_16
REMARK    3  A    between atoms: C_21  and  N_22
REMARK                            x       y       z     vdW  Elec       q    Type
REMARK                         _______ _______ _______ _____ _____    ______ ____
ROOT
ATOM      1  S   UNL     1      33.141 -13.367 -24.404  0.00  0.00    +0.075 S 
ATOM      2  O   UNL     1      32.062 -13.287 -23.437  0.00  0.00    -0.150 OA
ATOM      3  O   UNL     1      32.852 -13.232 -25.819  0.00  0.00    -0.150 OA
ENDROOT
BRANCH   1   4
ATOM      4  N   UNL     1      34.388 -12.267 -23.950  0.00  0.00    -0.191 N 
ATOM      5  N   UNL     1      32.881 -10.484 -23.574  0.00  0.00    -0.391 NA
ATOM      6  N   UNL     1      34.806  -8.639 -24.357  0.00  0.00    -0.263 NA
ATOM      7  C   UNL     1      34.111 -10.869 -23.960  0.00  0.00    +0.200 C 
ATOM      8  C   UNL     1      32.608  -9.167 -23.578  0.00  0.00    +0.128 C 
ATOM      9  C   UNL     1      33.583  -8.234 -23.974  0.00  0.00    +0.084 C 
ATOM     10  C   UNL     1      35.060  -9.961 -24.345  0.00  0.00    +0.201 C 
ATOM     11  C   UNL     1      31.351  -8.710 -23.187  0.00  0.00    +0.086 C 
ATOM     12  C   UNL     1      33.265  -6.878 -23.966  0.00  0.00    +0.073 C 
ATOM     13  C   UNL     1      31.043  -7.352 -23.183  0.00  0.00    -0.023 C 
ATOM     14  C   UNL     1      32.004  -6.431 -23.573  0.00  0.00    -0.024 C 
ATOM     15  H   UNL     1      35.277 -12.599 -23.688  0.00  0.00    +0.176 HD
ENDBRANCH   1   4
BRANCH   1  16
ATOM     16  C   UNL     1      33.931 -14.932 -24.162  0.00  0.00    +0.125 C 
ATOM     17  C   UNL     1      34.527 -15.204 -22.944  0.00  0.00    +0.021 C 
ATOM     18  C   UNL     1      33.935 -15.852 -25.194  0.00  0.00    +0.021 C 
ATOM     19  C   UNL     1      35.151 -16.436 -22.751  0.00  0.00    +0.015 C 
ATOM     20  C   UNL     1      34.559 -17.085 -25.003  0.00  0.00    +0.015 C 
ATOM     21  C   UNL     1      35.166 -17.377 -23.781  0.00  0.00    +0.042 C 
BRANCH  21  22
ATOM     22  N   UNL     1      35.795 -18.625 -23.587  0.00  0.00    -0.357 N 
ATOM     23  H   UNL     1      35.742 -19.072 -22.711  0.00  0.00    +0.142 HD
ATOM     24  H   UNL     1      36.287 -19.049 -24.327  0.00  0.00    +0.142 HD
ENDBRANCH  21  22
ENDBRANCH   1  16
TORSDOF 3
ENDMDL
MODEL 7
REMARK VINA RESULT:      -9.1      2.529      7.761
REMARK  Name = 5338
REMARK  3 active torsions:
REMARK  status: ('A' for Active; 'I' for Inactive)
REMARK    1  A    between atoms: S_1  and  N_4
REMARK    2  A    between atoms: S_1  and  C_16
REMARK    3  A    between atoms: C_21  and  N_22
REMARK                            x       y       z     vdW  Elec       q    Type
REMARK                         _______ _______ _______ _____ _____    ______ ____
ROOT
ATOM      1  S   UNL     1      33.171 -15.559 -21.201  0.00  0.00    +0.075 S 
ATOM      2  O   UNL     1      31.873 -16.183 -21.378  0.00  0.00    -0.150 OA
ATOM      3  O   UNL     1      33.653 -15.267 -19.865  0.00  0.00    -0.150 OA
ENDROOT
BRANCH   1   4
ATOM      4  N   UNL     1      34.354 -16.462 -22.071  0.00  0.00    -0.191 N 
ATOM      5  N   UNL     1      33.794 -18.499 -21.009  0.00  0.00    -0.391 NA
ATOM      6  N   UNL     1      36.425 -19.373 -21.207  0.00  0.00    -0.263 NA
ATOM      7  C   UNL     1      34.748 -17.738 -21.574  0.00  0.00    +0.200 C 
ATOM      8  C   UNL     1      34.153 -19.707 -20.538  0.00  0.00    +0.128 C 
ATOM      9  C   UNL     1      35.485 -20.148 -20.639  0.00  0.00    +0.084 C 
ATOM     10  C   UNL     1      36.045 -18.169 -21.673  0.00  0.00    +0.201 C 
ATOM     11  C   UNL     1      33.207 -20.537 -19.943  0.00  0.00    +0.086 C 
ATOM     12  C   UNL     1      35.821 -21.405 -20.141  0.00  0.00    +0.073 C 
ATOM     13  C   UNL     1      33.554 -21.792 -19.447  0.00  0.00    -0.023 C 
ATOM     14  C   UNL     1      34.866 -22.228 -19.547  0.00  0.00    -0.024 C 
ATOM     15  H   UNL     1      34.752 -16.102 -22.896  0.00  0.00    +0.176 HD
ENDBRANCH   1   4
BRANCH   1  16
ATOM     16  C   UNL     1      33.137 -14.039 -22.106  0.00  0.00    +0.125 C 
ATOM     17  C   UNL     1      33.996 -13.873 -23.177  0.00  0.00    +0.021 C 
ATOM     18  C   UNL     1      32.250 -13.048 -21.726  0.00  0.00    +0.021 C 
ATOM     19  C   UNL     1      33.971 -12.676 -23.891  0.00  0.00    +0.015 C 
ATOM     20  C   UNL     1      32.225 -11.850 -22.440  0.00  0.00    +0.015 C 
ATOM     21  C   UNL     1      33.084 -11.664 -23.523  0.00  0.00    +0.042 C 
BRANCH  21  22
ATOM     22  N   UNL     1      33.056 -10.453 -24.246  0.00  0.00    -0.357 N 
ATOM     23  H   UNL     1      33.664 -10.321 -25.008  0.00  0.00    +0.142 HD
ATOM     24  H   UNL     1      32.428  -9.739 -23.987  0.00  0.00    +0.142 HD
ENDBRANCH  21  22
ENDBRANCH   1  16
TORSDOF 3
ENDMDL
MODEL 8
REMARK VINA RESULT:      -9.0      5.908      8.443
REMARK  Name = 5338
REMARK  3 active torsions:
REMARK  status: ('A' for Active; 'I' for Inactive)
REMARK    1  A    between atoms: S_1  and  N_4
REMARK    2  A    between atoms: S_1  and  C_16
REMARK    3  A    between atoms: C_21  and  N_22
REMARK                            x       y       z     vdW  Elec       q    Type
REMARK                         _______ _______ _______ _____ _____    ______ ____
ROOT
ATOM      1  S   UNL     1      36.628 -23.041 -15.643  0.00  0.00    +0.075 S 
ATOM      2  O   UNL     1      37.798 -23.800 -16.044  0.00  0.00    -0.150 OA
ATOM      3  O   UNL     1      36.644 -21.594 -15.731  0.00  0.00    -0.150 OA
ENDROOT
BRANCH   1   4
ATOM      4  N   UNL     1      35.244 -23.666 -16.459  0.00  0.00    -0.191 N 
ATOM      5  N   UNL     1      35.459 -22.171 -18.279  0.00  0.00    -0.391 NA
ATOM      6  N   UNL     1      32.702 -22.132 -18.625  0.00  0.00    -0.263 NA
ATOM      7  C   UNL     1      34.639 -22.885 -17.487  0.00  0.00    +0.200 C 
ATOM      8  C   UNL     1      34.901 -21.430 -19.253  0.00  0.00    +0.128 C 
ATOM      9  C   UNL     1      33.505 -21.411 -19.428  0.00  0.00    +0.084 C 
ATOM     10  C   UNL     1      33.281 -22.866 -17.657  0.00  0.00    +0.201 C 
ATOM     11  C   UNL     1      35.700 -20.671 -20.103  0.00  0.00    +0.086 C 
ATOM     12  C   UNL     1      32.961 -20.633 -20.447  0.00  0.00    +0.073 C 
ATOM     13  C   UNL     1      35.146 -19.896 -21.120  0.00  0.00    -0.023 C 
ATOM     14  C   UNL     1      33.770 -19.877 -21.292  0.00  0.00    -0.024 C 
ATOM     15  H   UNL     1      34.877 -24.547 -16.220  0.00  0.00    +0.176 HD
ENDBRANCH   1   4
BRANCH   1  16
ATOM     16  C   UNL     1      36.285 -23.476 -13.963  0.00  0.00    +0.125 C 
ATOM     17  C   UNL     1      37.268 -23.296 -13.006  0.00  0.00    +0.021 C 
ATOM     18  C   UNL     1      35.041 -23.987 -13.639  0.00  0.00    +0.021 C 
ATOM     19  C   UNL     1      36.999 -23.639 -11.681  0.00  0.00    +0.015 C 
ATOM     20  C   UNL     1      34.772 -24.331 -12.315  0.00  0.00    +0.015 C 
ATOM     21  C   UNL     1      35.750 -24.157 -11.336  0.00  0.00    +0.042 C 
BRANCH  21  22
ATOM     22  N   UNL     1      35.477 -24.502  -9.996  0.00  0.00    -0.357 N 
ATOM     23  H   UNL     1      36.206 -24.800  -9.405  0.00  0.00    +0.142 HD
ATOM     24  H   UNL     1      34.556 -24.446  -9.651  0.00  0.00    +0.142 HD
ENDBRANCH  21  22
ENDBRANCH   1  16
TORSDOF 3
ENDMDL
MODEL 9
REMARK VINA RESULT:      -8.9      8.909     12.650
REMARK  Name = 5338
REMARK  3 active torsions:
REMARK  status: ('A' for Active; 'I' for Inactive)
REMARK    1  A    between atoms: S_1  and  N_4
REMARK    2  A    between atoms: S_1  and  C_16
REMARK    3  A    between atoms: C_21  and  N_22
REMARK                            x       y       z     vdW  Elec       q    Type
REMARK                         _______ _______ _______ _____ _____    ______ ____
ROOT
ATOM      1  S   UNL     1      31.402  -5.840 -23.825  0.00  0.00    +0.075 S 
ATOM      2  O   UNL     1      30.863  -7.146 -24.155  0.00  0.00    -0.150 OA
ATOM      3  O   UNL     1      30.510  -4.704 -23.697  0.00  0.00    -0.150 OA
ENDROOT
BRANCH   1   4
ATOM      4  N   UNL     1      32.387  -5.976 -22.417  0.00  0.00    -0.191 N 
ATOM      5  N   UNL     1      31.996  -8.297 -22.189  0.00  0.00    -0.391 NA
ATOM      6  N   UNL     1      32.208  -8.102 -19.425  0.00  0.00    -0.263 NA
ATOM      7  C   UNL     1      32.240  -7.122 -21.582  0.00  0.00    +0.200 C 
ATOM      8  C   UNL     1      31.857  -9.386 -21.412  0.00  0.00    +0.128 C 
ATOM      9  C   UNL     1      31.964  -9.287 -20.013  0.00  0.00    +0.084 C 
ATOM     10  C   UNL     1      32.345  -7.025 -20.220  0.00  0.00    +0.201 C 
ATOM     11  C   UNL     1      31.604 -10.629 -21.985  0.00  0.00    +0.086 C 
ATOM     12  C   UNL     1      31.815 -10.435 -19.239  0.00  0.00    +0.073 C 
ATOM     13  C   UNL     1      31.455 -11.772 -21.202  0.00  0.00    -0.023 C 
ATOM     14  C   UNL     1      31.561 -11.675 -19.823  0.00  0.00    -0.024 C 
ATOM     15  H   UNL     1      33.040  -5.274 -22.192  0.00  0.00    +0.176 HD
ENDBRANCH   1   4
BRANCH   1  16
ATOM     16  C   UNL     1      32.599  -5.450 -25.068  0.00  0.00    +0.125 C 
ATOM     17  C   UNL     1      32.328  -4.437 -25.971  0.00  0.00    +0.021 C 
ATOM     18  C   UNL     1      33.783  -6.164 -25.112  0.00  0.00    +0.021 C 
ATOM     19  C   UNL     1      33.271  -4.129 -26.951  0.00  0.00    +0.015 C 
ATOM     20  C   UNL     1      34.725  -5.857 -26.093  0.00  0.00    +0.015 C 
ATOM     21  C   UNL     1      34.469  -4.839 -27.012  0.00  0.00    +0.042 C 
BRANCH  21  22
ATOM     22  N   UNL     1      35.424  -4.527 -28.003  0.00  0.00    -0.357 N 
ATOM     23  H   UNL     1      35.213  -4.671 -28.953  0.00  0.00    +0.142 HD
ATOM     24  H   UNL     1      36.303  -4.166 -27.743  0.00  0.00    +0.142 HD
ENDBRANCH  21  22
ENDBRANCH   1  16
TORSDOF 3
ENDMDL
