MODEL 1
REMARK VINA RESULT:      -8.8      0.000      0.000
REMARK  Name = 254
REMARK  3 active torsions:
REMARK  status: ('A' for Active; 'I' for Inactive)
REMARK    1  A    between atoms: C_1  and  C_7
REMARK    2  A    between atoms: C_2  and  O_13
REMARK    3  A    between atoms: C_4  and  O_15
REMARK                            x       y       z     vdW  Elec       q    Type
REMARK                         _______ _______ _______ _____ _____    ______ ____
ROOT
ATOM      1  C   UNL     1      34.755 -18.774 -22.225  0.00  0.00    +0.037 C 
ATOM      2  C   UNL     1      34.895 -17.418 -21.925  0.00  0.00    +0.167 C 
ATOM      3  C   UNL     1      34.659 -19.186 -23.555  0.00  0.00    +0.003 C 
ATOM      4  C   UNL     1      34.938 -16.476 -22.953  0.00  0.00    +0.167 C 
ATOM      5  C   UNL     1      34.701 -18.244 -24.583  0.00  0.00    +0.003 C 
ATOM      6  C   UNL     1      34.841 -16.889 -24.283  0.00  0.00    +0.040 C 
ENDROOT
BRANCH   1   7
ATOM      7  C   UNL     1      34.709 -19.768 -21.174  0.00  0.00    +0.003 C 
ATOM      8  C   UNL     1      35.894 -20.295 -20.660  0.00  0.00    +0.000 C 
ATOM      9  C   UNL     1      33.480 -20.199 -20.674  0.00  0.00    +0.000 C 
ATOM     10  C   UNL     1      35.849 -21.253 -19.647  0.00  0.00    +0.000 C 
ATOM     11  C   UNL     1      33.435 -21.157 -19.661  0.00  0.00    +0.000 C 
ATOM     12  C   UNL     1      34.621 -21.684 -19.148  0.00  0.00    +0.000 C 
ENDBRANCH   1   7
BRANCH   2  13
ATOM     13  O   UNL     1      34.991 -16.998 -20.630  0.00  0.00    -0.503 OA
ATOM     14  H   UNL     1      34.316 -16.465 -20.258  0.00  0.00    +0.292 HD
ENDBRANCH   2  13
BRANCH   4  15
ATOM     15  O   UNL     1      35.073 -15.149 -22.675  0.00  0.00    -0.503 OA
ATOM     16  H   UNL     1      35.627 -14.873 -21.971  0.00  0.00    +0.292 HD
ENDBRANCH   4  15
TORSDOF 3
ENDMDL
MODEL 2
REMARK VINA RESULT:      -8.7      2.010      5.190
REMARK  Name = 254
REMARK  3 active torsions:
REMARK  status: ('A' for Active; 'I' for Inactive)
REMARK    1  A    between atoms: C_1  and  C_7
REMARK    2  A    between atoms: C_2  and  O_13
REMARK    3  A    between atoms: C_4  and  O_15
REMARK                            x       y       z     vdW  Elec       q    Type
REMARK                         _______ _______ _______ _____ _____    ______ ____
ROOT
ATOM      1  C   UNL     1      34.903 -20.022 -20.710  0.00  0.00    +0.037 C 
ATOM      2  C   UNL     1      33.709 -20.590 -20.261  0.00  0.00    +0.167 C 
ATOM      3  C   UNL     1      36.123 -20.488 -20.218  0.00  0.00    +0.003 C 
ATOM      4  C   UNL     1      33.737 -21.621 -19.321  0.00  0.00    +0.167 C 
ATOM      5  C   UNL     1      36.150 -21.519 -19.279  0.00  0.00    +0.003 C 
ATOM      6  C   UNL     1      34.958 -22.085 -18.830  0.00  0.00    +0.040 C 
ENDROOT
BRANCH   1   7
ATOM      7  C   UNL     1      34.898 -18.952 -21.685  0.00  0.00    +0.003 C 
ATOM      8  C   UNL     1      34.868 -19.250 -23.047  0.00  0.00    +0.000 C 
ATOM      9  C   UNL     1      34.923 -17.623 -21.262  0.00  0.00    +0.000 C 
ATOM     10  C   UNL     1      34.863 -18.218 -23.986  0.00  0.00    +0.000 C 
ATOM     11  C   UNL     1      34.918 -16.592 -22.200  0.00  0.00    +0.000 C 
ATOM     12  C   UNL     1      34.888 -16.890 -23.563  0.00  0.00    +0.000 C 
ENDBRANCH   1   7
BRANCH   2  13
ATOM     13  O   UNL     1      32.508 -20.146 -20.732  0.00  0.00    -0.503 OA
ATOM     14  H   UNL     1      32.243 -20.351 -21.607  0.00  0.00    +0.292 HD
ENDBRANCH   2  13
BRANCH   4  15
ATOM     15  O   UNL     1      32.580 -22.184 -18.874  0.00  0.00    -0.503 OA
ATOM     16  H   UNL     1      32.182 -21.871 -18.085  0.00  0.00    +0.292 HD
ENDBRANCH   4  15
TORSDOF 3
ENDMDL
MODEL 3
REMARK VINA RESULT:      -8.7      1.586      2.072
REMARK  Name = 254
REMARK  3 active torsions:
REMARK  status: ('A' for Active; 'I' for Inactive)
REMARK    1  A    between atoms: C_1  and  C_7
REMARK    2  A    between atoms: C_2  and  O_13
REMARK    3  A    between atoms: C_4  and  O_15
REMARK                            x       y       z     vdW  Elec       q    Type
REMARK                         _______ _______ _______ _____ _____    ______ ____
ROOT
ATOM      1  C   UNL     1      34.662 -18.071 -22.013  0.00  0.00    +0.037 C 
ATOM      2  C   UNL     1      34.750 -18.189 -23.402  0.00  0.00    +0.167 C 
ATOM      3  C   UNL     1      34.616 -16.806 -21.425  0.00  0.00    +0.003 C 
ATOM      4  C   UNL     1      34.793 -17.045 -24.199  0.00  0.00    +0.167 C 
ATOM      5  C   UNL     1      34.659 -15.662 -22.222  0.00  0.00    +0.003 C 
ATOM      6  C   UNL     1      34.748 -15.781 -23.609  0.00  0.00    +0.040 C 
ENDROOT
BRANCH   1   7
ATOM      7  C   UNL     1      34.615 -19.244 -21.168  0.00  0.00    +0.003 C 
ATOM      8  C   UNL     1      35.799 -19.860 -20.762  0.00  0.00    +0.000 C 
ATOM      9  C   UNL     1      33.385 -19.760 -20.758  0.00  0.00    +0.000 C 
ATOM     10  C   UNL     1      35.753 -20.991 -19.947  0.00  0.00    +0.000 C 
ATOM     11  C   UNL     1      33.339 -20.891 -19.943  0.00  0.00    +0.000 C 
ATOM     12  C   UNL     1      34.524 -21.507 -19.538  0.00  0.00    +0.000 C 
ENDBRANCH   1   7
BRANCH   2  13
ATOM     13  O   UNL     1      34.795 -19.418 -23.993  0.00  0.00    -0.503 OA
ATOM     14  H   UNL     1      34.230 -20.104 -23.694  0.00  0.00    +0.292 HD
ENDBRANCH   2  13
BRANCH   4  15
ATOM     15  O   UNL     1      34.879 -17.145 -25.555  0.00  0.00    -0.503 OA
ATOM     16  H   UNL     1      35.717 -17.226 -25.965  0.00  0.00    +0.292 HD
ENDBRANCH   4  15
TORSDOF 3
ENDMDL
MODEL 4
REMARK VINA RESULT:      -8.5      0.484      1.379
REMARK  Name = 254
REMARK  3 active torsions:
REMARK  status: ('A' for Active; 'I' for Inactive)
REMARK    1  A    between atoms: C_1  and  C_7
REMARK    2  A    between atoms: C_2  and  O_13
REMARK    3  A    between atoms: C_4  and  O_15
REMARK                            x       y       z     vdW  Elec       q    Type
REMARK                         _______ _______ _______ _____ _____    ______ ____
ROOT
ATOM      1  C   UNL     1      34.910 -18.352 -22.356  0.00  0.00    +0.037 C 
ATOM      2  C   UNL     1      34.916 -17.003 -21.993  0.00  0.00    +0.167 C 
ATOM      3  C   UNL     1      34.900 -18.707 -23.705  0.00  0.00    +0.003 C 
ATOM      4  C   UNL     1      34.909 -16.014 -22.976  0.00  0.00    +0.167 C 
ATOM      5  C   UNL     1      34.892 -17.718 -24.689  0.00  0.00    +0.003 C 
ATOM      6  C   UNL     1      34.897 -16.372 -24.325  0.00  0.00    +0.040 C 
ENDROOT
BRANCH   1   7
ATOM      7  C   UNL     1      34.919 -19.393 -21.352  0.00  0.00    +0.003 C 
ATOM      8  C   UNL     1      33.716 -19.908 -20.870  0.00  0.00    +0.000 C 
ATOM      9  C   UNL     1      36.131 -19.884 -20.866  0.00  0.00    +0.000 C 
ATOM     10  C   UNL     1      33.725 -20.912 -19.902  0.00  0.00    +0.000 C 
ATOM     11  C   UNL     1      36.141 -20.888 -19.898  0.00  0.00    +0.000 C 
ATOM     12  C   UNL     1      34.936 -21.402 -19.416  0.00  0.00    +0.000 C 
ENDBRANCH   1   7
BRANCH   2  13
ATOM     13  O   UNL     1      34.927 -16.638 -20.678  0.00  0.00    -0.503 OA
ATOM     14  H   UNL     1      34.818 -17.287 -20.010  0.00  0.00    +0.292 HD
ENDBRANCH   2  13
BRANCH   4  15
ATOM     15  O   UNL     1      34.913 -14.695 -22.636  0.00  0.00    -0.503 OA
ATOM     16  H   UNL     1      35.720 -14.219 -22.620  0.00  0.00    +0.292 HD
ENDBRANCH   4  15
TORSDOF 3
ENDMDL
MODEL 5
REMARK VINA RESULT:      -8.4      1.757      5.054
REMARK  Name = 254
REMARK  3 active torsions:
REMARK  status: ('A' for Active; 'I' for Inactive)
REMARK    1  A    between atoms: C_1  and  C_7
REMARK    2  A    between atoms: C_2  and  O_13
REMARK    3  A    between atoms: C_4  and  O_15
REMARK                            x       y       z     vdW  Elec       q    Type
REMARK                         _______ _______ _______ _____ _____    ______ ____
ROOT
ATOM      1  C   UNL     1      34.626 -19.660 -20.935  0.00  0.00    +0.037 C 
ATOM      2  C   UNL     1      35.759 -20.189 -20.313  0.00  0.00    +0.167 C 
ATOM      3  C   UNL     1      33.368 -20.197 -20.659  0.00  0.00    +0.003 C 
ATOM      4  C   UNL     1      35.634 -21.252 -19.419  0.00  0.00    +0.167 C 
ATOM      5  C   UNL     1      33.242 -21.261 -19.765  0.00  0.00    +0.003 C 
ATOM      6  C   UNL     1      34.375 -21.789 -19.145  0.00  0.00    +0.040 C 
ENDROOT
BRANCH   1   7
ATOM      7  C   UNL     1      34.733 -18.557 -21.864  0.00  0.00    +0.003 C 
ATOM      8  C   UNL     1      34.712 -17.244 -21.394  0.00  0.00    +0.000 C 
ATOM      9  C   UNL     1      34.858 -18.806 -23.231  0.00  0.00    +0.000 C 
ATOM     10  C   UNL     1      34.816 -16.180 -22.291  0.00  0.00    +0.000 C 
ATOM     11  C   UNL     1      34.962 -17.743 -24.128  0.00  0.00    +0.000 C 
ATOM     12  C   UNL     1      34.941 -16.429 -23.657  0.00  0.00    +0.000 C 
ENDBRANCH   1   7
BRANCH   2  13
ATOM     13  O   UNL     1      36.997 -19.675 -20.571  0.00  0.00    -0.503 OA
ATOM     14  H   UNL     1      37.189 -18.783 -20.354  0.00  0.00    +0.292 HD
ENDBRANCH   2  13
BRANCH   4  15
ATOM     15  O   UNL     1      36.731 -21.778 -18.806  0.00  0.00    -0.503 OA
ATOM     16  H   UNL     1      36.973 -22.669 -18.965  0.00  0.00    +0.292 HD
ENDBRANCH   4  15
TORSDOF 3
ENDMDL
MODEL 6
REMARK VINA RESULT:      -7.5      9.062     11.428
REMARK  Name = 254
REMARK  3 active torsions:
REMARK  status: ('A' for Active; 'I' for Inactive)
REMARK    1  A    between atoms: C_1  and  C_7
REMARK    2  A    between atoms: C_2  and  O_13
REMARK    3  A    between atoms: C_4  and  O_15
REMARK                            x       y       z     vdW  Elec       q    Type
REMARK                         _______ _______ _______ _____ _____    ______ ____
ROOT
ATOM      1  C   UNL     1      32.149  -9.130 -21.919  0.00  0.00    +0.037 C 
ATOM      2  C   UNL     1      32.352  -8.985 -20.545  0.00  0.00    +0.167 C 
ATOM      3  C   UNL     1      31.448 -10.233 -22.406  0.00  0.00    +0.003 C 
ATOM      4  C   UNL     1      31.855  -9.944 -19.662  0.00  0.00    +0.167 C 
ATOM      5  C   UNL     1      30.951 -11.191 -21.523  0.00  0.00    +0.003 C 
ATOM      6  C   UNL     1      31.154 -11.047 -20.150  0.00  0.00    +0.040 C 
ENDROOT
BRANCH   1   7
ATOM      7  C   UNL     1      32.655  -8.147 -22.853  0.00  0.00    +0.003 C 
ATOM      8  C   UNL     1      33.991  -8.187 -23.254  0.00  0.00    +0.000 C 
ATOM      9  C   UNL     1      31.807  -7.159 -23.354  0.00  0.00    +0.000 C 
ATOM     10  C   UNL     1      34.477  -7.240 -24.154  0.00  0.00    +0.000 C 
ATOM     11  C   UNL     1      32.293  -6.211 -24.254  0.00  0.00    +0.000 C 
ATOM     12  C   UNL     1      33.629  -6.252 -24.654  0.00  0.00    +0.000 C 
ENDBRANCH   1   7
BRANCH   2  13
ATOM     13  O   UNL     1      33.035  -7.912 -20.052  0.00  0.00    -0.503 OA
ATOM     14  H   UNL     1      33.894  -8.026 -19.696  0.00  0.00    +0.292 HD
ENDBRANCH   2  13
BRANCH   4  15
ATOM     15  O   UNL     1      32.046  -9.816 -18.319  0.00  0.00    -0.503 OA
ATOM     16  H   UNL     1      32.849  -9.461 -17.992  0.00  0.00    +0.292 HD
ENDBRANCH   4  15
TORSDOF 3
ENDMDL
MODEL 7
REMARK VINA RESULT:      -7.5      4.019      7.010
REMARK  Name = 254
REMARK  3 active torsions:
REMARK  status: ('A' for Active; 'I' for Inactive)
REMARK    1  A    between atoms: C_1  and  C_7
REMARK    2  A    between atoms: C_2  and  O_13
REMARK    3  A    between atoms: C_4  and  O_15
REMARK                            x       y       z     vdW  Elec       q    Type
REMARK                         _______ _______ _______ _____ _____    ______ ____
ROOT
ATOM      1  C   UNL     1      33.448 -14.295 -23.017  0.00  0.00    +0.037 C 
ATOM      2  C   UNL     1      34.398 -15.222 -22.583  0.00  0.00    +0.167 C 
ATOM      3  C   UNL     1      32.483 -13.822 -22.127  0.00  0.00    +0.003 C 
ATOM      4  C   UNL     1      34.382 -15.673 -21.264  0.00  0.00    +0.167 C 
ATOM      5  C   UNL     1      32.467 -14.273 -20.808  0.00  0.00    +0.003 C 
ATOM      6  C   UNL     1      33.416 -15.199 -20.376  0.00  0.00    +0.040 C 
ENDROOT
BRANCH   1   7
ATOM      7  C   UNL     1      33.447 -13.813 -24.381  0.00  0.00    +0.003 C 
ATOM      8  C   UNL     1      33.797 -12.491 -24.654  0.00  0.00    +0.000 C 
ATOM      9  C   UNL     1      33.096 -14.670 -25.424  0.00  0.00    +0.000 C 
ATOM     10  C   UNL     1      33.796 -12.026 -25.969  0.00  0.00    +0.000 C 
ATOM     11  C   UNL     1      33.095 -14.206 -26.739  0.00  0.00    +0.000 C 
ATOM     12  C   UNL     1      33.445 -12.883 -27.012  0.00  0.00    +0.000 C 
ENDBRANCH   1   7
BRANCH   2  13
ATOM     13  O   UNL     1      35.349 -15.695 -23.440  0.00  0.00    -0.503 OA
ATOM     14  H   UNL     1      35.863 -16.442 -23.205  0.00  0.00    +0.292 HD
ENDBRANCH   2  13
BRANCH   4  15
ATOM     15  O   UNL     1      35.303 -16.578 -20.827  0.00  0.00    -0.503 OA
ATOM     16  H   UNL     1      35.630 -17.232 -21.413  0.00  0.00    +0.292 HD
ENDBRANCH   4  15
TORSDOF 3
ENDMDL
MODEL 8
REMARK VINA RESULT:      -7.3      2.515      5.561
REMARK  Name = 254
REMARK  3 active torsions:
REMARK  status: ('A' for Active; 'I' for Inactive)
REMARK    1  A    between atoms: C_1  and  C_7
REMARK    2  A    between atoms: C_2  and  O_13
REMARK    3  A    between atoms: C_4  and  O_15
REMARK                            x       y       z     vdW  Elec       q    Type
REMARK                         _______ _______ _______ _____ _____    ______ ____
ROOT
ATOM      1  C   UNL     1      34.387 -16.179 -22.778  0.00  0.00    +0.037 C 
ATOM      2  C   UNL     1      34.962 -16.731 -21.631  0.00  0.00    +0.167 C 
ATOM      3  C   UNL     1      34.427 -16.883 -23.982  0.00  0.00    +0.003 C 
ATOM      4  C   UNL     1      35.577 -17.981 -21.690  0.00  0.00    +0.167 C 
ATOM      5  C   UNL     1      35.043 -18.133 -24.041  0.00  0.00    +0.003 C 
ATOM      6  C   UNL     1      35.618 -18.682 -22.896  0.00  0.00    +0.040 C 
ENDROOT
BRANCH   1   7
ATOM      7  C   UNL     1      33.742 -14.884 -22.739  0.00  0.00    +0.003 C 
ATOM      8  C   UNL     1      32.731 -14.635 -21.811  0.00  0.00    +0.000 C 
ATOM      9  C   UNL     1      34.132 -13.884 -23.630  0.00  0.00    +0.000 C 
ATOM     10  C   UNL     1      32.111 -13.387 -21.774  0.00  0.00    +0.000 C 
ATOM     11  C   UNL     1      33.512 -12.636 -23.593  0.00  0.00    +0.000 C 
ATOM     12  C   UNL     1      32.501 -12.387 -22.664  0.00  0.00    +0.000 C 
ENDBRANCH   1   7
BRANCH   2  13
ATOM     13  O   UNL     1      34.930 -16.056 -20.445  0.00  0.00    -0.503 OA
ATOM     14  H   UNL     1      34.791 -15.129 -20.436  0.00  0.00    +0.292 HD
ENDBRANCH   2  13
BRANCH   4  15
ATOM     15  O   UNL     1      36.143 -18.530 -20.579  0.00  0.00    -0.503 OA
ATOM     16  H   UNL     1      36.897 -18.130 -20.192  0.00  0.00    +0.292 HD
ENDBRANCH   4  15
TORSDOF 3
ENDMDL
MODEL 9
REMARK VINA RESULT:      -7.2      4.267      7.015
REMARK  Name = 254
REMARK  3 active torsions:
REMARK  status: ('A' for Active; 'I' for Inactive)
REMARK    1  A    between atoms: C_1  and  C_7
REMARK    2  A    between atoms: C_2  and  O_13
REMARK    3  A    between atoms: C_4  and  O_15
REMARK                            x       y       z     vdW  Elec       q    Type
REMARK                         _______ _______ _______ _____ _____    ______ ____
ROOT
ATOM      1  C   UNL     1      33.580 -14.147 -24.081  0.00  0.00    +0.037 C 
ATOM      2  C   UNL     1      34.471 -14.932 -23.345  0.00  0.00    +0.167 C 
ATOM      3  C   UNL     1      33.122 -14.595 -25.320  0.00  0.00    +0.003 C 
ATOM      4  C   UNL     1      34.902 -16.158 -23.848  0.00  0.00    +0.167 C 
ATOM      5  C   UNL     1      33.553 -15.822 -25.824  0.00  0.00    +0.003 C 
ATOM      6  C   UNL     1      34.443 -16.604 -25.088  0.00  0.00    +0.040 C 
ENDROOT
BRANCH   1   7
ATOM      7  C   UNL     1      33.119 -12.872 -23.577  0.00  0.00    +0.003 C 
ATOM      8  C   UNL     1      32.127 -12.825 -22.598  0.00  0.00    +0.000 C 
ATOM      9  C   UNL     1      33.667 -11.688 -24.071  0.00  0.00    +0.000 C 
ATOM     10  C   UNL     1      31.683 -11.596 -22.113  0.00  0.00    +0.000 C 
ATOM     11  C   UNL     1      33.224 -10.458 -23.586  0.00  0.00    +0.000 C 
ATOM     12  C   UNL     1      32.231 -10.412 -22.606  0.00  0.00    +0.000 C 
ENDBRANCH   1   7
BRANCH   2  13
ATOM     13  O   UNL     1      34.929 -14.509 -22.131  0.00  0.00    -0.503 OA
ATOM     14  H   UNL     1      34.375 -14.561 -21.376  0.00  0.00    +0.292 HD
ENDBRANCH   2  13
BRANCH   4  15
ATOM     15  O   UNL     1      35.772 -16.933 -23.141  0.00  0.00    -0.503 OA
ATOM     16  H   UNL     1      35.666 -17.864 -23.129  0.00  0.00    +0.292 HD
ENDBRANCH   4  15
TORSDOF 3
ENDMDL
