MODEL 1
REMARK VINA RESULT:      -6.4      0.000      0.000
REMARK  Name = 9846332
REMARK  5 active torsions:
REMARK  status: ('A' for Active; 'I' for Inactive)
REMARK    1  A    between atoms: C_9  and  O_25
REMARK    2  A    between atoms: C_9  and  C_30
REMARK    3  A    between atoms: C_13  and  O_27
REMARK    4  A    between atoms: C_30  and  C_31
REMARK    5  A    between atoms: C_31  and  O_32
REMARK                            x       y       z     vdW  Elec       q    Type
REMARK                         _______ _______ _______ _____ _____    ______ ____
ROOT
ATOM      1 CL   UNL     1      30.191 -11.550 -21.003  0.00  0.00    -0.079 Cl
ATOM      2  F   UNL     1      31.319  -8.079 -24.147  0.00  0.00    -0.237 F 
ATOM      3  F   UNL     1      35.379  -9.430 -24.761  0.00  0.00    -0.233 F 
ATOM      4  O   UNL     1      32.274 -12.665 -22.815  0.00  0.00    -0.286 OA
ATOM      5  C   UNL     1      31.546  -4.564 -24.139  0.00  0.00    +0.032 C 
ATOM      6  C   UNL     1      32.439  -5.574 -24.891  0.00  0.00    +0.005 C 
ATOM      7  C   UNL     1      33.132  -6.586 -23.965  0.00  0.00    +0.036 C 
ATOM      8  C   UNL     1      32.047  -7.400 -23.179  0.00  0.00    +0.165 C 
ATOM      9  C   UNL     1      31.091  -3.683 -25.340  0.00  0.00    +0.141 C 
ATOM     10  C   UNL     1      33.308  -4.697 -25.792  0.00  0.00    +0.003 C 
ATOM     11  C   UNL     1      30.445  -5.373 -23.424  0.00  0.00    +0.035 C 
ATOM     12  C   UNL     1      32.392  -3.507 -26.180  0.00  0.00    +0.032 C 
ATOM     13  C   UNL     1      30.997  -6.476 -22.492  0.00  0.00    +0.141 C 
ATOM     14  C   UNL     1      32.693  -8.523 -22.274  0.00  0.00    +0.067 C 
ATOM     15  C   UNL     1      34.040  -7.521 -24.780  0.00  0.00    +0.042 C 
ATOM     16  C   UNL     1      32.330  -3.694 -23.116  0.00  0.00    +0.003 C 
ATOM     17  C   UNL     1      34.664  -8.618 -23.927  0.00  0.00    +0.180 C 
ATOM     18  C   UNL     1      33.598  -9.374 -23.176  0.00  0.00    -0.003 C 
ATOM     19  C   UNL     1      32.172  -3.433 -27.689  0.00  0.00    +0.003 C 
ATOM     20  C   UNL     1      33.561  -7.981 -21.114  0.00  0.00    +0.011 C 
ATOM     21  C   UNL     1      31.602  -9.367 -21.628  0.00  0.00    -0.006 C 
ATOM     22  C   UNL     1      33.448 -10.698 -23.339  0.00  0.00    +0.037 C 
ATOM     23  C   UNL     1      31.452 -10.685 -21.792  0.00  0.00    +0.093 C 
ATOM     24  C   UNL     1      32.376 -11.452 -22.654  0.00  0.00    +0.205 C 
ENDROOT
BRANCH   9  25
ATOM     25  O   UNL     1      30.086  -4.317 -26.123  0.00  0.00    -0.380 OA
ATOM     26  H   UNL     1      29.238  -3.864 -25.991  0.00  0.00    +0.211 HD
ENDBRANCH   9  25
BRANCH  13  27
ATOM     27  O   UNL     1      31.494  -5.868 -21.312  0.00  0.00    -0.382 OA
ATOM     28  H   UNL     1      31.355  -6.463 -20.558  0.00  0.00    +0.210 HD
ENDBRANCH  13  27
BRANCH   9  30
ATOM     29  O   UNL     1      30.825  -1.786 -23.922  0.00  0.00    -0.291 OA
ATOM     30  C   UNL     1      30.493  -2.361 -24.958  0.00  0.00    +0.204 C 
BRANCH  30  31
ATOM     31  C   UNL     1      29.469  -1.786 -25.913  0.00  0.00    +0.204 C 
BRANCH  31  32
ATOM     32  O   UNL     1      28.166  -1.910 -25.381  0.00  0.00    -0.375 OA
ATOM     33  H   UNL     1      28.156  -2.612 -24.714  0.00  0.00    +0.211 HD
ENDBRANCH  31  32
ENDBRANCH  30  31
ENDBRANCH   9  30
TORSDOF 5
ENDMDL
MODEL 2
REMARK VINA RESULT:      -5.8      6.434     11.708
REMARK  Name = 9846332
REMARK  5 active torsions:
REMARK  status: ('A' for Active; 'I' for Inactive)
REMARK    1  A    between atoms: C_9  and  O_25
REMARK    2  A    between atoms: C_9  and  C_30
REMARK    3  A    between atoms: C_13  and  O_27
REMARK    4  A    between atoms: C_30  and  C_31
REMARK    5  A    between atoms: C_31  and  O_32
REMARK                            x       y       z     vdW  Elec       q    Type
REMARK                         _______ _______ _______ _____ _____    ______ ____
ROOT
ATOM      1 CL   UNL     1      35.284  -9.607 -23.665  0.00  0.00    -0.079 Cl
ATOM      2  F   UNL     1      35.405 -14.393 -24.203  0.00  0.00    -0.237 F 
ATOM      3  F   UNL     1      32.746 -14.457 -27.610  0.00  0.00    -0.233 F 
ATOM      4  O   UNL     1      34.835 -10.166 -26.555  0.00  0.00    -0.286 OA
ATOM      5  C   UNL     1      34.497 -17.225 -22.317  0.00  0.00    +0.032 C 
ATOM      6  C   UNL     1      34.401 -17.028 -23.845  0.00  0.00    +0.005 C 
ATOM      7  C   UNL     1      33.535 -15.824 -24.252  0.00  0.00    +0.036 C 
ATOM      8  C   UNL     1      34.142 -14.516 -23.639  0.00  0.00    +0.165 C 
ATOM      9  C   UNL     1      35.349 -18.529 -22.283  0.00  0.00    +0.141 C 
ATOM     10  C   UNL     1      34.018 -18.411 -24.370  0.00  0.00    +0.003 C 
ATOM     11  C   UNL     1      35.156 -15.958 -21.735  0.00  0.00    +0.035 C 
ATOM     12  C   UNL     1      34.729 -19.403 -23.413  0.00  0.00    +0.032 C 
ATOM     13  C   UNL     1      34.420 -14.651 -22.111  0.00  0.00    +0.141 C 
ATOM     14  C   UNL     1      33.349 -13.228 -24.096  0.00  0.00    +0.067 C 
ATOM     15  C   UNL     1      33.446 -15.726 -25.784  0.00  0.00    +0.042 C 
ATOM     16  C   UNL     1      33.120 -17.480 -21.642  0.00  0.00    +0.003 C 
ATOM     17  C   UNL     1      32.694 -14.484 -26.245  0.00  0.00    +0.180 C 
ATOM     18  C   UNL     1      33.293 -13.245 -25.630  0.00  0.00    -0.003 C 
ATOM     19  C   UNL     1      35.727 -20.287 -24.156  0.00  0.00    +0.003 C 
ATOM     20  C   UNL     1      31.895 -13.159 -23.573  0.00  0.00    +0.011 C 
ATOM     21  C   UNL     1      34.045 -11.974 -23.582  0.00  0.00    -0.006 C 
ATOM     22  C   UNL     1      33.775 -12.258 -26.401  0.00  0.00    +0.037 C 
ATOM     23  C   UNL     1      34.527 -10.992 -24.349  0.00  0.00    +0.093 C 
ATOM     24  C   UNL     1      34.416 -11.057 -25.822  0.00  0.00    +0.205 C 
ENDROOT
BRANCH   9  25
ATOM     25  O   UNL     1      36.724 -18.281 -22.555  0.00  0.00    -0.380 OA
ATOM     26  H   UNL     1      37.161 -17.960 -21.750  0.00  0.00    +0.211 HD
ENDBRANCH   9  25
BRANCH  13  27
ATOM     27  O   UNL     1      33.240 -14.552 -21.332  0.00  0.00    -0.382 OA
ATOM     28  H   UNL     1      33.478 -14.412 -20.401  0.00  0.00    +0.210 HD
ENDBRANCH  13  27
BRANCH   9  30
ATOM     29  O   UNL     1      36.277 -19.114 -20.166  0.00  0.00    -0.291 OA
ATOM     30  C   UNL     1      35.349 -19.244 -20.963  0.00  0.00    +0.204 C 
BRANCH  30  31
ATOM     31  C   UNL     1      34.151 -20.125 -20.678  0.00  0.00    +0.204 C 
BRANCH  31  32
ATOM     32  O   UNL     1      34.492 -21.151 -19.769  0.00  0.00    -0.375 OA
ATOM     33  H   UNL     1      34.535 -20.786 -18.872  0.00  0.00    +0.211 HD
ENDBRANCH  31  32
ENDBRANCH  30  31
ENDBRANCH   9  30
TORSDOF 5
ENDMDL
MODEL 3
REMARK VINA RESULT:      -5.7      2.917      8.177
REMARK  Name = 9846332
REMARK  5 active torsions:
REMARK  status: ('A' for Active; 'I' for Inactive)
REMARK    1  A    between atoms: C_9  and  O_25
REMARK    2  A    between atoms: C_9  and  C_30
REMARK    3  A    between atoms: C_13  and  O_27
REMARK    4  A    between atoms: C_30  and  C_31
REMARK    5  A    between atoms: C_31  and  O_32
REMARK                            x       y       z     vdW  Elec       q    Type
REMARK                         _______ _______ _______ _____ _____    ______ ____
ROOT
ATOM      1 CL   UNL     1      31.107  -5.024 -25.267  0.00  0.00    -0.079 Cl
ATOM      2  F   UNL     1      31.274  -9.386 -23.230  0.00  0.00    -0.237 F 
ATOM      3  F   UNL     1      31.758  -7.903 -19.199  0.00  0.00    -0.233 F 
ATOM      4  O   UNL     1      30.047  -4.730 -22.500  0.00  0.00    -0.286 OA
ATOM      5  C   UNL     1      33.349 -12.228 -23.383  0.00  0.00    +0.032 C 
ATOM      6  C   UNL     1      32.613 -11.652 -22.155  0.00  0.00    +0.005 C 
ATOM      7  C   UNL     1      32.995 -10.197 -21.840  0.00  0.00    +0.036 C 
ATOM      8  C   UNL     1      32.650  -9.291 -23.072  0.00  0.00    +0.165 C 
ATOM      9  C   UNL     1      32.796 -13.684 -23.352  0.00  0.00    +0.141 C 
ATOM     10  C   UNL     1      32.822 -12.710 -21.072  0.00  0.00    +0.003 C 
ATOM     11  C   UNL     1      32.950 -11.367 -24.599  0.00  0.00    +0.035 C 
ATOM     12  C   UNL     1      32.833 -14.058 -21.839  0.00  0.00    +0.032 C 
ATOM     13  C   UNL     1      33.226  -9.858 -24.404  0.00  0.00    +0.141 C 
ATOM     14  C   UNL     1      32.935  -7.764 -22.779  0.00  0.00    +0.067 C 
ATOM     15  C   UNL     1      32.261  -9.714 -20.578  0.00  0.00    +0.042 C 
ATOM     16  C   UNL     1      34.895 -12.250 -23.219  0.00  0.00    +0.003 C 
ATOM     17  C   UNL     1      32.515  -8.241 -20.284  0.00  0.00    +0.180 C 
ATOM     18  C   UNL     1      32.186  -7.398 -21.490  0.00  0.00    -0.003 C 
ATOM     19  C   UNL     1      31.703 -14.977 -21.382  0.00  0.00    +0.003 C 
ATOM     20  C   UNL     1      34.429  -7.427 -22.566  0.00  0.00    +0.011 C 
ATOM     21  C   UNL     1      32.471  -6.910 -23.951  0.00  0.00    -0.006 C 
ATOM     22  C   UNL     1      31.263  -6.425 -21.419  0.00  0.00    +0.037 C 
ATOM     23  C   UNL     1      31.550  -5.943 -23.881  0.00  0.00    +0.093 C 
ATOM     24  C   UNL     1      30.885  -5.621 -22.601  0.00  0.00    +0.205 C 
ENDROOT
BRANCH   9  25
ATOM     25  O   UNL     1      31.463 -13.764 -23.843  0.00  0.00    -0.380 OA
ATOM     26  H   UNL     1      30.939 -14.342 -23.266  0.00  0.00    +0.211 HD
ENDBRANCH   9  25
BRANCH  13  27
ATOM     27  O   UNL     1      34.619  -9.630 -24.537  0.00  0.00    -0.382 OA
ATOM     28  H   UNL     1      34.989 -10.253 -25.183  0.00  0.00    +0.210 HD
ENDBRANCH  13  27
BRANCH   9  30
ATOM     29  O   UNL     1      34.489 -15.323 -23.710  0.00  0.00    -0.291 OA
ATOM     30  C   UNL     1      33.565 -14.666 -24.186  0.00  0.00    +0.204 C 
BRANCH  30  31
ATOM     31  C   UNL     1      33.139 -14.795 -25.633  0.00  0.00    +0.204 C 
BRANCH  31  32
ATOM     32  O   UNL     1      33.776 -15.897 -26.244  0.00  0.00    -0.375 OA
ATOM     33  H   UNL     1      33.253 -16.699 -26.090  0.00  0.00    +0.211 HD
ENDBRANCH  31  32
ENDBRANCH  30  31
ENDBRANCH   9  30
TORSDOF 5
ENDMDL
MODEL 4
REMARK VINA RESULT:      -4.5      3.421      6.007
REMARK  Name = 9846332
REMARK  5 active torsions:
REMARK  status: ('A' for Active; 'I' for Inactive)
REMARK    1  A    between atoms: C_9  and  O_25
REMARK    2  A    between atoms: C_9  and  C_30
REMARK    3  A    between atoms: C_13  and  O_27
REMARK    4  A    between atoms: C_30  and  C_31
REMARK    5  A    between atoms: C_31  and  O_32
REMARK                            x       y       z     vdW  Elec       q    Type
REMARK                         _______ _______ _______ _____ _____    ______ ____
ROOT
ATOM      1 CL   UNL     1      36.069 -16.430 -24.211  0.00  0.00    -0.079 Cl
ATOM      2  F   UNL     1      34.631 -12.194 -22.422  0.00  0.00    -0.237 F 
ATOM      3  F   UNL     1      31.569 -13.878 -19.879  0.00  0.00    -0.233 F 
ATOM      4  O   UNL     1      35.012 -16.957 -21.478  0.00  0.00    -0.286 OA
ATOM      5  C   UNL     1      33.216  -9.216 -23.661  0.00  0.00    +0.032 C 
ATOM      6  C   UNL     1      32.940  -9.913 -22.311  0.00  0.00    +0.005 C 
ATOM      7  C   UNL     1      32.431 -11.355 -22.459  0.00  0.00    +0.036 C 
ATOM      8  C   UNL     1      33.499 -12.207 -23.226  0.00  0.00    +0.165 C 
ATOM      9  C   UNL     1      33.622  -7.806 -23.142  0.00  0.00    +0.141 C 
ATOM     10  C   UNL     1      32.074  -8.908 -21.551  0.00  0.00    +0.003 C 
ATOM     11  C   UNL     1      34.315 -10.029 -24.376  0.00  0.00    +0.035 C 
ATOM     12  C   UNL     1      32.590  -7.520 -22.009  0.00  0.00    +0.032 C 
ATOM     13  C   UNL     1      33.963 -11.525 -24.548  0.00  0.00    +0.141 C 
ATOM     14  C   UNL     1      33.076 -13.726 -23.332  0.00  0.00    +0.067 C 
ATOM     15  C   UNL     1      32.131 -11.960 -21.077  0.00  0.00    +0.042 C 
ATOM     16  C   UNL     1      31.954  -9.102 -24.562  0.00  0.00    +0.003 C 
ATOM     17  C   UNL     1      31.731 -13.427 -21.158  0.00  0.00    +0.180 C 
ATOM     18  C   UNL     1      32.772 -14.217 -21.910  0.00  0.00    -0.003 C 
ATOM     19  C   UNL     1      33.137  -6.707 -20.839  0.00  0.00    +0.003 C 
ATOM     20  C   UNL     1      31.817 -13.975 -24.195  0.00  0.00    +0.011 C 
ATOM     21  C   UNL     1      34.195 -14.538 -23.971  0.00  0.00    -0.006 C 
ATOM     22  C   UNL     1      33.402 -15.251 -21.332  0.00  0.00    +0.037 C 
ATOM     23  C   UNL     1      34.824 -15.567 -23.395  0.00  0.00    +0.093 C 
ATOM     24  C   UNL     1      34.464 -16.008 -22.030  0.00  0.00    +0.205 C 
ENDROOT
BRANCH   9  25
ATOM     25  O   UNL     1      34.944  -7.786 -22.615  0.00  0.00    -0.380 OA
ATOM     26  H   UNL     1      35.096  -6.946 -22.154  0.00  0.00    +0.211 HD
ENDBRANCH   9  25
BRANCH  13  27
ATOM     27  O   UNL     1      33.012 -11.652 -25.591  0.00  0.00    -0.382 OA
ATOM     28  H   UNL     1      32.191 -12.028 -25.235  0.00  0.00    +0.210 HD
ENDBRANCH  13  27
BRANCH   9  30
ATOM     29  O   UNL     1      34.556  -6.585 -24.964  0.00  0.00    -0.291 OA
ATOM     30  C   UNL     1      33.615  -6.727 -24.185  0.00  0.00    +0.204 C 
BRANCH  30  31
ATOM     31  C   UNL     1      32.392  -5.834 -24.219  0.00  0.00    +0.204 C 
BRANCH  31  32
ATOM     32  O   UNL     1      32.316  -5.139 -25.446  0.00  0.00    -0.375 OA
ATOM     33  H   UNL     1      33.099  -4.576 -25.547  0.00  0.00    +0.211 HD
ENDBRANCH  31  32
ENDBRANCH  30  31
ENDBRANCH   9  30
TORSDOF 5
ENDMDL
