MODEL 1
REMARK VINA RESULT:      -7.7      0.000      0.000
REMARK  Name = 10317383
REMARK  3 active torsions:
REMARK  status: ('A' for Active; 'I' for Inactive)
REMARK    1  A    between atoms: C_10  and  C_23
REMARK    2  A    between atoms: C_13  and  O_26
REMARK    3  A    between atoms: C_14  and  O_28
REMARK                            x       y       z     vdW  Elec       q    Type
REMARK                         _______ _______ _______ _____ _____    ______ ____
ROOT
ATOM      1  O   UNL     1      34.215 -23.776 -12.293  0.00  0.00    -0.351 OA
ATOM      2  O   UNL     1      35.058 -21.949 -14.966  0.00  0.00    -0.351 OA
ATOM      3  O   UNL     1      32.492 -25.485 -14.910  0.00  0.00    -0.351 OA
ATOM      4  O   UNL     1      40.459 -25.789 -15.453  0.00  0.00    -0.441 OA
ATOM      5  O   UNL     1      41.094 -26.529 -13.368  0.00  0.00    -0.245 OA
ATOM      6  C   UNL     1      34.873 -24.048 -13.542  0.00  0.00    +0.149 C 
ATOM      7  C   UNL     1      34.370 -23.196 -14.749  0.00  0.00    +0.169 C 
ATOM      8  C   UNL     1      33.874 -25.026 -12.904  0.00  0.00    +0.172 C 
ATOM      9  C   UNL     1      36.398 -24.297 -13.440  0.00  0.00    +0.054 C 
ATOM     10  C   UNL     1      32.014 -24.185 -14.564  0.00  0.00    +0.147 C 
ATOM     11  C   UNL     1      32.494 -25.143 -13.508  0.00  0.00    +0.172 C 
ATOM     12  C   UNL     1      35.313 -22.973 -15.927  0.00  0.00    +0.147 C 
ATOM     13  C   UNL     1      32.871 -23.028 -14.972  0.00  0.00    +0.167 C 
ATOM     14  C   UNL     1      36.924 -24.642 -14.901  0.00  0.00    +0.111 C 
ATOM     15  C   UNL     1      36.729 -23.475 -15.893  0.00  0.00    +0.063 C 
ATOM     16  C   UNL     1      36.769 -25.495 -12.501  0.00  0.00    +0.010 C 
ATOM     17  C   UNL     1      37.069 -23.024 -12.850  0.00  0.00    +0.005 C 
ATOM     18  C   UNL     1      38.349 -25.133 -14.856  0.00  0.00    +0.025 C 
ATOM     19  C   UNL     1      38.282 -25.773 -12.427  0.00  0.00    +0.033 C 
ATOM     20  C   UNL     1      38.920 -25.624 -13.757  0.00  0.00    +0.051 C 
ATOM     21  C   UNL     1      39.268 -25.210 -16.006  0.00  0.00    +0.233 C 
ATOM     22  C   UNL     1      40.272 -26.039 -14.122  0.00  0.00    +0.337 C 
ENDROOT
BRANCH  10  23
ATOM     23  C   UNL     1      30.546 -24.052 -14.789  0.00  0.00    +0.030 C 
ATOM     24  C   UNL     1      30.246 -23.216 -16.040  0.00  0.00    +0.003 C 
ATOM     25  C   UNL     1      29.872 -25.424 -14.904  0.00  0.00    +0.003 C 
ENDBRANCH  10  23
BRANCH  13  26
ATOM     26  O   UNL     1      32.453 -21.876 -14.229  0.00  0.00    -0.379 OA
ATOM     27  H   UNL     1      33.105 -21.167 -14.335  0.00  0.00    +0.211 HD
ENDBRANCH  13  26
BRANCH  14  28
ATOM     28  O   UNL     1      36.147 -25.732 -15.443  0.00  0.00    -0.383 OA
ATOM     29  H   UNL     1      36.029 -26.414 -14.763  0.00  0.00    +0.211 HD
ENDBRANCH  14  28
TORSDOF 3
ENDMDL
MODEL 2
REMARK VINA RESULT:      -6.7      1.657      7.112
REMARK  Name = 10317383
REMARK  3 active torsions:
REMARK  status: ('A' for Active; 'I' for Inactive)
REMARK    1  A    between atoms: C_10  and  C_23
REMARK    2  A    between atoms: C_13  and  O_26
REMARK    3  A    between atoms: C_14  and  O_28
REMARK                            x       y       z     vdW  Elec       q    Type
REMARK                         _______ _______ _______ _____ _____    ______ ____
ROOT
ATOM      1  O   UNL     1      34.964 -22.393 -15.154  0.00  0.00    -0.351 OA
ATOM      2  O   UNL     1      33.762 -23.366 -12.188  0.00  0.00    -0.351 OA
ATOM      3  O   UNL     1      36.139 -25.758 -14.966  0.00  0.00    -0.351 OA
ATOM      4  O   UNL     1      28.190 -25.054 -15.391  0.00  0.00    -0.441 OA
ATOM      5  O   UNL     1      27.886 -23.691 -17.221  0.00  0.00    -0.245 OA
ATOM      6  C   UNL     1      34.093 -23.445 -14.708  0.00  0.00    +0.149 C 
ATOM      7  C   UNL     1      34.421 -24.015 -13.292  0.00  0.00    +0.169 C 
ATOM      8  C   UNL     1      35.140 -23.653 -15.813  0.00  0.00    +0.172 C 
ATOM      9  C   UNL     1      32.597 -23.253 -15.064  0.00  0.00    +0.054 C 
ATOM     10  C   UNL     1      36.727 -24.818 -14.066  0.00  0.00    +0.147 C 
ATOM     11  C   UNL     1      36.391 -24.434 -15.481  0.00  0.00    +0.172 C 
ATOM     12  C   UNL     1      33.301 -24.681 -12.498  0.00  0.00    +0.147 C 
ATOM     13  C   UNL     1      35.866 -24.346 -12.937  0.00  0.00    +0.167 C 
ATOM     14  C   UNL     1      31.816 -24.539 -14.548  0.00  0.00    +0.111 C 
ATOM     15  C   UNL     1      31.892 -24.705 -13.015  0.00  0.00    +0.063 C 
ATOM     16  C   UNL     1      32.337 -23.118 -16.602  0.00  0.00    +0.010 C 
ATOM     17  C   UNL     1      32.094 -21.943 -14.394  0.00  0.00    +0.005 C 
ATOM     18  C   UNL     1      30.399 -24.548 -15.063  0.00  0.00    +0.025 C 
ATOM     19  C   UNL     1      30.848 -22.968 -16.964  0.00  0.00    +0.033 C 
ATOM     20  C   UNL     1      30.001 -23.848 -16.125  0.00  0.00    +0.051 C 
ATOM     21  C   UNL     1      29.294 -25.366 -14.529  0.00  0.00    +0.233 C 
ATOM     22  C   UNL     1      28.589 -24.155 -16.340  0.00  0.00    +0.337 C 
ENDROOT
BRANCH  10  23
ATOM     23  C   UNL     1      38.139 -25.166 -13.740  0.00  0.00    +0.030 C 
ATOM     24  C   UNL     1      38.251 -25.801 -12.348  0.00  0.00    +0.003 C 
ATOM     25  C   UNL     1      38.741 -26.105 -14.792  0.00  0.00    +0.003 C 
ENDBRANCH  10  23
BRANCH  13  26
ATOM     26  O   UNL     1      36.456 -23.160 -12.388  0.00  0.00    -0.379 OA
ATOM     27  H   UNL     1      36.688 -23.314 -11.460  0.00  0.00    +0.211 HD
ENDBRANCH  13  26
BRANCH  14  28
ATOM     28  O   UNL     1      32.439 -25.724 -15.088  0.00  0.00    -0.383 OA
ATOM     29  H   UNL     1      33.261 -25.479 -15.542  0.00  0.00    +0.211 HD
ENDBRANCH  14  28
TORSDOF 3
ENDMDL
MODEL 3
REMARK VINA RESULT:      -6.4      1.768      2.600
REMARK  Name = 10317383
REMARK  3 active torsions:
REMARK  status: ('A' for Active; 'I' for Inactive)
REMARK    1  A    between atoms: C_10  and  C_23
REMARK    2  A    between atoms: C_13  and  O_26
REMARK    3  A    between atoms: C_14  and  O_28
REMARK                            x       y       z     vdW  Elec       q    Type
REMARK                         _______ _______ _______ _____ _____    ______ ____
ROOT
ATOM      1  O   UNL     1      32.195 -22.276 -13.920  0.00  0.00    -0.351 OA
ATOM      2  O   UNL     1      33.205 -22.873 -17.053  0.00  0.00    -0.351 OA
ATOM      3  O   UNL     1      30.233 -25.131 -14.781  0.00  0.00    -0.351 OA
ATOM      4  O   UNL     1      38.095 -26.515 -14.412  0.00  0.00    -0.441 OA
ATOM      5  O   UNL     1      38.672 -25.683 -12.344  0.00  0.00    -0.245 OA
ATOM      6  C   UNL     1      32.793 -23.393 -14.598  0.00  0.00    +0.149 C 
ATOM      7  C   UNL     1      32.375 -23.555 -16.093  0.00  0.00    +0.169 C 
ATOM      8  C   UNL     1      31.695 -23.562 -13.536  0.00  0.00    +0.172 C 
ATOM      9  C   UNL     1      34.278 -23.655 -14.247  0.00  0.00    +0.054 C 
ATOM     10  C   UNL     1      29.920 -23.908 -15.448  0.00  0.00    +0.147 C 
ATOM     11  C   UNL     1      30.300 -23.923 -13.993  0.00  0.00    +0.172 C 
ATOM     12  C   UNL     1      33.318 -24.296 -17.036  0.00  0.00    +0.147 C 
ATOM     13  C   UNL     1      30.904 -23.438 -16.475  0.00  0.00    +0.167 C 
ATOM     14  C   UNL     1      34.733 -24.957 -15.039  0.00  0.00    +0.111 C 
ATOM     15  C   UNL     1      34.663 -24.775 -16.570  0.00  0.00    +0.063 C 
ATOM     16  C   UNL     1      34.519 -23.913 -12.721  0.00  0.00    +0.010 C 
ATOM     17  C   UNL     1      35.108 -22.399 -14.638  0.00  0.00    +0.005 C 
ATOM     18  C   UNL     1      36.089 -25.422 -14.572  0.00  0.00    +0.025 C 
ATOM     19  C   UNL     1      35.989 -24.214 -12.372  0.00  0.00    +0.033 C 
ATOM     20  C   UNL     1      36.616 -25.080 -13.397  0.00  0.00    +0.051 C 
ATOM     21  C   UNL     1      36.973 -26.357 -15.293  0.00  0.00    +0.233 C 
ATOM     22  C   UNL     1      37.903 -25.764 -13.286  0.00  0.00    +0.337 C 
ENDROOT
BRANCH  10  23
ATOM     23  C   UNL     1      28.476 -23.821 -15.806  0.00  0.00    +0.030 C 
ATOM     24  C   UNL     1      27.945 -22.392 -15.639  0.00  0.00    +0.003 C 
ATOM     25  C   UNL     1      28.224 -24.307 -17.238  0.00  0.00    +0.003 C 
ENDBRANCH  10  23
BRANCH  13  26
ATOM     26  O   UNL     1      30.640 -22.056 -16.748  0.00  0.00    -0.379 OA
ATOM     27  H   UNL     1      31.403 -21.663 -17.199  0.00  0.00    +0.211 HD
ENDBRANCH  13  26
BRANCH  14  28
ATOM     28  O   UNL     1      33.822 -26.037 -14.745  0.00  0.00    -0.383 OA
ATOM     29  H   UNL     1      33.054 -25.982 -15.334  0.00  0.00    +0.211 HD
ENDBRANCH  14  28
TORSDOF 3
ENDMDL
MODEL 4
REMARK VINA RESULT:      -6.2     13.056     15.449
REMARK  Name = 10317383
REMARK  3 active torsions:
REMARK  status: ('A' for Active; 'I' for Inactive)
REMARK    1  A    between atoms: C_10  and  C_23
REMARK    2  A    between atoms: C_13  and  O_26
REMARK    3  A    between atoms: C_14  and  O_28
REMARK                            x       y       z     vdW  Elec       q    Type
REMARK                         _______ _______ _______ _____ _____    ______ ____
ROOT
ATOM      1  O   UNL     1      32.887 -11.848 -25.302  0.00  0.00    -0.351 OA
ATOM      2  O   UNL     1      31.293 -12.054 -22.367  0.00  0.00    -0.351 OA
ATOM      3  O   UNL     1      34.915  -9.767 -23.229  0.00  0.00    -0.351 OA
ATOM      4  O   UNL     1      34.925 -17.489 -21.172  0.00  0.00    -0.441 OA
ATOM      5  O   UNL     1      35.431 -18.553 -23.150  0.00  0.00    -0.245 OA
ATOM      6  C   UNL     1      33.250 -12.272 -23.977  0.00  0.00    +0.149 C 
ATOM      7  C   UNL     1      32.542 -11.497 -22.822  0.00  0.00    +0.169 C 
ATOM      8  C   UNL     1      34.204 -11.474 -24.880  0.00  0.00    +0.172 C 
ATOM      9  C   UNL     1      33.422 -13.801 -23.801  0.00  0.00    +0.054 C 
ATOM     10  C   UNL     1      33.609  -9.284 -23.548  0.00  0.00    +0.147 C 
ATOM     11  C   UNL     1      34.438 -10.014 -24.569  0.00  0.00    +0.172 C 
ATOM     12  C   UNL     1      32.394 -12.185 -21.468  0.00  0.00    +0.147 C 
ATOM     13  C   UNL     1      32.461  -9.976 -22.881  0.00  0.00    +0.167 C 
ATOM     14  C   UNL     1      33.884 -14.060 -22.301  0.00  0.00    +0.111 C 
ATOM     15  C   UNL     1      32.828 -13.609 -21.269  0.00  0.00    +0.063 C 
ATOM     16  C   UNL     1      34.506 -14.417 -24.750  0.00  0.00    +0.010 C 
ATOM     17  C   UNL     1      32.070 -14.492 -24.136  0.00  0.00    +0.005 C 
ATOM     18  C   UNL     1      34.306 -15.494 -22.110  0.00  0.00    +0.025 C 
ATOM     19  C   UNL     1      34.710 -15.930 -24.551  0.00  0.00    +0.033 C 
ATOM     20  C   UNL     1      34.663 -16.293 -23.115  0.00  0.00    +0.051 C 
ATOM     21  C   UNL     1      34.454 -16.182 -20.814  0.00  0.00    +0.233 C 
ATOM     22  C   UNL     1      35.052 -17.574 -22.531  0.00  0.00    +0.337 C 
ENDROOT
BRANCH  10  23
ATOM     23  C   UNL     1      33.563  -7.796 -23.602  0.00  0.00    +0.030 C 
ATOM     24  C   UNL     1      33.002  -7.206 -22.302  0.00  0.00    +0.003 C 
ATOM     25  C   UNL     1      34.947  -7.203 -23.890  0.00  0.00    +0.003 C 
ENDBRANCH  10  23
BRANCH  13  26
ATOM     26  O   UNL     1      31.262  -9.637 -23.589  0.00  0.00    -0.379 OA
ATOM     27  H   UNL     1      31.490  -9.284 -24.463  0.00  0.00    +0.211 HD
ENDBRANCH  13  26
BRANCH  14  28
ATOM     28  O   UNL     1      35.054 -13.263 -22.018  0.00  0.00    -0.383 OA
ATOM     29  H   UNL     1      35.041 -12.463 -22.568  0.00  0.00    +0.211 HD
ENDBRANCH  14  28
TORSDOF 3
ENDMDL
MODEL 5
REMARK VINA RESULT:      -6.0      1.873      6.833
REMARK  Name = 10317383
REMARK  3 active torsions:
REMARK  status: ('A' for Active; 'I' for Inactive)
REMARK    1  A    between atoms: C_10  and  C_23
REMARK    2  A    between atoms: C_13  and  O_26
REMARK    3  A    between atoms: C_14  and  O_28
REMARK                            x       y       z     vdW  Elec       q    Type
REMARK                         _______ _______ _______ _____ _____    ______ ____
ROOT
ATOM      1  O   UNL     1      34.445 -25.057 -11.920  0.00  0.00    -0.351 OA
ATOM      2  O   UNL     1      35.039 -26.212 -15.003  0.00  0.00    -0.351 OA
ATOM      3  O   UNL     1      37.034 -22.865 -13.027  0.00  0.00    -0.351 OA
ATOM      4  O   UNL     1      30.177 -22.182 -17.073  0.00  0.00    -0.441 OA
ATOM      5  O   UNL     1      28.615 -21.906 -15.404  0.00  0.00    -0.245 OA
ATOM      6  C   UNL     1      34.405 -24.491 -13.240  0.00  0.00    +0.149 C 
ATOM      7  C   UNL     1      35.461 -25.068 -14.234  0.00  0.00    +0.169 C 
ATOM      8  C   UNL     1      34.933 -23.714 -12.024  0.00  0.00    +0.172 C 
ATOM      9  C   UNL     1      32.985 -24.220 -13.796  0.00  0.00    +0.054 C 
ATOM     10  C   UNL     1      37.399 -24.224 -12.786  0.00  0.00    +0.147 C 
ATOM     11  C   UNL     1      36.424 -23.511 -11.890  0.00  0.00    +0.172 C 
ATOM     12  C   UNL     1      35.172 -24.991 -15.730  0.00  0.00    +0.147 C 
ATOM     13  C   UNL     1      36.906 -25.232 -13.778  0.00  0.00    +0.167 C 
ATOM     14  C   UNL     1      33.154 -23.541 -15.224  0.00  0.00    +0.111 C 
ATOM     15  C   UNL     1      33.862 -24.462 -16.241  0.00  0.00    +0.063 C 
ATOM     16  C   UNL     1      32.143 -23.251 -12.900  0.00  0.00    +0.010 C 
ATOM     17  C   UNL     1      32.216 -25.570 -13.866  0.00  0.00    +0.005 C 
ATOM     18  C   UNL     1      31.831 -23.025 -15.732  0.00  0.00    +0.025 C 
ATOM     19  C   UNL     1      30.744 -22.946 -13.468  0.00  0.00    +0.033 C 
ATOM     20  C   UNL     1      30.790 -22.774 -14.939  0.00  0.00    +0.051 C 
ATOM     21  C   UNL     1      31.528 -22.663 -17.129  0.00  0.00    +0.233 C 
ATOM     22  C   UNL     1      29.723 -22.243 -15.785  0.00  0.00    +0.337 C 
ENDROOT
BRANCH  10  23
ATOM     23  C   UNL     1      38.815 -24.352 -12.338  0.00  0.00    +0.030 C 
ATOM     24  C   UNL     1      39.697 -24.955 -13.439  0.00  0.00    +0.003 C 
ATOM     25  C   UNL     1      39.385 -23.000 -11.894  0.00  0.00    +0.003 C 
ENDBRANCH  10  23
BRANCH  13  26
ATOM     26  O   UNL     1      37.027 -26.534 -13.191  0.00  0.00    -0.379 OA
ATOM     27  H   UNL     1      37.594 -26.485 -12.407  0.00  0.00    +0.211 HD
ENDBRANCH  13  26
BRANCH  14  28
ATOM     28  O   UNL     1      34.009 -22.384 -15.104  0.00  0.00    -0.383 OA
ATOM     29  H   UNL     1      33.466 -21.594 -14.954  0.00  0.00    +0.211 HD
ENDBRANCH  14  28
TORSDOF 3
ENDMDL
MODEL 6
REMARK VINA RESULT:      -6.0     16.329     19.105
REMARK  Name = 10317383
REMARK  3 active torsions:
REMARK  status: ('A' for Active; 'I' for Inactive)
REMARK    1  A    between atoms: C_10  and  C_23
REMARK    2  A    between atoms: C_13  and  O_26
REMARK    3  A    between atoms: C_14  and  O_28
REMARK                            x       y       z     vdW  Elec       q    Type
REMARK                         _______ _______ _______ _____ _____    ______ ____
ROOT
ATOM      1  O   UNL     1      35.319 -10.130 -24.001  0.00  0.00    -0.351 OA
ATOM      2  O   UNL     1      32.786 -10.473 -21.842  0.00  0.00    -0.351 OA
ATOM      3  O   UNL     1      32.975 -12.008 -25.928  0.00  0.00    -0.351 OA
ATOM      4  O   UNL     1      30.554  -4.623 -24.069  0.00  0.00    -0.441 OA
ATOM      5  O   UNL     1      32.319  -3.311 -24.750  0.00  0.00    -0.245 OA
ATOM      6  C   UNL     1      33.926  -9.773 -24.005  0.00  0.00    +0.149 C 
ATOM      7  C   UNL     1      32.992 -10.761 -23.238  0.00  0.00    +0.169 C 
ATOM      8  C   UNL     1      34.646 -10.307 -25.253  0.00  0.00    +0.172 C 
ATOM      9  C   UNL     1      33.637  -8.260 -23.846  0.00  0.00    +0.054 C 
ATOM     10  C   UNL     1      33.590 -12.679 -24.828  0.00  0.00    +0.147 C 
ATOM     11  C   UNL     1      34.371 -11.726 -25.692  0.00  0.00    +0.172 C 
ATOM     12  C   UNL     1      31.666 -10.237 -22.696  0.00  0.00    +0.147 C 
ATOM     13  C   UNL     1      33.149 -12.261 -23.460  0.00  0.00    +0.167 C 
ATOM     14  C   UNL     1      32.061  -8.063 -23.941  0.00  0.00    +0.111 C 
ATOM     15  C   UNL     1      31.304  -8.783 -22.805  0.00  0.00    +0.063 C 
ATOM     16  C   UNL     1      34.298  -7.381 -24.962  0.00  0.00    +0.010 C 
ATOM     17  C   UNL     1      34.215  -7.786 -22.483  0.00  0.00    +0.005 C 
ATOM     18  C   UNL     1      31.708  -6.601 -24.038  0.00  0.00    +0.025 C 
ATOM     19  C   UNL     1      33.980  -5.880 -24.833  0.00  0.00    +0.033 C 
ATOM     20  C   UNL     1      32.570  -5.664 -24.431  0.00  0.00    +0.051 C 
ATOM     21  C   UNL     1      30.375  -6.020 -23.791  0.00  0.00    +0.233 C 
ATOM     22  C   UNL     1      31.848  -4.393 -24.447  0.00  0.00    +0.337 C 
ENDROOT
BRANCH  10  23
ATOM     23  C   UNL     1      33.733 -14.142 -25.075  0.00  0.00    +0.030 C 
ATOM     24  C   UNL     1      33.444 -14.954 -23.806  0.00  0.00    +0.003 C 
ATOM     25  C   UNL     1      32.817 -14.609 -26.213  0.00  0.00    +0.003 C 
ENDBRANCH  10  23
BRANCH  13  26
ATOM     26  O   UNL     1      34.113 -12.737 -22.513  0.00  0.00    -0.379 OA
ATOM     27  H   UNL     1      34.793 -13.252 -22.973  0.00  0.00    +0.211 HD
ENDBRANCH  13  26
BRANCH  14  28
ATOM     28  O   UNL     1      31.578  -8.668 -25.159  0.00  0.00    -0.383 OA
ATOM     29  H   UNL     1      32.277  -8.647 -25.831  0.00  0.00    +0.211 HD
ENDBRANCH  14  28
TORSDOF 3
ENDMDL
MODEL 7
REMARK VINA RESULT:      -5.6      2.547      4.731
REMARK  Name = 10317383
REMARK  3 active torsions:
REMARK  status: ('A' for Active; 'I' for Inactive)
REMARK    1  A    between atoms: C_10  and  C_23
REMARK    2  A    between atoms: C_13  and  O_26
REMARK    3  A    between atoms: C_14  and  O_28
REMARK                            x       y       z     vdW  Elec       q    Type
REMARK                         _______ _______ _______ _____ _____    ______ ____
ROOT
ATOM      1  O   UNL     1      31.751 -23.751 -17.114  0.00  0.00    -0.351 OA
ATOM      2  O   UNL     1      31.082 -26.036 -14.763  0.00  0.00    -0.351 OA
ATOM      3  O   UNL     1      29.433 -21.999 -15.041  0.00  0.00    -0.351 OA
ATOM      4  O   UNL     1      36.386 -23.720 -11.497  0.00  0.00    -0.441 OA
ATOM      5  O   UNL     1      37.943 -22.912 -12.988  0.00  0.00    -0.245 OA
ATOM      6  C   UNL     1      31.872 -23.799 -15.682  0.00  0.00    +0.149 C 
ATOM      7  C   UNL     1      30.776 -24.641 -14.958  0.00  0.00    +0.169 C 
ATOM      8  C   UNL     1      31.414 -22.538 -16.430  0.00  0.00    +0.172 C 
ATOM      9  C   UNL     1      33.322 -23.920 -15.150  0.00  0.00    +0.054 C 
ATOM     10  C   UNL     1      28.919 -23.091 -15.804  0.00  0.00    +0.147 C 
ATOM     11  C   UNL     1      29.952 -22.160 -16.378  0.00  0.00    +0.172 C 
ATOM     12  C   UNL     1      31.095 -25.228 -13.587  0.00  0.00    +0.147 C 
ATOM     13  C   UNL     1      29.314 -24.464 -15.354  0.00  0.00    +0.167 C 
ATOM     14  C   UNL     1      33.251 -23.893 -13.562  0.00  0.00    +0.111 C 
ATOM     15  C   UNL     1      32.462 -25.087 -12.982  0.00  0.00    +0.063 C 
ATOM     16  C   UNL     1      34.251 -22.746 -15.609  0.00  0.00    +0.010 C 
ATOM     17  C   UNL     1      33.941 -25.238 -15.696  0.00  0.00    +0.005 C 
ATOM     18  C   UNL     1      34.629 -23.763 -12.965  0.00  0.00    +0.025 C 
ATOM     19  C   UNL     1      35.683 -22.839 -15.050  0.00  0.00    +0.033 C 
ATOM     20  C   UNL     1      35.679 -23.299 -13.642  0.00  0.00    +0.051 C 
ATOM     21  C   UNL     1      34.991 -24.052 -11.565  0.00  0.00    +0.233 C 
ATOM     22  C   UNL     1      36.811 -23.274 -12.717  0.00  0.00    +0.337 C 
ENDROOT
BRANCH  10  23
ATOM     23  C   UNL     1      27.491 -22.887 -16.179  0.00  0.00    +0.030 C 
ATOM     24  C   UNL     1      26.773 -21.979 -15.173  0.00  0.00    +0.003 C 
ATOM     25  C   UNL     1      27.362 -22.306 -17.592  0.00  0.00    +0.003 C 
ENDBRANCH  10  23
BRANCH  13  26
ATOM     26  O   UNL     1      29.044 -25.380 -16.423  0.00  0.00    -0.379 OA
ATOM     27  H   UNL     1      29.835 -25.476 -16.975  0.00  0.00    +0.211 HD
ENDBRANCH  13  26
BRANCH  14  28
ATOM     28  O   UNL     1      32.525 -22.720 -13.137  0.00  0.00    -0.383 OA
ATOM     29  H   UNL     1      31.669 -22.686 -13.593  0.00  0.00    +0.211 HD
ENDBRANCH  14  28
TORSDOF 3
ENDMDL
MODEL 8
REMARK VINA RESULT:      -5.5     15.433     17.713
REMARK  Name = 10317383
REMARK  3 active torsions:
REMARK  status: ('A' for Active; 'I' for Inactive)
REMARK    1  A    between atoms: C_10  and  C_23
REMARK    2  A    between atoms: C_13  and  O_26
REMARK    3  A    between atoms: C_14  and  O_28
REMARK                            x       y       z     vdW  Elec       q    Type
REMARK                         _______ _______ _______ _____ _____    ______ ____
ROOT
ATOM      1  O   UNL     1      32.729 -10.179 -21.875  0.00  0.00    -0.351 OA
ATOM      2  O   UNL     1      35.393  -9.447 -23.763  0.00  0.00    -0.351 OA
ATOM      3  O   UNL     1      31.345  -7.865 -24.214  0.00  0.00    -0.351 OA
ATOM      4  O   UNL     1      33.807 -14.749 -27.442  0.00  0.00    -0.441 OA
ATOM      5  O   UNL     1      32.768 -16.335 -26.136  0.00  0.00    -0.245 OA
ATOM      6  C   UNL     1      33.041 -10.283 -23.275  0.00  0.00    +0.149 C 
ATOM      7  C   UNL     1      33.981  -9.165 -23.823  0.00  0.00    +0.169 C 
ATOM      8  C   UNL     1      31.655  -9.854 -22.766  0.00  0.00    +0.172 C 
ATOM      9  C   UNL     1      33.282 -11.724 -23.788  0.00  0.00    +0.054 C 
ATOM     10  C   UNL     1      32.270  -7.343 -23.260  0.00  0.00    +0.147 C 
ATOM     11  C   UNL     1      31.268  -8.397 -22.874  0.00  0.00    +0.172 C 
ATOM     12  C   UNL     1      34.814  -9.459 -25.067  0.00  0.00    +0.147 C 
ATOM     13  C   UNL     1      33.708  -7.711 -23.454  0.00  0.00    +0.167 C 
ATOM     14  C   UNL     1      33.544 -11.635 -25.354  0.00  0.00    +0.111 C 
ATOM     15  C   UNL     1      34.810 -10.821 -25.699  0.00  0.00    +0.063 C 
ATOM     16  C   UNL     1      32.060 -12.677 -23.559  0.00  0.00    +0.010 C 
ATOM     17  C   UNL     1      34.489 -12.328 -23.015  0.00  0.00    +0.005 C 
ATOM     18  C   UNL     1      33.550 -13.009 -25.976  0.00  0.00    +0.025 C 
ATOM     19  C   UNL     1      32.280 -14.101 -24.103  0.00  0.00    +0.033 C 
ATOM     20  C   UNL     1      32.989 -14.074 -25.404  0.00  0.00    +0.051 C 
ATOM     21  C   UNL     1      34.097 -13.350 -27.302  0.00  0.00    +0.233 C 
ATOM     22  C   UNL     1      33.154 -15.195 -26.327  0.00  0.00    +0.337 C 
ENDROOT
BRANCH  10  23
ATOM     23  C   UNL     1      31.976  -5.923 -22.917  0.00  0.00    +0.030 C 
ATOM     24  C   UNL     1      31.145  -5.243 -24.012  0.00  0.00    +0.003 C 
ATOM     25  C   UNL     1      31.253  -5.812 -21.569  0.00  0.00    +0.003 C 
ENDBRANCH  10  23
BRANCH  13  26
ATOM     26  O   UNL     1      34.409  -7.438 -22.234  0.00  0.00    -0.379 OA
ATOM     27  H   UNL     1      33.868  -6.865 -21.671  0.00  0.00    +0.211 HD
ENDBRANCH  13  26
BRANCH  14  28
ATOM     28  O   UNL     1      32.455 -10.923 -25.980  0.00  0.00    -0.383 OA
ATOM     29  H   UNL     1      31.722 -10.836 -25.351  0.00  0.00    +0.211 HD
ENDBRANCH  14  28
TORSDOF 3
ENDMDL
MODEL 9
REMARK VINA RESULT:      -5.0     11.872     14.799
REMARK  Name = 10317383
REMARK  3 active torsions:
REMARK  status: ('A' for Active; 'I' for Inactive)
REMARK    1  A    between atoms: C_10  and  C_23
REMARK    2  A    between atoms: C_13  and  O_26
REMARK    3  A    between atoms: C_14  and  O_28
REMARK                            x       y       z     vdW  Elec       q    Type
REMARK                         _______ _______ _______ _____ _____    ______ ____
ROOT
ATOM      1  O   UNL     1      31.920 -15.494 -21.665  0.00  0.00    -0.351 OA
ATOM      2  O   UNL     1      33.421 -15.299 -24.649  0.00  0.00    -0.351 OA
ATOM      3  O   UNL     1      35.366 -15.708 -20.758  0.00  0.00    -0.351 OA
ATOM      4  O   UNL     1      33.214  -8.696 -23.930  0.00  0.00    -0.441 OA
ATOM      5  O   UNL     1      31.385  -8.094 -22.669  0.00  0.00    -0.245 OA
ATOM      6  C   UNL     1      32.886 -14.611 -22.259  0.00  0.00    +0.149 C 
ATOM      7  C   UNL     1      33.857 -15.289 -23.276  0.00  0.00    +0.169 C 
ATOM      8  C   UNL     1      32.972 -15.064 -20.793  0.00  0.00    +0.172 C 
ATOM      9  C   UNL     1      32.352 -13.203 -22.622  0.00  0.00    +0.054 C 
ATOM     10  C   UNL     1      34.813 -16.822 -21.459  0.00  0.00    +0.147 C 
ATOM     11  C   UNL     1      34.016 -16.089 -20.415  0.00  0.00    +0.172 C 
ATOM     12  C   UNL     1      34.507 -14.422 -24.351  0.00  0.00    +0.147 C 
ATOM     13  C   UNL     1      34.515 -16.615 -22.912  0.00  0.00    +0.167 C 
ATOM     14  C   UNL     1      33.574 -12.364 -23.199  0.00  0.00    +0.111 C 
ATOM     15  C   UNL     1      34.150 -12.970 -24.497  0.00  0.00    +0.063 C 
ATOM     16  C   UNL     1      31.773 -12.424 -21.393  0.00  0.00    +0.010 C 
ATOM     17  C   UNL     1      31.199 -13.363 -23.653  0.00  0.00    +0.005 C 
ATOM     18  C   UNL     1      33.202 -10.911 -23.353  0.00  0.00    +0.025 C 
ATOM     19  C   UNL     1      31.277 -11.008 -21.740  0.00  0.00    +0.033 C 
ATOM     20  C   UNL     1      32.188 -10.342 -22.701  0.00  0.00    +0.051 C 
ATOM     21  C   UNL     1      33.929  -9.918 -24.165  0.00  0.00    +0.233 C 
ATOM     22  C   UNL     1      32.179  -8.928 -23.068  0.00  0.00    +0.337 C 
ENDROOT
BRANCH  10  23
ATOM     23  C   UNL     1      35.473 -18.104 -21.081  0.00  0.00    +0.030 C 
ATOM     24  C   UNL     1      34.454 -19.246 -20.971  0.00  0.00    +0.003 C 
ATOM     25  C   UNL     1      36.575 -18.481 -22.077  0.00  0.00    +0.003 C 
ENDBRANCH  10  23
BRANCH  13  26
ATOM     26  O   UNL     1      33.637 -17.662 -23.343  0.00  0.00    -0.379 OA
ATOM     27  H   UNL     1      34.132 -18.300 -23.880  0.00  0.00    +0.211 HD
ENDBRANCH  13  26
BRANCH  14  28
ATOM     28  O   UNL     1      34.663 -12.395 -22.252  0.00  0.00    -0.383 OA
ATOM     29  H   UNL     1      34.498 -13.085 -21.591  0.00  0.00    +0.211 HD
ENDBRANCH  14  28
TORSDOF 3
ENDMDL
