MODEL 1
REMARK VINA RESULT:     -10.2      0.000      0.000
REMARK  Name = 2396
REMARK  6 active torsions:
REMARK  status: ('A' for Active; 'I' for Inactive)
REMARK    1  A    between atoms: C_4  and  C_20
REMARK    2  A    between atoms: C_5  and  C_10
REMARK    3  A    between atoms: N_19  and  C_28
REMARK    4  A    between atoms: C_28  and  C_29
REMARK    5  A    between atoms: C_29  and  C_30
REMARK    6  A    between atoms: C_30  and  N_31
REMARK                            x       y       z     vdW  Elec       q    Type
REMARK                         _______ _______ _______ _____ _____    ______ ____
ROOT
ATOM      1  O   UNL     1      30.774 -22.624 -16.164  0.00  0.00    -0.270 OA
ATOM      2  O   UNL     1      32.273 -25.374 -12.825  0.00  0.00    -0.270 OA
ATOM      3  N   UNL     1      31.161 -24.009 -14.341  0.00  0.00    -0.248 N 
ATOM      4  C   UNL     1      32.944 -23.555 -15.690  0.00  0.00    +0.059 C 
ATOM      5  C   UNL     1      33.388 -24.355 -14.702  0.00  0.00    +0.059 C 
ATOM      6  C   UNL     1      31.496 -23.318 -15.466  0.00  0.00    +0.252 C 
ATOM      7  C   UNL     1      32.236 -24.663 -13.815  0.00  0.00    +0.252 C 
ATOM      8  H   UNL     1      30.256 -24.035 -13.954  0.00  0.00    +0.158 HD
ENDROOT
BRANCH   5  10
ATOM      9  N   UNL     1      36.530 -26.106 -14.734  0.00  0.00    -0.312 N 
ATOM     10  C   UNL     1      34.697 -24.881 -14.475  0.00  0.00    +0.020 C 
ATOM     11  C   UNL     1      35.620 -24.522 -13.454  0.00  0.00    +0.015 C 
ATOM     12  C   UNL     1      36.762 -25.305 -13.639  0.00  0.00    +0.048 C 
ATOM     13  C   UNL     1      35.286 -25.857 -15.247  0.00  0.00    +0.062 C 
ATOM     14  C   UNL     1      35.594 -23.603 -12.385  0.00  0.00    +0.001 C 
ATOM     15  C   UNL     1      37.883 -25.213 -12.806  0.00  0.00    +0.015 C 
ATOM     16  C   UNL     1      36.708 -23.501 -11.545  0.00  0.00    +0.000 C 
ATOM     17  C   UNL     1      37.834 -24.294 -11.754  0.00  0.00    +0.001 C 
ATOM     18  H   UNL     1      37.169 -26.762 -15.097  0.00  0.00    +0.152 HD
ENDBRANCH   5  10
BRANCH   4  20
ATOM     19  N   UNL     1      34.108 -22.188 -18.812  0.00  0.00    -0.286 N 
ATOM     20  C   UNL     1      33.662 -22.974 -16.780  0.00  0.00    +0.021 C 
ATOM     21  C   UNL     1      35.265 -22.030 -18.083  0.00  0.00    +0.052 C 
ATOM     22  C   UNL     1      35.013 -22.517 -16.799  0.00  0.00    +0.015 C 
ATOM     23  C   UNL     1      33.134 -22.756 -18.034  0.00  0.00    +0.066 C 
ATOM     24  C   UNL     1      36.504 -21.498 -18.459  0.00  0.00    +0.015 C 
ATOM     25  C   UNL     1      36.046 -22.473 -15.841  0.00  0.00    +0.001 C 
ATOM     26  C   UNL     1      37.513 -21.464 -17.493  0.00  0.00    +0.001 C 
ATOM     27  C   UNL     1      37.290 -21.944 -16.203  0.00  0.00    +0.000 C 
BRANCH  19  28
ATOM     28  C   UNL     1      33.928 -21.812 -20.197  0.00  0.00    +0.093 C 
BRANCH  28  29
ATOM     29  C   UNL     1      33.376 -20.394 -20.343  0.00  0.00    -0.001 C 
BRANCH  29  30
ATOM     30  C   UNL     1      34.123 -19.624 -21.428  0.00  0.00    -0.076 C 
BRANCH  30  31
ATOM     31  N   UNL     1      34.977 -18.604 -20.831  0.00  0.00    +0.384 N 
ATOM     32  C   UNL     1      34.580 -17.270 -21.286  0.00  0.00    -0.101 C 
ATOM     33  C   UNL     1      36.383 -18.853 -21.155  0.00  0.00    -0.101 C 
ATOM     34  H   UNL     1      34.865 -18.647 -19.818  0.00  0.00    -0.080 HD
ENDBRANCH  30  31
ENDBRANCH  29  30
ENDBRANCH  28  29
ENDBRANCH  19  28
ENDBRANCH   4  20
TORSDOF 6
ENDMDL
MODEL 2
REMARK VINA RESULT:     -10.1     10.187     14.442
REMARK  Name = 2396
REMARK  6 active torsions:
REMARK  status: ('A' for Active; 'I' for Inactive)
REMARK    1  A    between atoms: C_4  and  C_20
REMARK    2  A    between atoms: C_5  and  C_10
REMARK    3  A    between atoms: N_19  and  C_28
REMARK    4  A    between atoms: C_28  and  C_29
REMARK    5  A    between atoms: C_29  and  C_30
REMARK    6  A    between atoms: C_30  and  N_31
REMARK                            x       y       z     vdW  Elec       q    Type
REMARK                         _______ _______ _______ _____ _____    ______ ____
ROOT
ATOM      1  O   UNL     1      32.932 -14.368 -21.148  0.00  0.00    -0.270 OA
ATOM      2  O   UNL     1      30.938 -10.705 -19.261  0.00  0.00    -0.270 OA
ATOM      3  N   UNL     1      31.897 -12.733 -19.865  0.00  0.00    -0.248 N 
ATOM      4  C   UNL     1      32.414 -12.183 -22.018  0.00  0.00    +0.059 C 
ATOM      5  C   UNL     1      31.818 -11.109 -21.467  0.00  0.00    +0.059 C 
ATOM      6  C   UNL     1      32.470 -13.251 -20.988  0.00  0.00    +0.252 C 
ATOM      7  C   UNL     1      31.477 -11.450 -20.062  0.00  0.00    +0.252 C 
ATOM      8  H   UNL     1      31.798 -13.223 -19.017  0.00  0.00    +0.158 HD
ENDROOT
BRANCH   5  10
ATOM      9  N   UNL     1      30.785  -8.289 -23.448  0.00  0.00    -0.312 N 
ATOM     10  C   UNL     1      31.540  -9.829 -22.039  0.00  0.00    +0.020 C 
ATOM     11  C   UNL     1      31.892  -8.548 -21.529  0.00  0.00    +0.015 C 
ATOM     12  C   UNL     1      31.407  -7.600 -22.432  0.00  0.00    +0.048 C 
ATOM     13  C   UNL     1      30.860  -9.637 -23.219  0.00  0.00    +0.062 C 
ATOM     14  C   UNL     1      32.580  -8.102 -20.383  0.00  0.00    +0.001 C 
ATOM     15  C   UNL     1      31.576  -6.223 -22.245  0.00  0.00    +0.015 C 
ATOM     16  C   UNL     1      32.756  -6.728 -20.183  0.00  0.00    +0.000 C 
ATOM     17  C   UNL     1      32.261  -5.805 -21.100  0.00  0.00    +0.001 C 
ATOM     18  H   UNL     1      30.349  -7.873 -24.227  0.00  0.00    +0.152 HD
ENDBRANCH   5  10
BRANCH   4  20
ATOM     19  N   UNL     1      33.277 -13.282 -25.338  0.00  0.00    -0.286 N 
ATOM     20  C   UNL     1      32.913 -12.365 -23.345  0.00  0.00    +0.021 C 
ATOM     21  C   UNL     1      33.979 -12.098 -25.333  0.00  0.00    +0.052 C 
ATOM     22  C   UNL     1      33.767 -11.499 -24.090  0.00  0.00    +0.015 C 
ATOM     23  C   UNL     1      32.630 -13.452 -24.143  0.00  0.00    +0.066 C 
ATOM     24  C   UNL     1      34.777 -11.517 -26.325  0.00  0.00    +0.015 C 
ATOM     25  C   UNL     1      34.380 -10.259 -23.820  0.00  0.00    +0.001 C 
ATOM     26  C   UNL     1      35.375 -10.287 -26.035  0.00  0.00    +0.001 C 
ATOM     27  C   UNL     1      35.181  -9.666 -24.803  0.00  0.00    +0.000 C 
BRANCH  19  28
ATOM     28  C   UNL     1      33.219 -14.222 -26.436  0.00  0.00    +0.093 C 
BRANCH  28  29
ATOM     29  C   UNL     1      33.065 -15.664 -25.954  0.00  0.00    -0.001 C 
BRANCH  29  30
ATOM     30  C   UNL     1      34.412 -16.249 -25.536  0.00  0.00    -0.076 C 
BRANCH  30  31
ATOM     31  N   UNL     1      34.294 -16.924 -24.250  0.00  0.00    +0.384 N 
ATOM     32  C   UNL     1      35.110 -16.249 -23.238  0.00  0.00    -0.101 C 
ATOM     33  C   UNL     1      34.691 -18.329 -24.365  0.00  0.00    -0.101 C 
ATOM     34  H   UNL     1      33.318 -16.886 -23.957  0.00  0.00    -0.080 HD
ENDBRANCH  30  31
ENDBRANCH  29  30
ENDBRANCH  28  29
ENDBRANCH  19  28
ENDBRANCH   4  20
TORSDOF 6
ENDMDL
MODEL 3
REMARK VINA RESULT:      -9.4      8.541     13.252
REMARK  Name = 2396
REMARK  6 active torsions:
REMARK  status: ('A' for Active; 'I' for Inactive)
REMARK    1  A    between atoms: C_4  and  C_20
REMARK    2  A    between atoms: C_5  and  C_10
REMARK    3  A    between atoms: N_19  and  C_28
REMARK    4  A    between atoms: C_28  and  C_29
REMARK    5  A    between atoms: C_29  and  C_30
REMARK    6  A    between atoms: C_30  and  N_31
REMARK                            x       y       z     vdW  Elec       q    Type
REMARK                         _______ _______ _______ _____ _____    ______ ____
ROOT
ATOM      1  O   UNL     1      32.716 -13.008 -27.363  0.00  0.00    -0.270 OA
ATOM      2  O   UNL     1      33.410 -17.233 -25.743  0.00  0.00    -0.270 OA
ATOM      3  N   UNL     1      33.009 -15.267 -26.914  0.00  0.00    -0.248 N 
ATOM      4  C   UNL     1      33.214 -13.830 -25.154  0.00  0.00    +0.059 C 
ATOM      5  C   UNL     1      33.408 -15.074 -24.676  0.00  0.00    +0.059 C 
ATOM      6  C   UNL     1      32.950 -13.940 -26.611  0.00  0.00    +0.252 C 
ATOM      7  C   UNL     1      33.281 -16.023 -25.812  0.00  0.00    +0.252 C 
ATOM      8  H   UNL     1      32.874 -15.637 -27.817  0.00  0.00    +0.158 HD
ENDROOT
BRANCH   5  10
ATOM      9  N   UNL     1      33.685 -15.597 -21.127  0.00  0.00    -0.312 N 
ATOM     10  C   UNL     1      33.707 -15.500 -23.345  0.00  0.00    +0.020 C 
ATOM     11  C   UNL     1      34.577 -16.550 -22.937  0.00  0.00    +0.015 C 
ATOM     12  C   UNL     1      34.545 -16.589 -21.541  0.00  0.00    +0.048 C 
ATOM     13  C   UNL     1      33.173 -14.934 -22.210  0.00  0.00    +0.062 C 
ATOM     14  C   UNL     1      35.391 -17.473 -23.623  0.00  0.00    +0.001 C 
ATOM     15  C   UNL     1      35.289 -17.510 -20.795  0.00  0.00    +0.015 C 
ATOM     16  C   UNL     1      36.141 -18.399 -22.889  0.00  0.00    +0.000 C 
ATOM     17  C   UNL     1      36.089 -18.416 -21.497  0.00  0.00    +0.001 C 
ATOM     18  H   UNL     1      33.469 -15.394 -20.188  0.00  0.00    +0.152 HD
ENDBRANCH   5  10
BRANCH   4  20
ATOM     19  N   UNL     1      32.705 -11.004 -22.980  0.00  0.00    -0.286 N 
ATOM     20  C   UNL     1      33.219 -12.579 -24.463  0.00  0.00    +0.021 C 
ATOM     21  C   UNL     1      33.663 -10.452 -23.801  0.00  0.00    +0.052 C 
ATOM     22  C   UNL     1      34.005 -11.423 -24.744  0.00  0.00    +0.015 C 
ATOM     23  C   UNL     1      32.430 -12.287 -23.372  0.00  0.00    +0.066 C 
ATOM     24  C   UNL     1      34.247  -9.181 -23.780  0.00  0.00    +0.015 C 
ATOM     25  C   UNL     1      34.977 -11.112 -25.716  0.00  0.00    +0.001 C 
ATOM     26  C   UNL     1      35.209  -8.895 -24.753  0.00  0.00    +0.001 C 
ATOM     27  C   UNL     1      35.570  -9.844 -25.707  0.00  0.00    +0.000 C 
BRANCH  19  28
ATOM     28  C   UNL     1      32.071 -10.341 -21.862  0.00  0.00    +0.093 C 
BRANCH  28  29
ATOM     29  C   UNL     1      31.229  -9.144 -22.304  0.00  0.00    -0.001 C 
BRANCH  29  30
ATOM     30  C   UNL     1      31.748  -7.849 -21.685  0.00  0.00    -0.076 C 
BRANCH  30  31
ATOM     31  N   UNL     1      31.614  -6.746 -22.629  0.00  0.00    +0.384 N 
ATOM     32  C   UNL     1      30.755  -5.697 -22.076  0.00  0.00    -0.101 C 
ATOM     33  C   UNL     1      31.077  -7.221 -23.905  0.00  0.00    -0.101 C 
ATOM     34  H   UNL     1      32.541  -6.353 -22.793  0.00  0.00    -0.080 HD
ENDBRANCH  30  31
ENDBRANCH  29  30
ENDBRANCH  28  29
ENDBRANCH  19  28
ENDBRANCH   4  20
TORSDOF 6
ENDMDL
MODEL 4
REMARK VINA RESULT:      -9.0      8.628     13.355
REMARK  Name = 2396
REMARK  6 active torsions:
REMARK  status: ('A' for Active; 'I' for Inactive)
REMARK    1  A    between atoms: C_4  and  C_20
REMARK    2  A    between atoms: C_5  and  C_10
REMARK    3  A    between atoms: N_19  and  C_28
REMARK    4  A    between atoms: C_28  and  C_29
REMARK    5  A    between atoms: C_29  and  C_30
REMARK    6  A    between atoms: C_30  and  N_31
REMARK                            x       y       z     vdW  Elec       q    Type
REMARK                         _______ _______ _______ _____ _____    ______ ____
ROOT
ATOM      1  O   UNL     1      32.790 -12.590 -27.295  0.00  0.00    -0.270 OA
ATOM      2  O   UNL     1      33.612 -16.798 -25.691  0.00  0.00    -0.270 OA
ATOM      3  N   UNL     1      33.121 -14.845 -26.848  0.00  0.00    -0.248 N 
ATOM      4  C   UNL     1      33.452 -13.390 -25.122  0.00  0.00    +0.059 C 
ATOM      5  C   UNL     1      33.683 -14.629 -24.647  0.00  0.00    +0.059 C 
ATOM      6  C   UNL     1      33.081 -13.515 -26.554  0.00  0.00    +0.252 C 
ATOM      7  C   UNL     1      33.475 -15.589 -25.762  0.00  0.00    +0.252 C 
ATOM      8  H   UNL     1      32.921 -15.223 -27.735  0.00  0.00    +0.158 HD
ENDROOT
BRANCH   5  10
ATOM      9  N   UNL     1      34.466 -14.974 -21.153  0.00  0.00    -0.312 N 
ATOM     10  C   UNL     1      34.080 -15.042 -23.338  0.00  0.00    +0.020 C 
ATOM     11  C   UNL     1      34.614 -16.300 -22.941  0.00  0.00    +0.015 C 
ATOM     12  C   UNL     1      34.847 -16.231 -21.566  0.00  0.00    +0.048 C 
ATOM     13  C   UNL     1      34.000 -14.249 -22.216  0.00  0.00    +0.062 C 
ATOM     14  C   UNL     1      34.923 -17.494 -23.622  0.00  0.00    +0.001 C 
ATOM     15  C   UNL     1      35.376 -17.301 -20.835  0.00  0.00    +0.015 C 
ATOM     16  C   UNL     1      35.452 -18.572 -22.904  0.00  0.00    +0.000 C 
ATOM     17  C   UNL     1      35.674 -18.476 -21.533  0.00  0.00    +0.001 C 
ATOM     18  H   UNL     1      34.520 -14.646 -20.226  0.00  0.00    +0.152 HD
ENDBRANCH   5  10
BRANCH   4  20
ATOM     19  N   UNL     1      34.134 -10.069 -23.908  0.00  0.00    -0.286 N 
ATOM     20  C   UNL     1      33.504 -12.132 -24.445  0.00  0.00    +0.021 C 
ATOM     21  C   UNL     1      33.122 -10.395 -23.033  0.00  0.00    +0.052 C 
ATOM     22  C   UNL     1      32.707 -11.690 -23.349  0.00  0.00    +0.015 C 
ATOM     23  C   UNL     1      34.373 -11.111 -24.764  0.00  0.00    +0.066 C 
ATOM     24  C   UNL     1      32.549  -9.650 -21.997  0.00  0.00    +0.015 C 
ATOM     25  C   UNL     1      31.668 -12.272 -22.596  0.00  0.00    +0.001 C 
ATOM     26  C   UNL     1      31.520 -10.247 -21.264  0.00  0.00    +0.001 C 
ATOM     27  C   UNL     1      31.085 -11.538 -21.556  0.00  0.00    +0.000 C 
BRANCH  19  28
ATOM     28  C   UNL     1      34.852  -8.813 -23.934  0.00  0.00    +0.093 C 
BRANCH  28  29
ATOM     29  C   UNL     1      34.065  -7.685 -23.268  0.00  0.00    -0.001 C 
BRANCH  29  30
ATOM     30  C   UNL     1      33.472  -6.741 -24.310  0.00  0.00    -0.076 C 
BRANCH  30  31
ATOM     31  N   UNL     1      32.181  -6.235 -23.860  0.00  0.00    +0.384 N 
ATOM     32  C   UNL     1      32.181  -6.043 -22.408  0.00  0.00    -0.101 C 
ATOM     33  C   UNL     1      31.104  -7.147 -24.250  0.00  0.00    -0.101 C 
ATOM     34  H   UNL     1      32.019  -5.332 -24.306  0.00  0.00    -0.080 HD
ENDBRANCH  30  31
ENDBRANCH  29  30
ENDBRANCH  28  29
ENDBRANCH  19  28
ENDBRANCH   4  20
TORSDOF 6
ENDMDL
MODEL 5
REMARK VINA RESULT:      -8.8      7.139     13.347
REMARK  Name = 2396
REMARK  6 active torsions:
REMARK  status: ('A' for Active; 'I' for Inactive)
REMARK    1  A    between atoms: C_4  and  C_20
REMARK    2  A    between atoms: C_5  and  C_10
REMARK    3  A    between atoms: N_19  and  C_28
REMARK    4  A    between atoms: C_28  and  C_29
REMARK    5  A    between atoms: C_29  and  C_30
REMARK    6  A    between atoms: C_30  and  N_31
REMARK                            x       y       z     vdW  Elec       q    Type
REMARK                         _______ _______ _______ _____ _____    ______ ____
ROOT
ATOM      1  O   UNL     1      32.577 -16.414 -26.356  0.00  0.00    -0.270 OA
ATOM      2  O   UNL     1      32.578 -12.062 -27.775  0.00  0.00    -0.270 OA
ATOM      3  N   UNL     1      32.414 -14.350 -27.406  0.00  0.00    -0.248 N 
ATOM      4  C   UNL     1      33.311 -14.374 -25.308  0.00  0.00    +0.059 C 
ATOM      5  C   UNL     1      33.321 -13.095 -25.730  0.00  0.00    +0.059 C 
ATOM      6  C   UNL     1      32.725 -15.204 -26.391  0.00  0.00    +0.252 C 
ATOM      7  C   UNL     1      32.736 -13.062 -27.095  0.00  0.00    +0.252 C 
ATOM      8  H   UNL     1      32.005 -14.626 -28.258  0.00  0.00    +0.158 HD
ENDROOT
BRANCH   5  10
ATOM      9  N   UNL     1      35.071 -10.226 -24.445  0.00  0.00    -0.312 N 
ATOM     10  C   UNL     1      33.769 -11.918 -25.054  0.00  0.00    +0.020 C 
ATOM     11  C   UNL     1      33.076 -11.154 -24.074  0.00  0.00    +0.015 C 
ATOM     12  C   UNL     1      33.915 -10.099 -23.708  0.00  0.00    +0.048 C 
ATOM     13  C   UNL     1      34.992 -11.322 -25.261  0.00  0.00    +0.062 C 
ATOM     14  C   UNL     1      31.812 -11.259 -23.460  0.00  0.00    +0.001 C 
ATOM     15  C   UNL     1      33.550  -9.139 -22.756  0.00  0.00    +0.015 C 
ATOM     16  C   UNL     1      31.435 -10.307 -22.506  0.00  0.00    +0.000 C 
ATOM     17  C   UNL     1      32.291  -9.264 -22.161  0.00  0.00    +0.001 C 
ATOM     18  H   UNL     1      35.842  -9.616 -24.392  0.00  0.00    +0.152 HD
ENDBRANCH   5  10
BRANCH   4  20
ATOM     19  N   UNL     1      34.954 -16.157 -22.646  0.00  0.00    -0.286 N 
ATOM     20  C   UNL     1      33.775 -14.929 -24.076  0.00  0.00    +0.021 C 
ATOM     21  C   UNL     1      34.070 -15.429 -21.880  0.00  0.00    +0.052 C 
ATOM     22  C   UNL     1      33.315 -14.647 -22.756  0.00  0.00    +0.015 C 
ATOM     23  C   UNL     1      34.784 -15.862 -23.972  0.00  0.00    +0.066 C 
ATOM     24  C   UNL     1      33.883 -15.405 -20.494  0.00  0.00    +0.015 C 
ATOM     25  C   UNL     1      32.324 -13.797 -22.225  0.00  0.00    +0.001 C 
ATOM     26  C   UNL     1      32.896 -14.555 -19.989  0.00  0.00    +0.001 C 
ATOM     27  C   UNL     1      32.127 -13.762 -20.839  0.00  0.00    +0.000 C 
BRANCH  19  28
ATOM     28  C   UNL     1      35.928 -17.099 -22.139  0.00  0.00    +0.093 C 
BRANCH  28  29
ATOM     29  C   UNL     1      35.866 -18.440 -22.870  0.00  0.00    -0.001 C 
BRANCH  29  30
ATOM     30  C   UNL     1      34.586 -19.195 -22.524  0.00  0.00    -0.076 C 
BRANCH  30  31
ATOM     31  N   UNL     1      34.483 -19.386 -21.082  0.00  0.00    +0.384 N 
ATOM     32  C   UNL     1      35.453 -20.382 -20.624  0.00  0.00    -0.101 C 
ATOM     33  C   UNL     1      33.126 -19.790 -20.710  0.00  0.00    -0.101 C 
ATOM     34  H   UNL     1      34.692 -18.497 -20.628  0.00  0.00    -0.080 HD
ENDBRANCH  30  31
ENDBRANCH  29  30
ENDBRANCH  28  29
ENDBRANCH  19  28
ENDBRANCH   4  20
TORSDOF 6
ENDMDL
MODEL 6
REMARK VINA RESULT:      -8.7      9.816     16.314
REMARK  Name = 2396
REMARK  6 active torsions:
REMARK  status: ('A' for Active; 'I' for Inactive)
REMARK    1  A    between atoms: C_4  and  C_20
REMARK    2  A    between atoms: C_5  and  C_10
REMARK    3  A    between atoms: N_19  and  C_28
REMARK    4  A    between atoms: C_28  and  C_29
REMARK    5  A    between atoms: C_29  and  C_30
REMARK    6  A    between atoms: C_30  and  N_31
REMARK                            x       y       z     vdW  Elec       q    Type
REMARK                         _______ _______ _______ _____ _____    ______ ____
ROOT
ATOM      1  O   UNL     1      32.692 -10.007 -19.299  0.00  0.00    -0.270 OA
ATOM      2  O   UNL     1      31.630  -5.709 -20.464  0.00  0.00    -0.270 OA
ATOM      3  N   UNL     1      32.156  -7.757 -19.501  0.00  0.00    -0.248 N 
ATOM      4  C   UNL     1      32.349  -8.950 -21.436  0.00  0.00    +0.059 C 
ATOM      5  C   UNL     1      32.026  -7.689 -21.779  0.00  0.00    +0.059 C 
ATOM      6  C   UNL     1      32.434  -9.011 -19.955  0.00  0.00    +0.252 C 
ATOM      7  C   UNL     1      31.900  -6.896 -20.528  0.00  0.00    +0.252 C 
ATOM      8  H   UNL     1      32.142  -7.501 -18.550  0.00  0.00    +0.158 HD
ENDROOT
BRANCH   5  10
ATOM      9  N   UNL     1      30.825  -6.350 -24.894  0.00  0.00    -0.312 N 
ATOM     10  C   UNL     1      31.840  -7.117 -23.075  0.00  0.00    +0.020 C 
ATOM     11  C   UNL     1      32.837  -6.665 -23.984  0.00  0.00    +0.015 C 
ATOM     12  C   UNL     1      32.174  -6.188 -25.117  0.00  0.00    +0.048 C 
ATOM     13  C   UNL     1      30.613  -6.910 -23.663  0.00  0.00    +0.062 C 
ATOM     14  C   UNL     1      34.245  -6.615 -23.952  0.00  0.00    +0.001 C 
ATOM     15  C   UNL     1      32.851  -5.662 -26.223  0.00  0.00    +0.015 C 
ATOM     16  C   UNL     1      34.935  -6.091 -25.051  0.00  0.00    +0.000 C 
ATOM     17  C   UNL     1      34.248  -5.622 -26.167  0.00  0.00    +0.001 C 
ATOM     18  H   UNL     1      30.115  -6.098 -25.529  0.00  0.00    +0.152 HD
ENDBRANCH   5  10
BRANCH   4  20
ATOM     19  N   UNL     1      32.378 -12.147 -23.095  0.00  0.00    -0.286 N 
ATOM     20  C   UNL     1      32.567 -10.091 -22.269  0.00  0.00    +0.021 C 
ATOM     21  C   UNL     1      33.321 -11.512 -23.872  0.00  0.00    +0.052 C 
ATOM     22  C   UNL     1      33.459 -10.215 -23.374  0.00  0.00    +0.015 C 
ATOM     23  C   UNL     1      31.917 -11.298 -22.125  0.00  0.00    +0.066 C 
ATOM     24  C   UNL     1      34.055 -11.983 -24.967  0.00  0.00    +0.015 C 
ATOM     25  C   UNL     1      34.373  -9.342 -23.998  0.00  0.00    +0.001 C 
ATOM     26  C   UNL     1      34.955 -11.100 -25.570  0.00  0.00    +0.001 C 
ATOM     27  C   UNL     1      35.114  -9.800 -25.094  0.00  0.00    +0.000 C 
BRANCH  19  28
ATOM     28  C   UNL     1      31.928 -13.511 -23.264  0.00  0.00    +0.093 C 
BRANCH  28  29
ATOM     29  C   UNL     1      32.703 -14.488 -22.380  0.00  0.00    -0.001 C 
BRANCH  29  30
ATOM     30  C   UNL     1      33.729 -15.270 -23.196  0.00  0.00    -0.076 C 
BRANCH  30  31
ATOM     31  N   UNL     1      34.819 -15.724 -22.339  0.00  0.00    +0.384 N 
ATOM     32  C   UNL     1      35.092 -17.145 -22.564  0.00  0.00    -0.101 C 
ATOM     33  C   UNL     1      34.502 -15.484 -20.930  0.00  0.00    -0.101 C 
ATOM     34  H   UNL     1      35.655 -15.192 -22.579  0.00  0.00    -0.080 HD
ENDBRANCH  30  31
ENDBRANCH  29  30
ENDBRANCH  28  29
ENDBRANCH  19  28
ENDBRANCH   4  20
TORSDOF 6
ENDMDL
MODEL 7
REMARK VINA RESULT:      -8.5     11.578     15.698
REMARK  Name = 2396
REMARK  6 active torsions:
REMARK  status: ('A' for Active; 'I' for Inactive)
REMARK    1  A    between atoms: C_4  and  C_20
REMARK    2  A    between atoms: C_5  and  C_10
REMARK    3  A    between atoms: N_19  and  C_28
REMARK    4  A    between atoms: C_28  and  C_29
REMARK    5  A    between atoms: C_29  and  C_30
REMARK    6  A    between atoms: C_30  and  N_31
REMARK                            x       y       z     vdW  Elec       q    Type
REMARK                         _______ _______ _______ _____ _____    ______ ____
ROOT
ATOM      1  O   UNL     1      31.050 -11.221 -19.464  0.00  0.00    -0.270 OA
ATOM      2  O   UNL     1      32.867 -14.691 -21.833  0.00  0.00    -0.270 OA
ATOM      3  N   UNL     1      31.901 -13.195 -20.341  0.00  0.00    -0.248 N 
ATOM      4  C   UNL     1      31.942 -11.361 -21.697  0.00  0.00    +0.059 C 
ATOM      5  C   UNL     1      32.486 -12.378 -22.390  0.00  0.00    +0.059 C 
ATOM      6  C   UNL     1      31.558 -11.877 -20.358  0.00  0.00    +0.252 C 
ATOM      7  C   UNL     1      32.464 -13.583 -21.521  0.00  0.00    +0.252 C 
ATOM      8  H   UNL     1      31.759 -13.795 -19.573  0.00  0.00    +0.158 HD
ENDROOT
BRANCH   5  10
ATOM      9  N   UNL     1      33.364 -13.061 -25.811  0.00  0.00    -0.312 N 
ATOM     10  C   UNL     1      32.998 -12.399 -23.724  0.00  0.00    +0.020 C 
ATOM     11  C   UNL     1      33.882 -11.468 -24.338  0.00  0.00    +0.015 C 
ATOM     12  C   UNL     1      34.095 -11.906 -25.646  0.00  0.00    +0.048 C 
ATOM     13  C   UNL     1      32.697 -13.366 -24.656  0.00  0.00    +0.062 C 
ATOM     14  C   UNL     1      34.524 -10.291 -23.903  0.00  0.00    +0.001 C 
ATOM     15  C   UNL     1      34.921 -11.223 -26.546  0.00  0.00    +0.015 C 
ATOM     16  C   UNL     1      35.352  -9.598 -24.793  0.00  0.00    +0.000 C 
ATOM     17  C   UNL     1      35.546 -10.057 -26.093  0.00  0.00    +0.001 C 
ATOM     18  H   UNL     1      33.325 -13.589 -26.641  0.00  0.00    +0.152 HD
ENDBRANCH   5  10
BRANCH   4  20
ATOM     19  N   UNL     1      31.187  -8.229 -23.307  0.00  0.00    -0.286 N 
ATOM     20  C   UNL     1      31.748  -9.998 -22.083  0.00  0.00    +0.021 C 
ATOM     21  C   UNL     1      31.681  -7.729 -22.122  0.00  0.00    +0.052 C 
ATOM     22  C   UNL     1      32.040  -8.822 -21.333  0.00  0.00    +0.015 C 
ATOM     23  C   UNL     1      31.224  -9.597 -23.293  0.00  0.00    +0.066 C 
ATOM     24  C   UNL     1      31.833  -6.405 -21.695  0.00  0.00    +0.015 C 
ATOM     25  C   UNL     1      32.580  -8.585 -20.052  0.00  0.00    +0.001 C 
ATOM     26  C   UNL     1      32.369  -6.195 -20.422  0.00  0.00    +0.001 C 
ATOM     27  C   UNL     1      32.738  -7.266 -19.611  0.00  0.00    +0.000 C 
BRANCH  19  28
ATOM     28  C   UNL     1      30.697  -7.438 -24.415  0.00  0.00    +0.093 C 
BRANCH  28  29
ATOM     29  C   UNL     1      31.662  -6.314 -24.792  0.00  0.00    -0.001 C 
BRANCH  29  30
ATOM     30  C   UNL     1      30.949  -4.964 -24.814  0.00  0.00    -0.076 C 
BRANCH  30  31
ATOM     31  N   UNL     1      31.886  -3.891 -24.501  0.00  0.00    +0.384 N 
ATOM     32  C   UNL     1      31.377  -3.069 -23.402  0.00  0.00    -0.101 C 
ATOM     33  C   UNL     1      32.134  -3.062 -25.682  0.00  0.00    -0.101 C 
ATOM     34  H   UNL     1      32.767  -4.313 -24.210  0.00  0.00    -0.080 HD
ENDBRANCH  30  31
ENDBRANCH  29  30
ENDBRANCH  28  29
ENDBRANCH  19  28
ENDBRANCH   4  20
TORSDOF 6
ENDMDL
MODEL 8
REMARK VINA RESULT:      -8.5     12.595     16.392
REMARK  Name = 2396
REMARK  6 active torsions:
REMARK  status: ('A' for Active; 'I' for Inactive)
REMARK    1  A    between atoms: C_4  and  C_20
REMARK    2  A    between atoms: C_5  and  C_10
REMARK    3  A    between atoms: N_19  and  C_28
REMARK    4  A    between atoms: C_28  and  C_29
REMARK    5  A    between atoms: C_29  and  C_30
REMARK    6  A    between atoms: C_30  and  N_31
REMARK                            x       y       z     vdW  Elec       q    Type
REMARK                         _______ _______ _______ _____ _____    ______ ____
ROOT
ATOM      1  O   UNL     1      30.300 -11.132 -20.713  0.00  0.00    -0.270 OA
ATOM      2  O   UNL     1      33.159 -13.898 -22.978  0.00  0.00    -0.270 OA
ATOM      3  N   UNL     1      31.591 -12.823 -21.644  0.00  0.00    -0.248 N 
ATOM      4  C   UNL     1      31.931 -10.710 -22.434  0.00  0.00    +0.059 C 
ATOM      5  C   UNL     1      32.780 -11.522 -23.093  0.00  0.00    +0.059 C 
ATOM      6  C   UNL     1      31.152 -11.543 -21.484  0.00  0.00    +0.252 C 
ATOM      7  C   UNL     1      32.568 -12.904 -22.591  0.00  0.00    +0.252 C 
ATOM      8  H   UNL     1      31.245 -13.595 -21.139  0.00  0.00    +0.158 HD
ENDROOT
BRANCH   5  10
ATOM      9  N   UNL     1      35.391 -10.200 -25.185  0.00  0.00    -0.312 N 
ATOM     10  C   UNL     1      33.729 -11.209 -24.115  0.00  0.00    +0.020 C 
ATOM     11  C   UNL     1      33.897 -11.846 -25.377  0.00  0.00    +0.015 C 
ATOM     12  C   UNL     1      34.946 -11.193 -26.028  0.00  0.00    +0.048 C 
ATOM     13  C   UNL     1      34.662 -10.202 -24.027  0.00  0.00    +0.062 C 
ATOM     14  C   UNL     1      33.255 -12.917 -26.030  0.00  0.00    +0.001 C 
ATOM     15  C   UNL     1      35.387 -11.561 -27.305  0.00  0.00    +0.015 C 
ATOM     16  C   UNL     1      33.687 -13.295 -27.306  0.00  0.00    +0.000 C 
ATOM     17  C   UNL     1      34.736 -12.627 -27.932  0.00  0.00    +0.001 C 
ATOM     18  H   UNL     1      36.128  -9.579 -25.387  0.00  0.00    +0.152 HD
ENDBRANCH   5  10
BRANCH   4  20
ATOM     19  N   UNL     1      31.267  -7.308 -23.410  0.00  0.00    -0.286 N 
ATOM     20  C   UNL     1      31.756  -9.296 -22.543  0.00  0.00    +0.021 C 
ATOM     21  C   UNL     1      31.682  -7.066 -22.119  0.00  0.00    +0.052 C 
ATOM     22  C   UNL     1      31.996  -8.301 -21.550  0.00  0.00    +0.015 C 
ATOM     23  C   UNL     1      31.308  -8.650 -23.675  0.00  0.00    +0.066 C 
ATOM     24  C   UNL     1      31.802  -5.860 -21.420  0.00  0.00    +0.015 C 
ATOM     25  C   UNL     1      32.453  -8.338 -20.218  0.00  0.00    +0.001 C 
ATOM     26  C   UNL     1      32.257  -5.921 -20.100  0.00  0.00    +0.001 C 
ATOM     27  C   UNL     1      32.578  -7.139 -19.506  0.00  0.00    +0.000 C 
BRANCH  19  28
ATOM     28  C   UNL     1      30.844  -6.302 -24.360  0.00  0.00    +0.093 C 
BRANCH  28  29
ATOM     29  C   UNL     1      32.009  -5.437 -24.839  0.00  0.00    -0.001 C 
BRANCH  29  30
ATOM     30  C   UNL     1      31.505  -4.182 -25.549  0.00  0.00    -0.076 C 
BRANCH  30  31
ATOM     31  N   UNL     1      30.714  -3.366 -24.636  0.00  0.00    +0.384 N 
ATOM     32  C   UNL     1      30.075  -2.262 -25.356  0.00  0.00    -0.101 C 
ATOM     33  C   UNL     1      31.548  -2.848 -23.551  0.00  0.00    -0.101 C 
ATOM     34  H   UNL     1      29.985  -3.955 -24.233  0.00  0.00    -0.080 HD
ENDBRANCH  30  31
ENDBRANCH  29  30
ENDBRANCH  28  29
ENDBRANCH  19  28
ENDBRANCH   4  20
TORSDOF 6
ENDMDL
MODEL 9
REMARK VINA RESULT:      -8.2      7.852     12.165
REMARK  Name = 2396
REMARK  6 active torsions:
REMARK  status: ('A' for Active; 'I' for Inactive)
REMARK    1  A    between atoms: C_4  and  C_20
REMARK    2  A    between atoms: C_5  and  C_10
REMARK    3  A    between atoms: N_19  and  C_28
REMARK    4  A    between atoms: C_28  and  C_29
REMARK    5  A    between atoms: C_29  and  C_30
REMARK    6  A    between atoms: C_30  and  N_31
REMARK                            x       y       z     vdW  Elec       q    Type
REMARK                         _______ _______ _______ _____ _____    ______ ____
ROOT
ATOM      1  O   UNL     1      31.536 -11.620 -21.395  0.00  0.00    -0.270 OA
ATOM      2  O   UNL     1      32.661 -15.735 -19.735  0.00  0.00    -0.270 OA
ATOM      3  N   UNL     1      31.871 -13.612 -20.250  0.00  0.00    -0.248 N 
ATOM      4  C   UNL     1      32.955 -13.372 -22.243  0.00  0.00    +0.059 C 
ATOM      5  C   UNL     1      33.295 -14.578 -21.750  0.00  0.00    +0.059 C 
ATOM      6  C   UNL     1      32.030 -12.729 -21.275  0.00  0.00    +0.252 C 
ATOM      7  C   UNL     1      32.593 -14.751 -20.451  0.00  0.00    +0.252 C 
ATOM      8  H   UNL     1      31.304 -13.450 -19.461  0.00  0.00    +0.158 HD
ENDROOT
BRANCH   5  10
ATOM      9  N   UNL     1      35.710 -16.535 -23.560  0.00  0.00    -0.312 N 
ATOM     10  C   UNL     1      34.145 -15.582 -22.307  0.00  0.00    +0.020 C 
ATOM     11  C   UNL     1      34.183 -16.970 -21.993  0.00  0.00    +0.015 C 
ATOM     12  C   UNL     1      35.174 -17.544 -22.793  0.00  0.00    +0.048 C 
ATOM     13  C   UNL     1      35.096 -15.346 -23.273  0.00  0.00    +0.062 C 
ATOM     14  C   UNL     1      33.467 -17.795 -21.103  0.00  0.00    +0.001 C 
ATOM     15  C   UNL     1      35.486 -18.907 -22.745  0.00  0.00    +0.015 C 
ATOM     16  C   UNL     1      33.769 -19.160 -21.045  0.00  0.00    +0.000 C 
ATOM     17  C   UNL     1      34.763 -19.706 -21.854  0.00  0.00    +0.001 C 
ATOM     18  H   UNL     1      36.433 -16.652 -24.218  0.00  0.00    +0.152 HD
ENDBRANCH   5  10
BRANCH   4  20
ATOM     19  N   UNL     1      34.241 -11.216 -24.826  0.00  0.00    -0.286 N 
ATOM     20  C   UNL     1      33.373 -12.733 -23.452  0.00  0.00    +0.021 C 
ATOM     21  C   UNL     1      33.798 -12.244 -25.628  0.00  0.00    +0.052 C 
ATOM     22  C   UNL     1      33.247 -13.214 -24.788  0.00  0.00    +0.015 C 
ATOM     23  C   UNL     1      33.989 -11.502 -23.511  0.00  0.00    +0.066 C 
ATOM     24  C   UNL     1      33.844 -12.388 -27.020  0.00  0.00    +0.015 C 
ATOM     25  C   UNL     1      32.714 -14.385 -25.362  0.00  0.00    +0.001 C 
ATOM     26  C   UNL     1      33.310 -13.558 -27.566  0.00  0.00    +0.001 C 
ATOM     27  C   UNL     1      32.753 -14.542 -26.753  0.00  0.00    +0.000 C 
BRANCH  19  28
ATOM     28  C   UNL     1      34.882 -10.004 -25.288  0.00  0.00    +0.093 C 
BRANCH  28  29
ATOM     29  C   UNL     1      35.030  -8.970 -24.173  0.00  0.00    -0.001 C 
BRANCH  29  30
ATOM     30  C   UNL     1      33.903  -7.942 -24.224  0.00  0.00    -0.076 C 
BRANCH  30  31
ATOM     31  N   UNL     1      32.983  -8.142 -23.110  0.00  0.00    +0.384 N 
ATOM     32  C   UNL     1      31.664  -8.547 -23.599  0.00  0.00    -0.101 C 
ATOM     33  C   UNL     1      32.874  -6.924 -22.306  0.00  0.00    -0.101 C 
ATOM     34  H   UNL     1      33.353  -8.888 -22.521  0.00  0.00    -0.080 HD
ENDBRANCH  30  31
ENDBRANCH  29  30
ENDBRANCH  28  29
ENDBRANCH  19  28
ENDBRANCH   4  20
TORSDOF 6
ENDMDL
