MODEL 1
REMARK VINA RESULT:      -9.4      0.000      0.000
REMARK  Name = 9978312
REMARK  6 active torsions:
REMARK  status: ('A' for Active; 'I' for Inactive)
REMARK    1  A    between atoms: N_3  and  C_28
REMARK    2  A    between atoms: C_12  and  C_20
REMARK    3  A    between atoms: C_17  and  O_26
REMARK    4  A    between atoms: C_28  and  C_29
REMARK    5  A    between atoms: C_29  and  C_31
REMARK    6  A    between atoms: C_31  and  O_32
REMARK                            x       y       z     vdW  Elec       q    Type
REMARK                         _______ _______ _______ _____ _____    ______ ____
ROOT
ATOM      1  O   UNL     1      34.756 -16.410 -26.342  0.00  0.00    -0.270 OA
ATOM      2  O   UNL     1      34.955 -20.183 -23.716  0.00  0.00    -0.270 OA
ATOM      3  N   UNL     1      33.531 -14.215 -21.711  0.00  0.00    -0.327 N 
ATOM      4  N   UNL     1      34.947 -18.502 -25.332  0.00  0.00    -0.248 N 
ATOM      5  C   UNL     1      34.075 -15.508 -23.452  0.00  0.00    +0.022 A 
ATOM      6  C   UNL     1      33.826 -15.507 -22.070  0.00  0.00    +0.060 A 
ATOM      7  C   UNL     1      33.915 -14.158 -23.912  0.00  0.00    +0.020 A 
ATOM      8  C   UNL     1      33.577 -13.380 -22.801  0.00  0.00    +0.060 A 
ATOM      9  C   UNL     1      34.397 -16.753 -24.005  0.00  0.00    +0.060 C 
ATOM     10  C   UNL     1      34.459 -17.901 -23.214  0.00  0.00    +0.058 C 
ATOM     11  C   UNL     1      33.888 -16.666 -21.265  0.00  0.00    +0.017 C 
ATOM     12  C   UNL     1      34.213 -17.888 -21.859  0.00  0.00    +0.006 C 
ATOM     13  C   UNL     1      34.713 -17.147 -25.376  0.00  0.00    +0.252 C 
ATOM     14  C   UNL     1      34.022 -13.506 -25.159  0.00  0.00    +0.038 C 
ATOM     15  C   UNL     1      33.343 -12.001 -22.875  0.00  0.00    +0.020 C 
ATOM     16  C   UNL     1      34.814 -19.029 -24.073  0.00  0.00    +0.252 C 
ATOM     17  C   UNL     1      33.791 -12.128 -25.250  0.00  0.00    +0.134 C 
ATOM     18  C   UNL     1      33.456 -11.387 -24.123  0.00  0.00    +0.038 C 
ATOM     19  H   UNL     1      35.186 -19.038 -26.123  0.00  0.00    +0.158 HD
ENDROOT
BRANCH  12  20
ATOM     20  C   UNL     1      34.279 -19.079 -21.041  0.00  0.00    +0.000 C 
ATOM     21  C   UNL     1      33.104 -19.719 -20.645  0.00  0.00    +0.000 C 
ATOM     22  C   UNL     1      35.516 -19.588 -20.648  0.00  0.00    +0.000 C 
ATOM     23  C   UNL     1      33.167 -20.868 -19.856  0.00  0.00    +0.000 C 
ATOM     24  C   UNL     1      35.579 -20.736 -19.859  0.00  0.00    +0.000 C 
ATOM     25  C   UNL     1      34.405 -21.377 -19.463  0.00  0.00    +0.000 C 
ENDBRANCH  12  20
BRANCH  17  26
ATOM     26  O   UNL     1      33.896 -11.508 -26.460  0.00  0.00    -0.506 OA
ATOM     27  H   UNL     1      34.729 -11.446 -26.884  0.00  0.00    +0.292 HD
ENDBRANCH  17  26
BRANCH   3  28
ATOM     28  C   UNL     1      33.214 -13.788 -20.362  0.00  0.00    +0.118 C 
BRANCH  28  29
ATOM     29  C   UNL     1      31.743 -13.410 -20.174  0.00  0.00    +0.134 C 
BRANCH  29  31
ATOM     30  O   UNL     1      32.119 -11.097 -19.502  0.00  0.00    -0.250 OA
ATOM     31  C   UNL     1      31.501 -11.916 -20.166  0.00  0.00    +0.316 C 
BRANCH  31  32
ATOM     32  O   UNL     1      30.510 -11.570 -21.030  0.00  0.00    -0.480 OA
ATOM     33  H   UNL     1      29.638 -11.884 -20.893  0.00  0.00    +0.295 HD
ENDBRANCH  31  32
ENDBRANCH  29  31
ENDBRANCH  28  29
ENDBRANCH   3  28
TORSDOF 6
ENDMDL
MODEL 2
REMARK VINA RESULT:      -9.2      3.522      9.744
REMARK  Name = 9978312
REMARK  6 active torsions:
REMARK  status: ('A' for Active; 'I' for Inactive)
REMARK    1  A    between atoms: N_3  and  C_28
REMARK    2  A    between atoms: C_12  and  C_20
REMARK    3  A    between atoms: C_17  and  O_26
REMARK    4  A    between atoms: C_28  and  C_29
REMARK    5  A    between atoms: C_29  and  C_31
REMARK    6  A    between atoms: C_31  and  O_32
REMARK                            x       y       z     vdW  Elec       q    Type
REMARK                         _______ _______ _______ _____ _____    ______ ____
ROOT
ATOM      1  O   UNL     1      31.758 -10.515 -19.036  0.00  0.00    -0.270 OA
ATOM      2  O   UNL     1      31.717  -6.451 -21.195  0.00  0.00    -0.270 OA
ATOM      3  N   UNL     1      33.042 -12.174 -23.870  0.00  0.00    -0.327 N 
ATOM      4  N   UNL     1      31.644  -8.312 -19.792  0.00  0.00    -0.248 N 
ATOM      5  C   UNL     1      32.487 -11.084 -21.999  0.00  0.00    +0.022 A 
ATOM      6  C   UNL     1      32.771 -10.926 -23.365  0.00  0.00    +0.060 A 
ATOM      7  C   UNL     1      32.598 -12.483 -21.702  0.00  0.00    +0.020 A 
ATOM      8  C   UNL     1      32.945 -13.132 -22.890  0.00  0.00    +0.060 A 
ATOM      9  C   UNL     1      32.184  -9.905 -21.307  0.00  0.00    +0.060 C 
ATOM     10  C   UNL     1      32.170  -8.670 -21.955  0.00  0.00    +0.058 C 
ATOM     11  C   UNL     1      32.758  -9.679 -24.026  0.00  0.00    +0.017 C 
ATOM     12  C   UNL     1      32.449  -8.528 -23.296  0.00  0.00    +0.006 C 
ATOM     13  C   UNL     1      31.842  -9.669 -19.906  0.00  0.00    +0.252 C 
ATOM     14  C   UNL     1      32.442 -13.276 -20.544  0.00  0.00    +0.038 C 
ATOM     15  C   UNL     1      33.140 -14.516 -22.977  0.00  0.00    +0.020 C 
ATOM     16  C   UNL     1      31.821  -7.643 -20.976  0.00  0.00    +0.252 C 
ATOM     17  C   UNL     1      32.633 -14.662 -20.615  0.00  0.00    +0.134 C 
ATOM     18  C   UNL     1      32.977 -15.272 -21.816  0.00  0.00    +0.038 C 
ATOM     19  H   UNL     1      31.400  -7.868 -18.947  0.00  0.00    +0.158 HD
ENDROOT
BRANCH  12  20
ATOM     20  C   UNL     1      32.435  -7.246 -23.967  0.00  0.00    +0.000 C 
ATOM     21  C   UNL     1      33.617  -6.718 -24.486  0.00  0.00    +0.000 C 
ATOM     22  C   UNL     1      31.241  -6.537 -24.093  0.00  0.00    +0.000 C 
ATOM     23  C   UNL     1      33.605  -5.482 -25.134  0.00  0.00    +0.000 C 
ATOM     24  C   UNL     1      31.229  -5.302 -24.740  0.00  0.00    +0.000 C 
ATOM     25  C   UNL     1      32.410  -4.774 -25.261  0.00  0.00    +0.000 C 
ENDBRANCH  12  20
BRANCH  17  26
ATOM     26  O   UNL     1      32.478 -15.420 -19.492  0.00  0.00    -0.506 OA
ATOM     27  H   UNL     1      31.815 -16.082 -19.461  0.00  0.00    +0.292 HD
ENDBRANCH  17  26
BRANCH   3  28
ATOM     28  C   UNL     1      33.385 -12.445 -25.252  0.00  0.00    +0.118 C 
BRANCH  28  29
ATOM     29  C   UNL     1      32.518 -13.532 -25.892  0.00  0.00    +0.134 C 
BRANCH  29  31
ATOM     30  O   UNL     1      33.368 -15.696 -26.623  0.00  0.00    -0.250 OA
ATOM     31  C   UNL     1      33.298 -14.485 -26.771  0.00  0.00    +0.316 C 
BRANCH  31  32
ATOM     32  O   UNL     1      33.907 -13.831 -27.796  0.00  0.00    -0.480 OA
ATOM     33  H   UNL     1      34.806 -13.578 -27.722  0.00  0.00    +0.295 HD
ENDBRANCH  31  32
ENDBRANCH  29  31
ENDBRANCH  28  29
ENDBRANCH   3  28
TORSDOF 6
ENDMDL
MODEL 3
REMARK VINA RESULT:      -8.8      2.587      5.182
REMARK  Name = 9978312
REMARK  6 active torsions:
REMARK  status: ('A' for Active; 'I' for Inactive)
REMARK    1  A    between atoms: N_3  and  C_28
REMARK    2  A    between atoms: C_12  and  C_20
REMARK    3  A    between atoms: C_17  and  O_26
REMARK    4  A    between atoms: C_28  and  C_29
REMARK    5  A    between atoms: C_29  and  C_31
REMARK    6  A    between atoms: C_31  and  O_32
REMARK                            x       y       z     vdW  Elec       q    Type
REMARK                         _______ _______ _______ _____ _____    ______ ____
ROOT
ATOM      1  O   UNL     1      31.846 -12.641 -19.852  0.00  0.00    -0.270 OA
ATOM      2  O   UNL     1      33.260 -16.913 -20.813  0.00  0.00    -0.270 OA
ATOM      3  N   UNL     1      33.833 -11.756 -24.652  0.00  0.00    -0.327 N 
ATOM      4  N   UNL     1      32.426 -14.895 -19.997  0.00  0.00    -0.248 N 
ATOM      5  C   UNL     1      33.113 -12.534 -22.684  0.00  0.00    +0.022 A 
ATOM      6  C   UNL     1      33.743 -12.892 -23.886  0.00  0.00    +0.060 A 
ATOM      7  C   UNL     1      32.828 -11.130 -22.757  0.00  0.00    +0.020 A 
ATOM      8  C   UNL     1      33.290 -10.678 -23.996  0.00  0.00    +0.060 A 
ATOM      9  C   UNL     1      32.931 -13.575 -21.765  0.00  0.00    +0.060 C 
ATOM     10  C   UNL     1      33.357 -14.872 -22.050  0.00  0.00    +0.058 C 
ATOM     11  C   UNL     1      34.175 -14.204 -24.180  0.00  0.00    +0.017 C 
ATOM     12  C   UNL     1      33.974 -15.213 -23.234  0.00  0.00    +0.006 C 
ATOM     13  C   UNL     1      32.329 -13.593 -20.434  0.00  0.00    +0.252 C 
ATOM     14  C   UNL     1      32.223 -10.185 -21.900  0.00  0.00    +0.038 C 
ATOM     15  C   UNL     1      33.178  -9.346 -24.416  0.00  0.00    +0.020 C 
ATOM     16  C   UNL     1      33.030 -15.723 -20.907  0.00  0.00    +0.252 C 
ATOM     17  C   UNL     1      32.104  -8.849 -22.304  0.00  0.00    +0.134 C 
ATOM     18  C   UNL     1      32.576  -8.437 -23.545  0.00  0.00    +0.038 C 
ATOM     19  H   UNL     1      32.095 -15.199 -19.120  0.00  0.00    +0.158 HD
ENDROOT
BRANCH  12  20
ATOM     20  C   UNL     1      34.414 -16.559 -23.528  0.00  0.00    +0.000 C 
ATOM     21  C   UNL     1      33.916 -17.226 -24.647  0.00  0.00    +0.000 C 
ATOM     22  C   UNL     1      35.336 -17.190 -22.693  0.00  0.00    +0.000 C 
ATOM     23  C   UNL     1      34.341 -18.524 -24.932  0.00  0.00    +0.000 C 
ATOM     24  C   UNL     1      35.760 -18.488 -22.978  0.00  0.00    +0.000 C 
ATOM     25  C   UNL     1      35.263 -19.155 -24.098  0.00  0.00    +0.000 C 
ENDBRANCH  12  20
BRANCH  17  26
ATOM     26  O   UNL     1      31.519  -7.944 -21.469  0.00  0.00    -0.506 OA
ATOM     27  H   UNL     1      32.051  -7.380 -20.942  0.00  0.00    +0.292 HD
ENDBRANCH  17  26
BRANCH   3  28
ATOM     28  C   UNL     1      34.422 -11.701 -25.975  0.00  0.00    +0.118 C 
BRANCH  28  29
ATOM     29  C   UNL     1      33.433 -12.027 -27.096  0.00  0.00    +0.134 C 
BRANCH  29  31
ATOM     30  O   UNL     1      33.949 -14.355 -27.603  0.00  0.00    -0.250 OA
ATOM     31  C   UNL     1      33.148 -13.507 -27.237  0.00  0.00    +0.316 C 
BRANCH  31  32
ATOM     32  O   UNL     1      31.874 -13.805 -26.868  0.00  0.00    -0.480 OA
ATOM     33  H   UNL     1      31.483 -13.365 -26.139  0.00  0.00    +0.295 HD
ENDBRANCH  31  32
ENDBRANCH  29  31
ENDBRANCH  28  29
ENDBRANCH   3  28
TORSDOF 6
ENDMDL
MODEL 4
REMARK VINA RESULT:      -8.2      4.012      9.215
REMARK  Name = 9978312
REMARK  6 active torsions:
REMARK  status: ('A' for Active; 'I' for Inactive)
REMARK    1  A    between atoms: N_3  and  C_28
REMARK    2  A    between atoms: C_12  and  C_20
REMARK    3  A    between atoms: C_17  and  O_26
REMARK    4  A    between atoms: C_28  and  C_29
REMARK    5  A    between atoms: C_29  and  C_31
REMARK    6  A    between atoms: C_31  and  O_32
REMARK                            x       y       z     vdW  Elec       q    Type
REMARK                         _______ _______ _______ _____ _____    ______ ____
ROOT
ATOM      1  O   UNL     1      35.608 -10.643 -25.279  0.00  0.00    -0.270 OA
ATOM      2  O   UNL     1      34.194  -6.265 -25.226  0.00  0.00    -0.270 OA
ATOM      3  N   UNL     1      31.582 -11.155 -21.919  0.00  0.00    -0.327 N 
ATOM      4  N   UNL     1      35.175  -8.362 -25.496  0.00  0.00    -0.248 N 
ATOM      5  C   UNL     1      33.176 -10.527 -23.355  0.00  0.00    +0.022 A 
ATOM      6  C   UNL     1      32.088 -10.071 -22.594  0.00  0.00    +0.060 A 
ATOM      7  C   UNL     1      33.306 -11.934 -23.108  0.00  0.00    +0.020 A 
ATOM      8  C   UNL     1      32.296 -12.291 -22.209  0.00  0.00    +0.060 A 
ATOM      9  C   UNL     1      33.827  -9.551 -24.119  0.00  0.00    +0.060 C 
ATOM     10  C   UNL     1      33.403  -8.222 -24.108  0.00  0.00    +0.058 C 
ATOM     11  C   UNL     1      31.654  -8.727 -22.579  0.00  0.00    +0.017 C 
ATOM     12  C   UNL     1      32.334  -7.786 -23.357  0.00  0.00    +0.006 C 
ATOM     13  C   UNL     1      34.976  -9.638 -25.019  0.00  0.00    +0.252 C 
ATOM     14  C   UNL     1      34.176 -12.953 -23.553  0.00  0.00    +0.038 C 
ATOM     15  C   UNL     1      32.117 -13.598 -21.740  0.00  0.00    +0.020 C 
ATOM     16  C   UNL     1      34.275  -7.456 -24.997  0.00  0.00    +0.252 C 
ATOM     17  C   UNL     1      34.010 -14.265 -23.093  0.00  0.00    +0.134 C 
ATOM     18  C   UNL     1      32.994 -14.582 -22.198  0.00  0.00    +0.038 C 
ATOM     19  H   UNL     1      35.891  -8.125 -26.130  0.00  0.00    +0.158 HD
ENDROOT
BRANCH  12  20
ATOM     20  C   UNL     1      31.895  -6.408 -23.347  0.00  0.00    +0.000 C 
ATOM     21  C   UNL     1      31.313  -5.854 -24.487  0.00  0.00    +0.000 C 
ATOM     22  C   UNL     1      32.054  -5.633 -22.199  0.00  0.00    +0.000 C 
ATOM     23  C   UNL     1      30.888  -4.524 -24.478  0.00  0.00    +0.000 C 
ATOM     24  C   UNL     1      31.631  -4.304 -22.190  0.00  0.00    +0.000 C 
ATOM     25  C   UNL     1      31.047  -3.750 -23.330  0.00  0.00    +0.000 C 
ENDBRANCH  12  20
BRANCH  17  26
ATOM     26  O   UNL     1      34.856 -15.242 -23.528  0.00  0.00    -0.506 OA
ATOM     27  H   UNL     1      34.991 -15.371 -24.446  0.00  0.00    +0.292 HD
ENDBRANCH  17  26
BRANCH   3  28
ATOM     28  C   UNL     1      30.446 -11.106 -21.020  0.00  0.00    +0.118 C 
BRANCH  28  29
ATOM     29  C   UNL     1      30.840 -10.994 -19.546  0.00  0.00    +0.134 C 
BRANCH  29  31
ATOM     30  O   UNL     1      31.305  -8.609 -19.345  0.00  0.00    -0.250 OA
ATOM     31  C   UNL     1      31.674  -9.770 -19.237  0.00  0.00    +0.316 C 
BRANCH  31  32
ATOM     32  O   UNL     1      32.908 -10.112 -18.780  0.00  0.00    -0.480 OA
ATOM     33  H   UNL     1      33.029 -10.330 -17.877  0.00  0.00    +0.295 HD
ENDBRANCH  31  32
ENDBRANCH  29  31
ENDBRANCH  28  29
ENDBRANCH   3  28
TORSDOF 6
ENDMDL
MODEL 5
REMARK VINA RESULT:      -8.1      3.028      8.968
REMARK  Name = 9978312
REMARK  6 active torsions:
REMARK  status: ('A' for Active; 'I' for Inactive)
REMARK    1  A    between atoms: N_3  and  C_28
REMARK    2  A    between atoms: C_12  and  C_20
REMARK    3  A    between atoms: C_17  and  O_26
REMARK    4  A    between atoms: C_28  and  C_29
REMARK    5  A    between atoms: C_29  and  C_31
REMARK    6  A    between atoms: C_31  and  O_32
REMARK                            x       y       z     vdW  Elec       q    Type
REMARK                         _______ _______ _______ _____ _____    ______ ____
ROOT
ATOM      1  O   UNL     1      31.973 -13.138 -19.204  0.00  0.00    -0.270 OA
ATOM      2  O   UNL     1      31.022  -8.662 -19.685  0.00  0.00    -0.270 OA
ATOM      3  N   UNL     1      33.673 -12.497 -24.150  0.00  0.00    -0.327 N 
ATOM      4  N   UNL     1      31.363 -10.891 -19.092  0.00  0.00    -0.248 N 
ATOM      5  C   UNL     1      32.855 -12.355 -22.074  0.00  0.00    +0.022 A 
ATOM      6  C   UNL     1      33.113 -11.627 -23.247  0.00  0.00    +0.060 A 
ATOM      7  C   UNL     1      33.283 -13.704 -22.310  0.00  0.00    +0.020 A 
ATOM      8  C   UNL     1      33.787 -13.757 -23.612  0.00  0.00    +0.060 A 
ATOM      9  C   UNL     1      32.278 -11.625 -21.028  0.00  0.00    +0.060 C 
ATOM     10  C   UNL     1      31.987 -10.268 -21.167  0.00  0.00    +0.058 C 
ATOM     11  C   UNL     1      32.822 -10.253 -23.393  0.00  0.00    +0.017 C 
ATOM     12  C   UNL     1      32.244  -9.565 -22.323  0.00  0.00    +0.006 C 
ATOM     13  C   UNL     1      31.871 -12.025 -19.682  0.00  0.00    +0.252 C 
ATOM     14  C   UNL     1      33.298 -14.896 -21.553  0.00  0.00    +0.038 C 
ATOM     15  C   UNL     1      34.298 -14.926 -24.189  0.00  0.00    +0.020 C 
ATOM     16  C   UNL     1      31.397  -9.796 -19.917  0.00  0.00    +0.252 C 
ATOM     17  C   UNL     1      33.806 -16.074 -22.115  0.00  0.00    +0.134 C 
ATOM     18  C   UNL     1      34.298 -16.087 -23.415  0.00  0.00    +0.038 C 
ATOM     19  H   UNL     1      31.012 -10.868 -18.172  0.00  0.00    +0.158 HD
ENDROOT
BRANCH  12  20
ATOM     20  C   UNL     1      31.943  -8.157 -22.465  0.00  0.00    +0.000 C 
ATOM     21  C   UNL     1      32.632  -7.216 -21.699  0.00  0.00    +0.000 C 
ATOM     22  C   UNL     1      30.966  -7.740 -23.368  0.00  0.00    +0.000 C 
ATOM     23  C   UNL     1      32.343  -5.858 -21.836  0.00  0.00    +0.000 C 
ATOM     24  C   UNL     1      30.677  -6.382 -23.505  0.00  0.00    +0.000 C 
ATOM     25  C   UNL     1      31.365  -5.441 -22.739  0.00  0.00    +0.000 C 
ENDBRANCH  12  20
BRANCH  17  26
ATOM     26  O   UNL     1      33.815 -17.221 -21.377  0.00  0.00    -0.506 OA
ATOM     27  H   UNL     1      34.466 -17.346 -20.715  0.00  0.00    +0.292 HD
ENDBRANCH  17  26
BRANCH   3  28
ATOM     28  C   UNL     1      34.088 -12.136 -25.491  0.00  0.00    +0.118 C 
BRANCH  28  29
ATOM     29  C   UNL     1      33.106 -12.587 -26.574  0.00  0.00    +0.134 C 
BRANCH  29  31
ATOM     30  O   UNL     1      33.178 -14.898 -27.345  0.00  0.00    -0.250 OA
ATOM     31  C   UNL     1      33.608 -13.755 -27.395  0.00  0.00    +0.316 C 
BRANCH  31  32
ATOM     32  O   UNL     1      34.600 -13.376 -28.244  0.00  0.00    -0.480 OA
ATOM     33  H   UNL     1      35.308 -13.961 -28.427  0.00  0.00    +0.295 HD
ENDBRANCH  31  32
ENDBRANCH  29  31
ENDBRANCH  28  29
ENDBRANCH   3  28
TORSDOF 6
ENDMDL
MODEL 6
REMARK VINA RESULT:      -7.8      6.973     11.596
REMARK  Name = 9978312
REMARK  6 active torsions:
REMARK  status: ('A' for Active; 'I' for Inactive)
REMARK    1  A    between atoms: N_3  and  C_28
REMARK    2  A    between atoms: C_12  and  C_20
REMARK    3  A    between atoms: C_17  and  O_26
REMARK    4  A    between atoms: C_28  and  C_29
REMARK    5  A    between atoms: C_29  and  C_31
REMARK    6  A    between atoms: C_31  and  O_32
REMARK                            x       y       z     vdW  Elec       q    Type
REMARK                         _______ _______ _______ _____ _____    ______ ____
ROOT
ATOM      1  O   UNL     1      34.141 -25.086 -12.460  0.00  0.00    -0.270 OA
ATOM      2  O   UNL     1      29.735 -24.706 -13.733  0.00  0.00    -0.270 OA
ATOM      3  N   UNL     1      34.861 -22.669 -17.087  0.00  0.00    -0.327 N 
ATOM      4  N   UNL     1      31.831 -25.066 -12.777  0.00  0.00    -0.248 N 
ATOM      5  C   UNL     1      34.141 -23.670 -15.222  0.00  0.00    +0.022 A 
ATOM      6  C   UNL     1      33.728 -23.078 -16.427  0.00  0.00    +0.060 A 
ATOM      7  C   UNL     1      35.574 -23.602 -15.186  0.00  0.00    +0.020 A 
ATOM      8  C   UNL     1      35.988 -22.973 -16.364  0.00  0.00    +0.060 A 
ATOM      9  C   UNL     1      33.112 -24.152 -14.404  0.00  0.00    +0.060 C 
ATOM     10  C   UNL     1      31.775 -24.040 -14.784  0.00  0.00    +0.058 C 
ATOM     11  C   UNL     1      32.376 -22.961 -16.816  0.00  0.00    +0.017 C 
ATOM     12  C   UNL     1      31.381 -23.457 -15.968  0.00  0.00    +0.006 C 
ATOM     13  C   UNL     1      33.145 -24.818 -13.103  0.00  0.00    +0.252 C 
ATOM     14  C   UNL     1      36.573 -24.009 -14.275  0.00  0.00    +0.038 C 
ATOM     15  C   UNL     1      37.333 -22.733 -16.671  0.00  0.00    +0.020 C 
ATOM     16  C   UNL     1      30.949 -24.631 -13.732  0.00  0.00    +0.252 C 
ATOM     17  C   UNL     1      37.923 -23.777 -14.568  0.00  0.00    +0.134 C 
ATOM     18  C   UNL     1      38.296 -23.148 -15.751  0.00  0.00    +0.038 C 
ATOM     19  H   UNL     1      31.554 -25.510 -11.943  0.00  0.00    +0.158 HD
ENDROOT
BRANCH  12  20
ATOM     20  C   UNL     1      29.993 -23.341 -16.360  0.00  0.00    +0.000 C 
ATOM     21  C   UNL     1      29.302 -22.152 -16.131  0.00  0.00    +0.000 C 
ATOM     22  C   UNL     1      29.347 -24.417 -16.967  0.00  0.00    +0.000 C 
ATOM     23  C   UNL     1      27.963 -22.038 -16.509  0.00  0.00    +0.000 C 
ATOM     24  C   UNL     1      28.009 -24.304 -17.344  0.00  0.00    +0.000 C 
ATOM     25  C   UNL     1      27.317 -23.115 -17.116  0.00  0.00    +0.000 C 
ENDBRANCH  12  20
BRANCH  17  26
ATOM     26  O   UNL     1      38.880 -24.174 -13.683  0.00  0.00    -0.506 OA
ATOM     27  H   UNL     1      38.706 -24.152 -12.762  0.00  0.00    +0.292 HD
ENDBRANCH  17  26
BRANCH   3  28
ATOM     28  C   UNL     1      34.866 -22.007 -18.377  0.00  0.00    +0.118 C 
BRANCH  28  29
ATOM     29  C   UNL     1      33.482 -21.920 -19.023  0.00  0.00    +0.134 C 
BRANCH  29  31
ATOM     30  O   UNL     1      32.343 -20.473 -20.620  0.00  0.00    -0.250 OA
ATOM     31  C   UNL     1      33.376 -20.841 -20.078  0.00  0.00    +0.316 C 
BRANCH  31  32
ATOM     32  O   UNL     1      34.588 -20.285 -20.344  0.00  0.00    -0.480 OA
ATOM     33  H   UNL     1      34.715 -19.364 -20.228  0.00  0.00    +0.295 HD
ENDBRANCH  31  32
ENDBRANCH  29  31
ENDBRANCH  28  29
ENDBRANCH   3  28
TORSDOF 6
ENDMDL
MODEL 7
REMARK VINA RESULT:      -7.8      8.921     12.219
REMARK  Name = 9978312
REMARK  6 active torsions:
REMARK  status: ('A' for Active; 'I' for Inactive)
REMARK    1  A    between atoms: N_3  and  C_28
REMARK    2  A    between atoms: C_12  and  C_20
REMARK    3  A    between atoms: C_17  and  O_26
REMARK    4  A    between atoms: C_28  and  C_29
REMARK    5  A    between atoms: C_29  and  C_31
REMARK    6  A    between atoms: C_31  and  O_32
REMARK                            x       y       z     vdW  Elec       q    Type
REMARK                         _______ _______ _______ _____ _____    ______ ____
ROOT
ATOM      1  O   UNL     1      36.257 -22.585 -18.295  0.00  0.00    -0.270 OA
ATOM      2  O   UNL     1      31.667 -22.271 -18.213  0.00  0.00    -0.270 OA
ATOM      3  N   UNL     1      35.415 -24.576 -13.490  0.00  0.00    -0.327 N 
ATOM      4  N   UNL     1      33.966 -22.281 -18.601  0.00  0.00    -0.248 N 
ATOM      5  C   UNL     1      35.348 -23.693 -15.542  0.00  0.00    +0.022 A 
ATOM      6  C   UNL     1      34.560 -24.100 -14.453  0.00  0.00    +0.060 A 
ATOM      7  C   UNL     1      36.717 -23.945 -15.193  0.00  0.00    +0.020 A 
ATOM      8  C   UNL     1      36.721 -24.495 -13.907  0.00  0.00    +0.060 A 
ATOM      9  C   UNL     1      34.642 -23.174 -16.634  0.00  0.00    +0.060 C 
ATOM     10  C   UNL     1      33.252 -23.076 -16.616  0.00  0.00    +0.058 C 
ATOM     11  C   UNL     1      33.152 -24.003 -14.429  0.00  0.00    +0.017 C 
ATOM     12  C   UNL     1      32.489 -23.477 -15.541  0.00  0.00    +0.006 C 
ATOM     13  C   UNL     1      35.102 -22.657 -17.922  0.00  0.00    +0.252 C 
ATOM     14  C   UNL     1      37.962 -23.765 -15.831  0.00  0.00    +0.038 C 
ATOM     15  C   UNL     1      37.893 -24.869 -13.239  0.00  0.00    +0.020 C 
ATOM     16  C   UNL     1      32.816 -22.499 -17.886  0.00  0.00    +0.252 C 
ATOM     17  C   UNL     1      39.144 -24.133 -15.176  0.00  0.00    +0.134 C 
ATOM     18  C   UNL     1      39.109 -24.677 -13.897  0.00  0.00    +0.038 C 
ATOM     19  H   UNL     1      33.978 -21.895 -19.508  0.00  0.00    +0.158 HD
ENDROOT
BRANCH  12  20
ATOM     20  C   UNL     1      31.046 -23.376 -15.525  0.00  0.00    +0.000 C 
ATOM     21  C   UNL     1      30.267 -24.443 -15.974  0.00  0.00    +0.000 C 
ATOM     22  C   UNL     1      30.433 -22.213 -15.059  0.00  0.00    +0.000 C 
ATOM     23  C   UNL     1      28.875 -24.347 -15.957  0.00  0.00    +0.000 C 
ATOM     24  C   UNL     1      29.042 -22.117 -15.043  0.00  0.00    +0.000 C 
ATOM     25  C   UNL     1      28.263 -23.184 -15.492  0.00  0.00    +0.000 C 
ENDBRANCH  12  20
BRANCH  17  26
ATOM     26  O   UNL     1      40.343 -23.954 -15.801  0.00  0.00    -0.506 OA
ATOM     27  H   UNL     1      41.138 -23.981 -15.306  0.00  0.00    +0.292 HD
ENDBRANCH  17  26
BRANCH   3  28
ATOM     28  C   UNL     1      34.996 -25.096 -12.203  0.00  0.00    +0.118 C 
BRANCH  28  29
ATOM     29  C   UNL     1      34.820 -24.014 -11.137  0.00  0.00    +0.134 C 
BRANCH  29  31
ATOM     30  O   UNL     1      36.912 -22.789 -10.877  0.00  0.00    -0.250 OA
ATOM     31  C   UNL     1      36.115 -23.618 -10.461  0.00  0.00    +0.316 C 
BRANCH  31  32
ATOM     32  O   UNL     1      36.286 -24.282  -9.286  0.00  0.00    -0.480 OA
ATOM     33  H   UNL     1      35.662 -24.929  -9.020  0.00  0.00    +0.295 HD
ENDBRANCH  31  32
ENDBRANCH  29  31
ENDBRANCH  28  29
ENDBRANCH   3  28
TORSDOF 6
ENDMDL
MODEL 8
REMARK VINA RESULT:      -7.7      3.380      6.690
REMARK  Name = 9978312
REMARK  6 active torsions:
REMARK  status: ('A' for Active; 'I' for Inactive)
REMARK    1  A    between atoms: N_3  and  C_28
REMARK    2  A    between atoms: C_12  and  C_20
REMARK    3  A    between atoms: C_17  and  O_26
REMARK    4  A    between atoms: C_28  and  C_29
REMARK    5  A    between atoms: C_29  and  C_31
REMARK    6  A    between atoms: C_31  and  O_32
REMARK                            x       y       z     vdW  Elec       q    Type
REMARK                         _______ _______ _______ _____ _____    ______ ____
ROOT
ATOM      1  O   UNL     1      30.846 -10.667 -20.233  0.00  0.00    -0.270 OA
ATOM      2  O   UNL     1      32.088 -14.899 -21.545  0.00  0.00    -0.270 OA
ATOM      3  N   UNL     1      33.930  -9.360 -24.300  0.00  0.00    -0.327 N 
ATOM      4  N   UNL     1      31.258 -12.931 -20.610  0.00  0.00    -0.248 N 
ATOM      5  C   UNL     1      32.724 -10.316 -22.679  0.00  0.00    +0.022 A 
ATOM      6  C   UNL     1      33.578 -10.574 -23.763  0.00  0.00    +0.060 A 
ATOM      7  C   UNL     1      32.578  -8.891 -22.584  0.00  0.00    +0.020 A 
ATOM      8  C   UNL     1      33.343  -8.328 -23.610  0.00  0.00    +0.060 A 
ATOM      9  C   UNL     1      32.256 -11.446 -21.998  0.00  0.00    +0.060 C 
ATOM     10  C   UNL     1      32.628 -12.732 -22.391  0.00  0.00    +0.058 C 
ATOM     11  C   UNL     1      33.958 -11.873 -24.165  0.00  0.00    +0.017 C 
ATOM     12  C   UNL     1      33.467 -12.973 -23.456  0.00  0.00    +0.006 C 
ATOM     13  C   UNL     1      31.369 -11.579 -20.844  0.00  0.00    +0.252 C 
ATOM     14  C   UNL     1      31.874  -8.011 -21.734  0.00  0.00    +0.038 C 
ATOM     15  C   UNL     1      33.438  -6.948 -23.824  0.00  0.00    +0.020 C 
ATOM     16  C   UNL     1      31.984 -13.689 -21.494  0.00  0.00    +0.252 C 
ATOM     17  C   UNL     1      31.959  -6.628 -21.935  0.00  0.00    +0.134 C 
ATOM     18  C   UNL     1      32.731  -6.105 -22.966  0.00  0.00    +0.038 C 
ATOM     19  H   UNL     1      30.715 -13.314 -19.884  0.00  0.00    +0.158 HD
ENDROOT
BRANCH  12  20
ATOM     20  C   UNL     1      33.851 -14.307 -23.863  0.00  0.00    +0.000 C 
ATOM     21  C   UNL     1      34.715 -15.057 -23.065  0.00  0.00    +0.000 C 
ATOM     22  C   UNL     1      33.357 -14.844 -25.051  0.00  0.00    +0.000 C 
ATOM     23  C   UNL     1      35.086 -16.344 -23.456  0.00  0.00    +0.000 C 
ATOM     24  C   UNL     1      33.727 -16.131 -25.442  0.00  0.00    +0.000 C 
ATOM     25  C   UNL     1      34.592 -16.881 -24.645  0.00  0.00    +0.000 C 
ENDBRANCH  12  20
BRANCH  17  26
ATOM     26  O   UNL     1      31.276  -5.785 -21.108  0.00  0.00    -0.506 OA
ATOM     27  H   UNL     1      31.240  -5.960 -20.188  0.00  0.00    +0.292 HD
ENDBRANCH  17  26
BRANCH   3  28
ATOM     28  C   UNL     1      34.806  -9.191 -25.443  0.00  0.00    +0.118 C 
BRANCH  28  29
ATOM     29  C   UNL     1      35.668 -10.419 -25.737  0.00  0.00    +0.134 C 
BRANCH  29  31
ATOM     30  O   UNL     1      34.365 -11.988 -27.073  0.00  0.00    -0.250 OA
ATOM     31  C   UNL     1      35.258 -11.157 -26.993  0.00  0.00    +0.316 C 
BRANCH  31  32
ATOM     32  O   UNL     1      35.994 -10.759 -28.066  0.00  0.00    -0.480 OA
ATOM     33  H   UNL     1      36.874 -10.461 -27.944  0.00  0.00    +0.295 HD
ENDBRANCH  31  32
ENDBRANCH  29  31
ENDBRANCH  28  29
ENDBRANCH   3  28
TORSDOF 6
ENDMDL
MODEL 9
REMARK VINA RESULT:      -7.5      7.443     12.602
REMARK  Name = 9978312
REMARK  6 active torsions:
REMARK  status: ('A' for Active; 'I' for Inactive)
REMARK    1  A    between atoms: N_3  and  C_28
REMARK    2  A    between atoms: C_12  and  C_20
REMARK    3  A    between atoms: C_17  and  O_26
REMARK    4  A    between atoms: C_28  and  C_29
REMARK    5  A    between atoms: C_29  and  C_31
REMARK    6  A    between atoms: C_31  and  O_32
REMARK                            x       y       z     vdW  Elec       q    Type
REMARK                         _______ _______ _______ _____ _____    ______ ____
ROOT
ATOM      1  O   UNL     1      32.118 -24.122 -13.801  0.00  0.00    -0.270 OA
ATOM      2  O   UNL     1      31.821 -22.333 -18.029  0.00  0.00    -0.270 OA
ATOM      3  N   UNL     1      37.253 -23.343 -14.691  0.00  0.00    -0.327 N 
ATOM      4  N   UNL     1      31.593 -23.261 -15.903  0.00  0.00    -0.248 N 
ATOM      5  C   UNL     1      35.023 -23.510 -14.704  0.00  0.00    +0.022 A 
ATOM      6  C   UNL     1      36.137 -23.101 -15.455  0.00  0.00    +0.060 A 
ATOM      7  C   UNL     1      35.517 -24.010 -13.453  0.00  0.00    +0.020 A 
ATOM      8  C   UNL     1      36.909 -23.891 -13.479  0.00  0.00    +0.060 A 
ATOM      9  C   UNL     1      33.781 -23.338 -15.327  0.00  0.00    +0.060 C 
ATOM     10  C   UNL     1      33.684 -22.797 -16.608  0.00  0.00    +0.058 C 
ATOM     11  C   UNL     1      36.045 -22.552 -16.752  0.00  0.00    +0.017 C 
ATOM     12  C   UNL     1      34.784 -22.399 -17.336  0.00  0.00    +0.006 C 
ATOM     13  C   UNL     1      32.425 -23.639 -14.873  0.00  0.00    +0.252 C 
ATOM     14  C   UNL     1      34.929 -24.555 -12.291  0.00  0.00    +0.038 C 
ATOM     15  C   UNL     1      37.732 -24.284 -12.416  0.00  0.00    +0.020 C 
ATOM     16  C   UNL     1      32.271 -22.748 -16.979  0.00  0.00    +0.252 C 
ATOM     17  C   UNL     1      35.737 -24.954 -11.219  0.00  0.00    +0.134 C 
ATOM     18  C   UNL     1      37.120 -24.820 -11.283  0.00  0.00    +0.038 C 
ATOM     19  H   UNL     1      30.613 -23.351 -15.870  0.00  0.00    +0.158 HD
ENDROOT
BRANCH  12  20
ATOM     20  C   UNL     1      34.681 -21.836 -18.665  0.00  0.00    +0.000 C 
ATOM     21  C   UNL     1      35.826 -21.682 -19.447  0.00  0.00    +0.000 C 
ATOM     22  C   UNL     1      33.438 -21.448 -19.164  0.00  0.00    +0.000 C 
ATOM     23  C   UNL     1      35.728 -21.140 -20.729  0.00  0.00    +0.000 C 
ATOM     24  C   UNL     1      33.340 -20.906 -20.445  0.00  0.00    +0.000 C 
ATOM     25  C   UNL     1      34.485 -20.751 -21.228  0.00  0.00    +0.000 C 
ENDBRANCH  12  20
BRANCH  17  26
ATOM     26  O   UNL     1      35.160 -25.481 -10.101  0.00  0.00    -0.506 OA
ATOM     27  H   UNL     1      35.044 -24.948  -9.339  0.00  0.00    +0.292 HD
ENDBRANCH  17  26
BRANCH   3  28
ATOM     28  C   UNL     1      38.612 -23.057 -15.107  0.00  0.00    +0.118 C 
BRANCH  28  29
ATOM     29  C   UNL     1      39.235 -24.168 -15.954  0.00  0.00    +0.134 C 
BRANCH  29  31
ATOM     30  O   UNL     1      40.683 -24.761 -14.085  0.00  0.00    -0.250 OA
ATOM     31  C   UNL     1      40.246 -25.005 -15.200  0.00  0.00    +0.316 C 
BRANCH  31  32
ATOM     32  O   UNL     1      40.604 -26.109 -15.908  0.00  0.00    -0.480 OA
ATOM     33  H   UNL     1      40.326 -26.958 -15.623  0.00  0.00    +0.295 HD
ENDBRANCH  31  32
ENDBRANCH  29  31
ENDBRANCH  28  29
ENDBRANCH   3  28
TORSDOF 6
ENDMDL
