MODEL 1
REMARK VINA RESULT:      -7.1      0.000      0.000
REMARK  Name = 445144
REMARK  4 active torsions:
REMARK  status: ('A' for Active; 'I' for Inactive)
REMARK    1  A    between atoms: C_1  and  C_3
REMARK    2  A    between atoms: C_1  and  O_9
REMARK    3  A    between atoms: C_1  and  C_12
REMARK    4  A    between atoms: C_12  and  O_13
REMARK                            x       y       z     vdW  Elec       q    Type
REMARK                         _______ _______ _______ _____ _____    ______ ____
ROOT
ATOM      1  C   UNL     1      35.505 -18.530 -21.869  0.00  0.00    +0.196 C 
ATOM      2  C   UNL     1      35.273 -18.636 -23.399  0.00  0.00    +0.045 C 
ENDROOT
BRANCH   1   3
ATOM      3  C   UNL     1      34.853 -19.573 -21.024  0.00  0.00    +0.012 C 
ATOM      4  C   UNL     1      35.633 -20.512 -20.348  0.00  0.00    -0.002 C 
ATOM      5  C   UNL     1      33.463 -19.609 -20.911  0.00  0.00    -0.002 C 
ATOM      6  C   UNL     1      35.023 -21.487 -19.560  0.00  0.00    -0.000 C 
ATOM      7  C   UNL     1      32.853 -20.584 -20.122  0.00  0.00    -0.000 C 
ATOM      8  C   UNL     1      33.633 -21.523 -19.446  0.00  0.00    -0.000 C 
ENDBRANCH   1   3
BRANCH   1   9
ATOM      9  O   UNL     1      36.923 -18.634 -21.673  0.00  0.00    -0.373 OA
ATOM     10  H   UNL     1      37.106 -18.866 -20.749  0.00  0.00    +0.211 HD
ENDBRANCH   1   9
BRANCH   1  12
ATOM     11  O   UNL     1      35.211 -16.632 -20.366  0.00  0.00    -0.247 OA
ATOM     12  C   UNL     1      35.018 -17.119 -21.475  0.00  0.00    +0.342 C 
BRANCH  12  13
ATOM     13  O   UNL     1      34.349 -16.459 -22.451  0.00  0.00    -0.478 OA
ATOM     14  H   UNL     1      33.418 -16.546 -22.523  0.00  0.00    +0.295 HD
ENDBRANCH  12  13
ENDBRANCH   1  12
TORSDOF 4
ENDMDL
MODEL 2
REMARK VINA RESULT:      -6.7      1.102      2.225
REMARK  Name = 445144
REMARK  4 active torsions:
REMARK  status: ('A' for Active; 'I' for Inactive)
REMARK    1  A    between atoms: C_1  and  C_3
REMARK    2  A    between atoms: C_1  and  O_9
REMARK    3  A    between atoms: C_1  and  C_12
REMARK    4  A    between atoms: C_12  and  O_13
REMARK                            x       y       z     vdW  Elec       q    Type
REMARK                         _______ _______ _______ _____ _____    ______ ____
ROOT
ATOM      1  C   UNL     1      35.561 -18.647 -21.516  0.00  0.00    +0.196 C 
ATOM      2  C   UNL     1      37.093 -18.799 -21.708  0.00  0.00    +0.045 C 
ENDROOT
BRANCH   1   3
ATOM      3  C   UNL     1      34.874 -19.741 -20.770  0.00  0.00    +0.012 C 
ATOM      4  C   UNL     1      33.482 -19.753 -20.674  0.00  0.00    -0.002 C 
ATOM      5  C   UNL     1      35.624 -20.751 -20.168  0.00  0.00    -0.002 C 
ATOM      6  C   UNL     1      32.840 -20.776 -19.977  0.00  0.00    -0.000 C 
ATOM      7  C   UNL     1      34.981 -21.774 -19.470  0.00  0.00    -0.000 C 
ATOM      8  C   UNL     1      33.589 -21.786 -19.375  0.00  0.00    -0.000 C 
ENDBRANCH   1   3
BRANCH   1   9
ATOM      9  O   UNL     1      35.371 -17.430 -20.779  0.00  0.00    -0.373 OA
ATOM     10  H   UNL     1      34.486 -17.078 -20.959  0.00  0.00    +0.211 HD
ENDBRANCH   1   9
BRANCH   1  12
ATOM     11  O   UNL     1      34.928 -19.429 -23.737  0.00  0.00    -0.247 OA
ATOM     12  C   UNL     1      34.980 -18.500 -22.938  0.00  0.00    +0.342 C 
BRANCH  12  13
ATOM     13  O   UNL     1      34.535 -17.257 -23.242  0.00  0.00    -0.478 OA
ATOM     14  H   UNL     1      34.555 -16.580 -22.593  0.00  0.00    +0.295 HD
ENDBRANCH  12  13
ENDBRANCH   1  12
TORSDOF 4
ENDMDL
MODEL 3
REMARK VINA RESULT:      -6.3      1.543      4.363
REMARK  Name = 445144
REMARK  4 active torsions:
REMARK  status: ('A' for Active; 'I' for Inactive)
REMARK    1  A    between atoms: C_1  and  C_3
REMARK    2  A    between atoms: C_1  and  O_9
REMARK    3  A    between atoms: C_1  and  C_12
REMARK    4  A    between atoms: C_12  and  O_13
REMARK                            x       y       z     vdW  Elec       q    Type
REMARK                         _______ _______ _______ _____ _____    ______ ____
ROOT
ATOM      1  C   UNL     1      35.180 -18.407 -21.278  0.00  0.00    +0.196 C 
ATOM      2  C   UNL     1      34.200 -19.446 -20.673  0.00  0.00    +0.045 C 
ENDROOT
BRANCH   1   3
ATOM      3  C   UNL     1      34.952 -18.029 -22.703  0.00  0.00    +0.012 C 
ATOM      4  C   UNL     1      35.007 -16.690 -23.088  0.00  0.00    -0.002 C 
ATOM      5  C   UNL     1      34.683 -19.017 -23.651  0.00  0.00    -0.002 C 
ATOM      6  C   UNL     1      34.793 -16.338 -24.420  0.00  0.00    -0.000 C 
ATOM      7  C   UNL     1      34.470 -18.665 -24.984  0.00  0.00    -0.000 C 
ATOM      8  C   UNL     1      34.525 -17.325 -25.368  0.00  0.00    -0.000 C 
ENDBRANCH   1   3
BRANCH   1   9
ATOM      9  O   UNL     1      35.041 -17.219 -20.484  0.00  0.00    -0.373 OA
ATOM     10  H   UNL     1      34.173 -17.219 -20.052  0.00  0.00    +0.211 HD
ENDBRANCH   1   9
BRANCH   1  12
ATOM     11  O   UNL     1      37.532 -18.749 -21.827  0.00  0.00    -0.247 OA
ATOM     12  C   UNL     1      36.589 -19.008 -21.087  0.00  0.00    +0.342 C 
BRANCH  12  13
ATOM     13  O   UNL     1      36.704 -19.856 -20.036  0.00  0.00    -0.478 OA
ATOM     14  H   UNL     1      36.409 -20.743 -20.115  0.00  0.00    +0.295 HD
ENDBRANCH  12  13
ENDBRANCH   1  12
TORSDOF 4
ENDMDL
MODEL 4
REMARK VINA RESULT:      -6.3      2.459      4.414
REMARK  Name = 445144
REMARK  4 active torsions:
REMARK  status: ('A' for Active; 'I' for Inactive)
REMARK    1  A    between atoms: C_1  and  C_3
REMARK    2  A    between atoms: C_1  and  O_9
REMARK    3  A    between atoms: C_1  and  C_12
REMARK    4  A    between atoms: C_12  and  O_13
REMARK                            x       y       z     vdW  Elec       q    Type
REMARK                         _______ _______ _______ _____ _____    ______ ____
ROOT
ATOM      1  C   UNL     1      34.945 -18.455 -22.001  0.00  0.00    +0.196 C 
ATOM      2  C   UNL     1      34.850 -19.230 -23.341  0.00  0.00    +0.045 C 
ENDROOT
BRANCH   1   3
ATOM      3  C   UNL     1      34.723 -16.982 -22.068  0.00  0.00    +0.012 C 
ATOM      4  C   UNL     1      34.607 -16.239 -20.893  0.00  0.00    -0.002 C 
ATOM      5  C   UNL     1      34.630 -16.347 -23.308  0.00  0.00    -0.002 C 
ATOM      6  C   UNL     1      34.398 -14.861 -20.958  0.00  0.00    -0.000 C 
ATOM      7  C   UNL     1      34.422 -14.969 -23.371  0.00  0.00    -0.000 C 
ATOM      8  C   UNL     1      34.306 -14.226 -22.196  0.00  0.00    -0.000 C 
ENDBRANCH   1   3
BRANCH   1   9
ATOM      9  O   UNL     1      33.934 -19.011 -21.147  0.00  0.00    -0.373 OA
ATOM     10  H   UNL     1      33.692 -18.362 -20.468  0.00  0.00    +0.211 HD
ENDBRANCH   1   9
BRANCH   1  12
ATOM     11  O   UNL     1      36.523 -19.294 -20.342  0.00  0.00    -0.247 OA
ATOM     12  C   UNL     1      36.347 -18.775 -21.438  0.00  0.00    +0.342 C 
BRANCH  12  13
ATOM     13  O   UNL     1      37.374 -18.429 -22.252  0.00  0.00    -0.478 OA
ATOM     14  H   UNL     1      37.327 -18.610 -23.170  0.00  0.00    +0.295 HD
ENDBRANCH  12  13
ENDBRANCH   1  12
TORSDOF 4
ENDMDL
MODEL 5
REMARK VINA RESULT:      -6.2      8.174      9.965
REMARK  Name = 445144
REMARK  4 active torsions:
REMARK  status: ('A' for Active; 'I' for Inactive)
REMARK    1  A    between atoms: C_1  and  C_3
REMARK    2  A    between atoms: C_1  and  O_9
REMARK    3  A    between atoms: C_1  and  C_12
REMARK    4  A    between atoms: C_12  and  O_13
REMARK                            x       y       z     vdW  Elec       q    Type
REMARK                         _______ _______ _______ _____ _____    ______ ____
ROOT
ATOM      1  C   UNL     1      38.072 -25.620 -13.808  0.00  0.00    +0.196 C 
ATOM      2  C   UNL     1      39.613 -25.439 -13.807  0.00  0.00    +0.045 C 
ENDROOT
BRANCH   1   3
ATOM      3  C   UNL     1      37.290 -24.645 -14.622  0.00  0.00    +0.012 C 
ATOM      4  C   UNL     1      37.943 -23.606 -15.285  0.00  0.00    -0.002 C 
ATOM      5  C   UNL     1      35.904 -24.773 -14.719  0.00  0.00    -0.002 C 
ATOM      6  C   UNL     1      37.210 -22.695 -16.045  0.00  0.00    -0.000 C 
ATOM      7  C   UNL     1      35.172 -23.861 -15.480  0.00  0.00    -0.000 C 
ATOM      8  C   UNL     1      35.825 -22.822 -16.143  0.00  0.00    -0.000 C 
ENDBRANCH   1   3
BRANCH   1   9
ATOM      9  O   UNL     1      37.826 -26.930 -14.341  0.00  0.00    -0.373 OA
ATOM     10  H   UNL     1      38.583 -27.505 -14.149  0.00  0.00    +0.211 HD
ENDBRANCH   1   9
BRANCH   1  12
ATOM     11  O   UNL     1      38.010 -24.675 -11.561  0.00  0.00    -0.247 OA
ATOM     12  C   UNL     1      37.649 -25.564 -12.325  0.00  0.00    +0.342 C 
BRANCH  12  13
ATOM     13  O   UNL     1      36.849 -26.582 -11.926  0.00  0.00    -0.478 OA
ATOM     14  H   UNL     1      37.212 -27.307 -11.454  0.00  0.00    +0.295 HD
ENDBRANCH  12  13
ENDBRANCH   1  12
TORSDOF 4
ENDMDL
MODEL 6
REMARK VINA RESULT:      -6.2      8.064      9.821
REMARK  Name = 445144
REMARK  4 active torsions:
REMARK  status: ('A' for Active; 'I' for Inactive)
REMARK    1  A    between atoms: C_1  and  C_3
REMARK    2  A    between atoms: C_1  and  O_9
REMARK    3  A    between atoms: C_1  and  C_12
REMARK    4  A    between atoms: C_12  and  O_13
REMARK                            x       y       z     vdW  Elec       q    Type
REMARK                         _______ _______ _______ _____ _____    ______ ____
ROOT
ATOM      1  C   UNL     1      37.282 -24.790 -12.818  0.00  0.00    +0.196 C 
ATOM      2  C   UNL     1      38.636 -25.495 -13.094  0.00  0.00    +0.045 C 
ENDROOT
BRANCH   1   3
ATOM      3  C   UNL     1      36.662 -24.070 -13.968  0.00  0.00    +0.012 C 
ATOM      4  C   UNL     1      37.467 -23.556 -14.986  0.00  0.00    -0.002 C 
ATOM      5  C   UNL     1      35.277 -23.910 -14.026  0.00  0.00    -0.002 C 
ATOM      6  C   UNL     1      36.886 -22.882 -16.060  0.00  0.00    -0.000 C 
ATOM      7  C   UNL     1      34.697 -23.237 -15.101  0.00  0.00    -0.000 C 
ATOM      8  C   UNL     1      35.501 -22.723 -16.118  0.00  0.00    -0.000 C 
ENDBRANCH   1   3
BRANCH   1   9
ATOM      9  O   UNL     1      36.372 -25.821 -12.407  0.00  0.00    -0.373 OA
ATOM     10  H   UNL     1      35.873 -25.521 -11.632  0.00  0.00    +0.211 HD
ENDBRANCH   1   9
BRANCH   1  12
ATOM     11  O   UNL     1      38.443 -22.981 -11.666  0.00  0.00    -0.247 OA
ATOM     12  C   UNL     1      37.552 -23.823 -11.645  0.00  0.00    +0.342 C 
BRANCH  12  13
ATOM     13  O   UNL     1      36.730 -23.984 -10.580  0.00  0.00    -0.478 OA
ATOM     14  H   UNL     1      35.965 -24.522 -10.655  0.00  0.00    +0.295 HD
ENDBRANCH  12  13
ENDBRANCH   1  12
TORSDOF 4
ENDMDL
MODEL 7
REMARK VINA RESULT:      -6.1      2.550      4.023
REMARK  Name = 445144
REMARK  4 active torsions:
REMARK  status: ('A' for Active; 'I' for Inactive)
REMARK    1  A    between atoms: C_1  and  C_3
REMARK    2  A    between atoms: C_1  and  O_9
REMARK    3  A    between atoms: C_1  and  C_12
REMARK    4  A    between atoms: C_12  and  O_13
REMARK                            x       y       z     vdW  Elec       q    Type
REMARK                         _______ _______ _______ _____ _____    ______ ____
ROOT
ATOM      1  C   UNL     1      34.123 -15.469 -21.670  0.00  0.00    +0.196 C 
ATOM      2  C   UNL     1      34.487 -14.152 -22.404  0.00  0.00    +0.045 C 
ENDROOT
BRANCH   1   3
ATOM      3  C   UNL     1      34.417 -16.738 -22.396  0.00  0.00    +0.012 C 
ATOM      4  C   UNL     1      34.540 -16.734 -23.786  0.00  0.00    -0.002 C 
ATOM      5  C   UNL     1      34.568 -17.929 -21.685  0.00  0.00    -0.002 C 
ATOM      6  C   UNL     1      34.814 -17.922 -24.464  0.00  0.00    -0.000 C 
ATOM      7  C   UNL     1      34.843 -19.116 -22.364  0.00  0.00    -0.000 C 
ATOM      8  C   UNL     1      34.966 -19.112 -23.754  0.00  0.00    -0.000 C 
ENDBRANCH   1   3
BRANCH   1   9
ATOM      9  O   UNL     1      34.889 -15.473 -20.456  0.00  0.00    -0.373 OA
ATOM     10  H   UNL     1      35.807 -15.714 -20.654  0.00  0.00    +0.211 HD
ENDBRANCH   1   9
BRANCH   1  12
ATOM     11  O   UNL     1      32.048 -16.099 -20.553  0.00  0.00    -0.247 OA
ATOM     12  C   UNL     1      32.617 -15.356 -21.345  0.00  0.00    +0.342 C 
BRANCH  12  13
ATOM     13  O   UNL     1      31.967 -14.373 -22.013  0.00  0.00    -0.478 OA
ATOM     14  H   UNL     1      31.312 -13.864 -21.577  0.00  0.00    +0.295 HD
ENDBRANCH  12  13
ENDBRANCH   1  12
TORSDOF 4
ENDMDL
MODEL 8
REMARK VINA RESULT:      -6.1      6.909      8.761
REMARK  Name = 445144
REMARK  4 active torsions:
REMARK  status: ('A' for Active; 'I' for Inactive)
REMARK    1  A    between atoms: C_1  and  C_3
REMARK    2  A    between atoms: C_1  and  O_9
REMARK    3  A    between atoms: C_1  and  C_12
REMARK    4  A    between atoms: C_12  and  O_13
REMARK                            x       y       z     vdW  Elec       q    Type
REMARK                         _______ _______ _______ _____ _____    ______ ____
ROOT
ATOM      1  C   UNL     1      31.603 -23.470 -14.339  0.00  0.00    +0.196 C 
ATOM      2  C   UNL     1      30.182 -22.902 -14.590  0.00  0.00    +0.045 C 
ENDROOT
BRANCH   1   3
ATOM      3  C   UNL     1      32.600 -23.273 -15.431  0.00  0.00    +0.012 C 
ATOM      4  C   UNL     1      33.963 -23.234 -15.133  0.00  0.00    -0.002 C 
ATOM      5  C   UNL     1      32.169 -23.125 -16.749  0.00  0.00    -0.002 C 
ATOM      6  C   UNL     1      34.894 -23.049 -16.155  0.00  0.00    -0.000 C 
ATOM      7  C   UNL     1      33.101 -22.940 -17.771  0.00  0.00    -0.000 C 
ATOM      8  C   UNL     1      34.464 -22.902 -17.474  0.00  0.00    -0.000 C 
ENDBRANCH   1   3
BRANCH   1   9
ATOM      9  O   UNL     1      32.099 -22.802 -13.169  0.00  0.00    -0.373 OA
ATOM     10  H   UNL     1      31.421 -22.197 -12.831  0.00  0.00    +0.211 HD
ENDBRANCH   1   9
BRANCH   1  12
ATOM     11  O   UNL     1      30.573 -25.662 -14.631  0.00  0.00    -0.247 OA
ATOM     12  C   UNL     1      31.401 -24.972 -14.044  0.00  0.00    +0.342 C 
BRANCH  12  13
ATOM     13  O   UNL     1      32.206 -25.472 -13.076  0.00  0.00    -0.478 OA
ATOM     14  H   UNL     1      32.331 -24.996 -12.278  0.00  0.00    +0.295 HD
ENDBRANCH  12  13
ENDBRANCH   1  12
TORSDOF 4
ENDMDL
MODEL 9
REMARK VINA RESULT:      -6.1      7.678      9.469
REMARK  Name = 445144
REMARK  4 active torsions:
REMARK  status: ('A' for Active; 'I' for Inactive)
REMARK    1  A    between atoms: C_1  and  C_3
REMARK    2  A    between atoms: C_1  and  O_9
REMARK    3  A    between atoms: C_1  and  C_12
REMARK    4  A    between atoms: C_12  and  O_13
REMARK                            x       y       z     vdW  Elec       q    Type
REMARK                         _______ _______ _______ _____ _____    ______ ____
ROOT
ATOM      1  C   UNL     1      38.229 -24.788 -13.707  0.00  0.00    +0.196 C 
ATOM      2  C   UNL     1      37.723 -26.041 -12.945  0.00  0.00    +0.045 C 
ENDROOT
BRANCH   1   3
ATOM      3  C   UNL     1      37.252 -24.126 -14.618  0.00  0.00    +0.012 C 
ATOM      4  C   UNL     1      35.918 -24.536 -14.629  0.00  0.00    -0.002 C 
ATOM      5  C   UNL     1      37.672 -23.095 -15.460  0.00  0.00    -0.002 C 
ATOM      6  C   UNL     1      35.005 -23.916 -15.482  0.00  0.00    -0.000 C 
ATOM      7  C   UNL     1      36.758 -22.475 -16.312  0.00  0.00    -0.000 C 
ATOM      8  C   UNL     1      35.424 -22.885 -16.323  0.00  0.00    -0.000 C 
ENDBRANCH   1   3
BRANCH   1   9
ATOM      9  O   UNL     1      38.605 -23.835 -12.702  0.00  0.00    -0.373 OA
ATOM     10  H   UNL     1      39.272 -24.227 -12.118  0.00  0.00    +0.211 HD
ENDBRANCH   1   9
BRANCH   1  12
ATOM     11  O   UNL     1      40.606 -24.837 -14.252  0.00  0.00    -0.247 OA
ATOM     12  C   UNL     1      39.478 -25.256 -14.486  0.00  0.00    +0.342 C 
BRANCH  12  13
ATOM     13  O   UNL     1      39.229 -26.164 -15.460  0.00  0.00    -0.478 OA
ATOM     14  H   UNL     1      39.122 -27.069 -15.241  0.00  0.00    +0.295 HD
ENDBRANCH  12  13
ENDBRANCH   1  12
TORSDOF 4
ENDMDL
