MODEL 1
REMARK VINA RESULT:      -8.3      0.000      0.000
REMARK  Name = 36131
REMARK  9 active torsions:
REMARK  status: ('A' for Active; 'I' for Inactive)
REMARK    1  A    between atoms: N_2  and  C_14
REMARK    2  A    between atoms: N_2  and  C_22
REMARK    3  A    between atoms: C_3  and  C_4
REMARK    4  A    between atoms: C_14  and  C_15
REMARK    5  A    between atoms: C_15  and  N_16
REMARK    6  A    between atoms: N_16  and  C_18
REMARK    7  A    between atoms: N_16  and  C_20
REMARK    8  A    between atoms: C_22  and  C_23
REMARK    9  A    between atoms: C_23  and  C_24
REMARK                            x       y       z     vdW  Elec       q    Type
REMARK                         _______ _______ _______ _____ _____    ______ ____
ROOT
ATOM      1  O   UNL     1      35.139  -8.378 -23.641  0.00  0.00    -0.270 OA
ATOM      2  N   UNL     1      33.540 -10.071 -23.434  0.00  0.00    -0.278 N 
ATOM      3  C   UNL     1      34.036  -8.771 -23.246  0.00  0.00    +0.249 C 
ENDROOT
BRANCH   3   4
ATOM      4  C   UNL     1      33.201  -7.794 -22.552  0.00  0.00    +0.054 C 
ATOM      5  C   UNL     1      32.627  -6.693 -23.207  0.00  0.00    +0.004 C 
ATOM      6  C   UNL     1      31.828  -5.788 -22.469  0.00  0.00    +0.000 C 
ATOM      7  C   UNL     1      32.990  -8.001 -21.189  0.00  0.00    +0.005 C 
ATOM      8  C   UNL     1      32.829  -6.470 -24.580  0.00  0.00    +0.000 C 
ATOM      9  C   UNL     1      31.626  -6.011 -21.097  0.00  0.00    +0.000 C 
ATOM     10  C   UNL     1      32.203  -7.111 -20.462  0.00  0.00    +0.000 C 
ATOM     11  C   UNL     1      31.254  -4.686 -23.124  0.00  0.00    +0.000 C 
ATOM     12  C   UNL     1      32.252  -5.370 -25.214  0.00  0.00    +0.000 C 
ATOM     13  C   UNL     1      31.465  -4.480 -24.488  0.00  0.00    +0.000 C 
ENDBRANCH   3   4
BRANCH   2  14
ATOM     14  C   UNL     1      32.226 -10.481 -22.946  0.00  0.00    +0.071 C 
BRANCH  14  15
ATOM     15  C   UNL     1      32.185 -11.975 -22.661  0.00  0.00    -0.055 C 
BRANCH  15  16
ATOM     16  N   UNL     1      31.410 -12.241 -21.456  0.00  0.00    +0.388 N 
ATOM     17  H   UNL     1      30.588 -12.784 -21.721  0.00  0.00    -0.080 HD
BRANCH  16  18
ATOM     18  C   UNL     1      32.195 -13.023 -20.498  0.00  0.00    -0.077 C 
ATOM     19  C   UNL     1      32.639 -14.345 -21.103  0.00  0.00    -0.025 C 
ENDBRANCH  16  18
BRANCH  16  20
ATOM     20  C   UNL     1      30.964 -10.988 -20.842  0.00  0.00    -0.077 C 
ATOM     21  C   UNL     1      31.357 -10.926 -19.375  0.00  0.00    -0.025 C 
ENDBRANCH  16  20
ENDBRANCH  15  16
ENDBRANCH  14  15
ENDBRANCH   2  14
BRANCH   2  22
ATOM     22  C   UNL     1      34.303 -11.098 -24.130  0.00  0.00    +0.094 C 
BRANCH  22  23
ATOM     23  C   UNL     1      33.811 -11.322 -25.556  0.00  0.00    +0.022 C 
BRANCH  23  24
ATOM     24  C   UNL     1      33.477 -12.789 -25.839  0.00  0.00    +0.002 C 
ATOM     25  C   UNL     1      33.482 -13.081 -27.332  0.00  0.00    +0.000 C 
ENDBRANCH  23  24
ENDBRANCH  22  23
ENDBRANCH   2  22
TORSDOF 9
ENDMDL
MODEL 2
REMARK VINA RESULT:      -8.2      3.139      8.568
REMARK  Name = 36131
REMARK  9 active torsions:
REMARK  status: ('A' for Active; 'I' for Inactive)
REMARK    1  A    between atoms: N_2  and  C_14
REMARK    2  A    between atoms: N_2  and  C_22
REMARK    3  A    between atoms: C_3  and  C_4
REMARK    4  A    between atoms: C_14  and  C_15
REMARK    5  A    between atoms: C_15  and  N_16
REMARK    6  A    between atoms: N_16  and  C_18
REMARK    7  A    between atoms: N_16  and  C_20
REMARK    8  A    between atoms: C_22  and  C_23
REMARK    9  A    between atoms: C_23  and  C_24
REMARK                            x       y       z     vdW  Elec       q    Type
REMARK                         _______ _______ _______ _____ _____    ______ ____
ROOT
ATOM      1  O   UNL     1      31.978 -15.031 -21.525  0.00  0.00    -0.270 OA
ATOM      2  N   UNL     1      32.636 -13.089 -22.647  0.00  0.00    -0.278 N 
ATOM      3  C   UNL     1      32.627 -14.474 -22.417  0.00  0.00    +0.249 C 
ENDROOT
BRANCH   3   4
ATOM      4  C   UNL     1      33.418 -15.336 -23.290  0.00  0.00    +0.054 C 
ATOM      5  C   UNL     1      34.272 -16.333 -22.791  0.00  0.00    +0.004 C 
ATOM      6  C   UNL     1      35.008 -17.131 -23.698  0.00  0.00    +0.000 C 
ATOM      7  C   UNL     1      33.292 -15.128 -24.663  0.00  0.00    +0.005 C 
ATOM      8  C   UNL     1      34.411 -16.556 -21.411  0.00  0.00    +0.000 C 
ATOM      9  C   UNL     1      34.869 -16.909 -25.078  0.00  0.00    +0.000 C 
ATOM     10  C   UNL     1      34.016 -15.913 -25.556  0.00  0.00    +0.000 C 
ATOM     11  C   UNL     1      35.863 -18.128 -23.200  0.00  0.00    +0.000 C 
ATOM     12  C   UNL     1      35.264 -17.550 -20.933  0.00  0.00    +0.000 C 
ATOM     13  C   UNL     1      35.989 -18.335 -21.826  0.00  0.00    +0.000 C 
ENDBRANCH   3   4
BRANCH   2  14
ATOM     14  C   UNL     1      33.423 -12.483 -23.719  0.00  0.00    +0.071 C 
BRANCH  14  15
ATOM     15  C   UNL     1      33.565 -10.981 -23.516  0.00  0.00    -0.055 C 
BRANCH  15  16
ATOM     16  N   UNL     1      34.730 -10.481 -24.237  0.00  0.00    +0.388 N 
ATOM     17  H   UNL     1      35.565 -10.877 -23.803  0.00  0.00    -0.080 HD
BRANCH  16  18
ATOM     18  C   UNL     1      34.689 -10.902 -25.639  0.00  0.00    -0.077 C 
ATOM     19  C   UNL     1      35.842 -10.301 -26.425  0.00  0.00    -0.025 C 
ENDBRANCH  16  18
BRANCH  16  20
ATOM     20  C   UNL     1      34.804  -9.022 -24.148  0.00  0.00    -0.077 C 
ATOM     21  C   UNL     1      33.669  -8.464 -23.306  0.00  0.00    -0.025 C 
ENDBRANCH  16  20
ENDBRANCH  15  16
ENDBRANCH  14  15
ENDBRANCH   2  14
BRANCH   2  22
ATOM     22  C   UNL     1      31.861 -12.162 -21.833  0.00  0.00    +0.094 C 
BRANCH  22  23
ATOM     23  C   UNL     1      32.148 -12.315 -20.344  0.00  0.00    +0.022 C 
BRANCH  23  24
ATOM     24  C   UNL     1      31.463 -11.239 -19.499  0.00  0.00    +0.002 C 
ATOM     25  C   UNL     1      31.832  -9.842 -19.973  0.00  0.00    +0.000 C 
ENDBRANCH  23  24
ENDBRANCH  22  23
ENDBRANCH   2  22
TORSDOF 9
ENDMDL
MODEL 3
REMARK VINA RESULT:      -7.9      1.785      4.268
REMARK  Name = 36131
REMARK  9 active torsions:
REMARK  status: ('A' for Active; 'I' for Inactive)
REMARK    1  A    between atoms: N_2  and  C_14
REMARK    2  A    between atoms: N_2  and  C_22
REMARK    3  A    between atoms: C_3  and  C_4
REMARK    4  A    between atoms: C_14  and  C_15
REMARK    5  A    between atoms: C_15  and  N_16
REMARK    6  A    between atoms: N_16  and  C_18
REMARK    7  A    between atoms: N_16  and  C_20
REMARK    8  A    between atoms: C_22  and  C_23
REMARK    9  A    between atoms: C_23  and  C_24
REMARK                            x       y       z     vdW  Elec       q    Type
REMARK                         _______ _______ _______ _____ _____    ______ ____
ROOT
ATOM      1  O   UNL     1      32.815  -6.546 -21.488  0.00  0.00    -0.270 OA
ATOM      2  N   UNL     1      32.441  -8.625 -22.488  0.00  0.00    -0.278 N 
ATOM      3  C   UNL     1      32.825  -7.275 -22.486  0.00  0.00    +0.249 C 
ENDROOT
BRANCH   3   4
ATOM      4  C   UNL     1      33.288  -6.673 -23.733  0.00  0.00    +0.054 C 
ATOM      5  C   UNL     1      32.555  -5.684 -24.410  0.00  0.00    +0.004 C 
ATOM      6  C   UNL     1      33.067  -5.148 -25.614  0.00  0.00    +0.000 C 
ATOM      7  C   UNL     1      34.507  -7.126 -24.237  0.00  0.00    +0.005 C 
ATOM      8  C   UNL     1      31.326  -5.216 -23.916  0.00  0.00    +0.000 C 
ATOM      9  C   UNL     1      34.296  -5.615 -26.108  0.00  0.00    +0.000 C 
ATOM     10  C   UNL     1      35.010  -6.598 -25.423  0.00  0.00    +0.000 C 
ATOM     11  C   UNL     1      32.335  -4.158 -26.292  0.00  0.00    +0.000 C 
ATOM     12  C   UNL     1      30.611  -4.234 -24.601  0.00  0.00    +0.000 C 
ATOM     13  C   UNL     1      31.115  -3.706 -25.787  0.00  0.00    +0.000 C 
ENDBRANCH   3   4
BRANCH   2  14
ATOM     14  C   UNL     1      32.475  -9.441 -23.700  0.00  0.00    +0.071 C 
BRANCH  14  15
ATOM     15  C   UNL     1      33.741 -10.284 -23.762  0.00  0.00    -0.055 C 
BRANCH  15  16
ATOM     16  N   UNL     1      33.505 -11.497 -24.535  0.00  0.00    +0.388 N 
ATOM     17  H   UNL     1      32.514 -11.532 -24.775  0.00  0.00    -0.080 HD
BRANCH  16  18
ATOM     18  C   UNL     1      34.283 -11.478 -25.776  0.00  0.00    -0.077 C 
ATOM     19  C   UNL     1      35.377 -10.425 -25.721  0.00  0.00    -0.025 C 
ENDBRANCH  16  18
BRANCH  16  20
ATOM     20  C   UNL     1      33.837 -12.685 -23.746  0.00  0.00    -0.077 C 
ATOM     21  C   UNL     1      32.589 -13.478 -23.397  0.00  0.00    -0.025 C 
ENDBRANCH  16  20
ENDBRANCH  15  16
ENDBRANCH  14  15
ENDBRANCH   2  14
BRANCH   2  22
ATOM     22  C   UNL     1      31.985  -9.304 -21.284  0.00  0.00    +0.094 C 
BRANCH  22  23
ATOM     23  C   UNL     1      31.212 -10.581 -21.592  0.00  0.00    +0.022 C 
BRANCH  23  24
ATOM     24  C   UNL     1      31.168 -11.545 -20.403  0.00  0.00    +0.002 C 
ATOM     25  C   UNL     1      31.455 -10.824 -19.095  0.00  0.00    +0.000 C 
ENDBRANCH  23  24
ENDBRANCH  22  23
ENDBRANCH   2  22
TORSDOF 9
ENDMDL
MODEL 4
REMARK VINA RESULT:      -7.9     14.087     17.997
REMARK  Name = 36131
REMARK  9 active torsions:
REMARK  status: ('A' for Active; 'I' for Inactive)
REMARK    1  A    between atoms: N_2  and  C_14
REMARK    2  A    between atoms: N_2  and  C_22
REMARK    3  A    between atoms: C_3  and  C_4
REMARK    4  A    between atoms: C_14  and  C_15
REMARK    5  A    between atoms: C_15  and  N_16
REMARK    6  A    between atoms: N_16  and  C_18
REMARK    7  A    between atoms: N_16  and  C_20
REMARK    8  A    between atoms: C_22  and  C_23
REMARK    9  A    between atoms: C_23  and  C_24
REMARK                            x       y       z     vdW  Elec       q    Type
REMARK                         _______ _______ _______ _____ _____    ______ ____
ROOT
ATOM      1  O   UNL     1      32.947 -25.003 -13.189  0.00  0.00    -0.270 OA
ATOM      2  N   UNL     1      33.592 -23.504 -14.863  0.00  0.00    -0.278 N 
ATOM      3  C   UNL     1      33.808 -24.295 -13.723  0.00  0.00    +0.249 C 
ENDROOT
BRANCH   3   4
ATOM      4  C   UNL     1      35.138 -24.311 -13.121  0.00  0.00    +0.054 C 
ATOM      5  C   UNL     1      36.196 -25.070 -13.648  0.00  0.00    +0.004 C 
ATOM      6  C   UNL     1      37.457 -25.035 -13.010  0.00  0.00    +0.000 C 
ATOM      7  C   UNL     1      35.323 -23.529 -11.981  0.00  0.00    +0.005 C 
ATOM      8  C   UNL     1      36.027 -25.862 -14.796  0.00  0.00    +0.000 C 
ATOM      9  C   UNL     1      37.626 -24.242 -11.863  0.00  0.00    +0.000 C 
ATOM     10  C   UNL     1      36.565 -23.494 -11.352  0.00  0.00    +0.000 C 
ATOM     11  C   UNL     1      38.516 -25.794 -13.538  0.00  0.00    +0.000 C 
ATOM     12  C   UNL     1      37.088 -26.610 -15.306  0.00  0.00    +0.000 C 
ATOM     13  C   UNL     1      38.330 -26.576 -14.678  0.00  0.00    +0.000 C 
ENDBRANCH   3   4
BRANCH   2  14
ATOM     14  C   UNL     1      34.649 -22.686 -15.453  0.00  0.00    +0.071 C 
BRANCH  14  15
ATOM     15  C   UNL     1      34.663 -22.815 -16.970  0.00  0.00    -0.055 C 
BRANCH  15  16
ATOM     16  N   UNL     1      35.992 -22.523 -17.491  0.00  0.00    +0.388 N 
ATOM     17  H   UNL     1      36.425 -23.405 -17.767  0.00  0.00    -0.080 HD
BRANCH  16  18
ATOM     18  C   UNL     1      35.906 -21.659 -18.670  0.00  0.00    -0.077 C 
ATOM     19  C   UNL     1      34.551 -21.786 -19.346  0.00  0.00    -0.025 C 
ENDBRANCH  16  18
BRANCH  16  20
ATOM     20  C   UNL     1      36.824 -21.896 -16.463  0.00  0.00    -0.077 C 
ATOM     21  C   UNL     1      37.930 -22.831 -16.005  0.00  0.00    -0.025 C 
ENDBRANCH  16  20
ENDBRANCH  15  16
ENDBRANCH  14  15
ENDBRANCH   2  14
BRANCH   2  22
ATOM     22  C   UNL     1      32.301 -23.446 -15.533  0.00  0.00    +0.094 C 
BRANCH  22  23
ATOM     23  C   UNL     1      31.252 -22.703 -14.714  0.00  0.00    +0.022 C 
BRANCH  23  24
ATOM     24  C   UNL     1      29.839 -23.248 -14.934  0.00  0.00    +0.002 C 
ATOM     25  C   UNL     1      29.783 -24.752 -14.716  0.00  0.00    +0.000 C 
ENDBRANCH  23  24
ENDBRANCH  22  23
ENDBRANCH   2  22
TORSDOF 9
ENDMDL
MODEL 5
REMARK VINA RESULT:      -7.8      3.649      5.729
REMARK  Name = 36131
REMARK  9 active torsions:
REMARK  status: ('A' for Active; 'I' for Inactive)
REMARK    1  A    between atoms: N_2  and  C_14
REMARK    2  A    between atoms: N_2  and  C_22
REMARK    3  A    between atoms: C_3  and  C_4
REMARK    4  A    between atoms: C_14  and  C_15
REMARK    5  A    between atoms: C_15  and  N_16
REMARK    6  A    between atoms: N_16  and  C_18
REMARK    7  A    between atoms: N_16  and  C_20
REMARK    8  A    between atoms: C_22  and  C_23
REMARK    9  A    between atoms: C_23  and  C_24
REMARK                            x       y       z     vdW  Elec       q    Type
REMARK                         _______ _______ _______ _____ _____    ______ ____
ROOT
ATOM      1  O   UNL     1      32.350 -13.946 -26.281  0.00  0.00    -0.270 OA
ATOM      2  N   UNL     1      33.787 -15.111 -24.852  0.00  0.00    -0.278 N 
ATOM      3  C   UNL     1      33.004 -14.010 -25.234  0.00  0.00    +0.249 C 
ENDROOT
BRANCH   3   4
ATOM      4  C   UNL     1      32.929 -12.857 -24.342  0.00  0.00    +0.054 C 
ATOM      5  C   UNL     1      33.685 -11.692 -24.550  0.00  0.00    +0.004 C 
ATOM      6  C   UNL     1      33.559 -10.614 -23.643  0.00  0.00    +0.000 C 
ATOM      7  C   UNL     1      32.061 -12.958 -23.254  0.00  0.00    +0.005 C 
ATOM      8  C   UNL     1      34.563 -11.574 -25.641  0.00  0.00    +0.000 C 
ATOM      9  C   UNL     1      32.682 -10.732 -22.553  0.00  0.00    +0.000 C 
ATOM     10  C   UNL     1      31.938 -11.897 -22.361  0.00  0.00    +0.000 C 
ATOM     11  C   UNL     1      34.316  -9.449 -23.851  0.00  0.00    +0.000 C 
ATOM     12  C   UNL     1      35.307 -10.410 -25.832  0.00  0.00    +0.000 C 
ATOM     13  C   UNL     1      35.183  -9.349 -24.939  0.00  0.00    +0.000 C 
ENDBRANCH   3   4
BRANCH   2  14
ATOM     14  C   UNL     1      34.540 -15.132 -23.599  0.00  0.00    +0.071 C 
BRANCH  14  15
ATOM     15  C   UNL     1      33.809 -15.932 -22.531  0.00  0.00    -0.055 C 
BRANCH  15  16
ATOM     16  N   UNL     1      34.704 -16.230 -21.420  0.00  0.00    +0.388 N 
ATOM     17  H   UNL     1      35.661 -16.052 -21.727  0.00  0.00    -0.080 HD
BRANCH  16  18
ATOM     18  C   UNL     1      34.414 -15.362 -20.276  0.00  0.00    -0.077 C 
ATOM     19  C   UNL     1      32.966 -14.903 -20.290  0.00  0.00    -0.025 C 
ENDBRANCH  16  18
BRANCH  16  20
ATOM     20  C   UNL     1      34.593 -17.637 -21.029  0.00  0.00    -0.077 C 
ATOM     21  C   UNL     1      35.934 -18.343 -21.132  0.00  0.00    -0.025 C 
ENDBRANCH  16  20
ENDBRANCH  15  16
ENDBRANCH  14  15
ENDBRANCH   2  14
BRANCH   2  22
ATOM     22  C   UNL     1      33.902 -16.305 -25.676  0.00  0.00    +0.094 C 
BRANCH  22  23
ATOM     23  C   UNL     1      34.866 -17.329 -25.088  0.00  0.00    +0.022 C 
BRANCH  23  24
ATOM     24  C   UNL     1      34.307 -18.753 -25.124  0.00  0.00    +0.002 C 
ATOM     25  C   UNL     1      34.960 -19.633 -24.069  0.00  0.00    +0.000 C 
ENDBRANCH  23  24
ENDBRANCH  22  23
ENDBRANCH   2  22
TORSDOF 9
ENDMDL
MODEL 6
REMARK VINA RESULT:      -7.7     11.581     15.217
REMARK  Name = 36131
REMARK  9 active torsions:
REMARK  status: ('A' for Active; 'I' for Inactive)
REMARK    1  A    between atoms: N_2  and  C_14
REMARK    2  A    between atoms: N_2  and  C_22
REMARK    3  A    between atoms: C_3  and  C_4
REMARK    4  A    between atoms: C_14  and  C_15
REMARK    5  A    between atoms: C_15  and  N_16
REMARK    6  A    between atoms: N_16  and  C_18
REMARK    7  A    between atoms: N_16  and  C_20
REMARK    8  A    between atoms: C_22  and  C_23
REMARK    9  A    between atoms: C_23  and  C_24
REMARK                            x       y       z     vdW  Elec       q    Type
REMARK                         _______ _______ _______ _____ _____    ______ ____
ROOT
ATOM      1  O   UNL     1      32.483 -23.093 -18.312  0.00  0.00    -0.270 OA
ATOM      2  N   UNL     1      33.691 -23.096 -16.310  0.00  0.00    -0.278 N 
ATOM      3  C   UNL     1      33.499 -22.804 -17.670  0.00  0.00    +0.249 C 
ENDROOT
BRANCH   3   4
ATOM      4  C   UNL     1      34.553 -22.097 -18.393  0.00  0.00    +0.054 C 
ATOM      5  C   UNL     1      34.278 -21.199 -19.437  0.00  0.00    +0.004 C 
ATOM      6  C   UNL     1      35.351 -20.550 -20.091  0.00  0.00    +0.000 C 
ATOM      7  C   UNL     1      35.866 -22.352 -17.999  0.00  0.00    +0.005 C 
ATOM      8  C   UNL     1      32.961 -20.931 -19.845  0.00  0.00    +0.000 C 
ATOM      9  C   UNL     1      36.668 -20.818 -19.682  0.00  0.00    +0.000 C 
ATOM     10  C   UNL     1      36.923 -21.713 -18.643  0.00  0.00    +0.000 C 
ATOM     11  C   UNL     1      35.078 -19.652 -21.136  0.00  0.00    +0.000 C 
ATOM     12  C   UNL     1      32.707 -20.037 -20.885  0.00  0.00    +0.000 C 
ATOM     13  C   UNL     1      33.763 -19.398 -21.529  0.00  0.00    +0.000 C 
ENDBRANCH   3   4
BRANCH   2  14
ATOM     14  C   UNL     1      34.915 -22.730 -15.602  0.00  0.00    +0.071 C 
BRANCH  14  15
ATOM     15  C   UNL     1      35.362 -23.842 -14.663  0.00  0.00    -0.055 C 
BRANCH  15  16
ATOM     16  N   UNL     1      36.737 -23.620 -14.233  0.00  0.00    +0.388 N 
ATOM     17  H   UNL     1      37.083 -22.780 -14.699  0.00  0.00    -0.080 HD
BRANCH  16  18
ATOM     18  C   UNL     1      36.798 -23.409 -12.786  0.00  0.00    -0.077 C 
ATOM     19  C   UNL     1      35.510 -23.850 -12.112  0.00  0.00    -0.025 C 
ENDBRANCH  16  18
BRANCH  16  20
ATOM     20  C   UNL     1      37.586 -24.750 -14.617  0.00  0.00    -0.077 C 
ATOM     21  C   UNL     1      36.750 -25.961 -14.994  0.00  0.00    -0.025 C 
ENDBRANCH  16  20
ENDBRANCH  15  16
ENDBRANCH  14  15
ENDBRANCH   2  14
BRANCH   2  22
ATOM     22  C   UNL     1      32.683 -23.783 -15.515  0.00  0.00    +0.094 C 
BRANCH  22  23
ATOM     23  C   UNL     1      31.775 -22.815 -14.765  0.00  0.00    +0.022 C 
BRANCH  23  24
ATOM     24  C   UNL     1      30.298 -23.210 -14.847  0.00  0.00    +0.002 C 
ATOM     25  C   UNL     1      29.719 -22.912 -16.221  0.00  0.00    +0.000 C 
ENDBRANCH  23  24
ENDBRANCH  22  23
ENDBRANCH   2  22
TORSDOF 9
ENDMDL
MODEL 7
REMARK VINA RESULT:      -7.6     12.712     17.569
REMARK  Name = 36131
REMARK  9 active torsions:
REMARK  status: ('A' for Active; 'I' for Inactive)
REMARK    1  A    between atoms: N_2  and  C_14
REMARK    2  A    between atoms: N_2  and  C_22
REMARK    3  A    between atoms: C_3  and  C_4
REMARK    4  A    between atoms: C_14  and  C_15
REMARK    5  A    between atoms: C_15  and  N_16
REMARK    6  A    between atoms: N_16  and  C_18
REMARK    7  A    between atoms: N_16  and  C_20
REMARK    8  A    between atoms: C_22  and  C_23
REMARK    9  A    between atoms: C_23  and  C_24
REMARK                            x       y       z     vdW  Elec       q    Type
REMARK                         _______ _______ _______ _____ _____    ______ ____
ROOT
ATOM      1  O   UNL     1      33.201 -24.690 -13.355  0.00  0.00    -0.270 OA
ATOM      2  N   UNL     1      33.557 -23.506 -15.339  0.00  0.00    -0.278 N 
ATOM      3  C   UNL     1      33.934 -24.368 -14.297  0.00  0.00    +0.249 C 
ENDROOT
BRANCH   3   4
ATOM      4  C   UNL     1      35.275 -24.947 -14.314  0.00  0.00    +0.054 C 
ATOM      5  C   UNL     1      36.302 -24.494 -13.470  0.00  0.00    +0.004 C 
ATOM      6  C   UNL     1      37.576 -25.104 -13.542  0.00  0.00    +0.000 C 
ATOM      7  C   UNL     1      35.500 -25.986 -15.216  0.00  0.00    +0.005 C 
ATOM      8  C   UNL     1      36.091 -23.449 -12.555  0.00  0.00    +0.000 C 
ATOM      9  C   UNL     1      37.786 -26.149 -14.456  0.00  0.00    +0.000 C 
ATOM     10  C   UNL     1      36.754 -26.587 -15.288  0.00  0.00    +0.000 C 
ATOM     11  C   UNL     1      38.604 -24.651 -12.699  0.00  0.00    +0.000 C 
ATOM     12  C   UNL     1      37.123 -23.011 -11.725  0.00  0.00    +0.000 C 
ATOM     13  C   UNL     1      38.377 -23.612 -11.796  0.00  0.00    +0.000 C 
ENDBRANCH   3   4
BRANCH   2  14
ATOM     14  C   UNL     1      34.467 -23.159 -16.429  0.00  0.00    +0.071 C 
BRANCH  14  15
ATOM     15  C   UNL     1      33.709 -22.939 -17.730  0.00  0.00    -0.055 C 
BRANCH  15  16
ATOM     16  N   UNL     1      34.314 -21.854 -18.492  0.00  0.00    +0.388 N 
ATOM     17  H   UNL     1      34.086 -20.975 -18.027  0.00  0.00    -0.080 HD
BRANCH  16  18
ATOM     18  C   UNL     1      35.771 -21.997 -18.528  0.00  0.00    -0.077 C 
ATOM     19  C   UNL     1      36.382 -21.122 -19.609  0.00  0.00    -0.025 C 
ENDBRANCH  16  18
BRANCH  16  20
ATOM     20  C   UNL     1      33.775 -21.816 -19.853  0.00  0.00    -0.077 C 
ATOM     21  C   UNL     1      32.951 -20.560 -20.082  0.00  0.00    -0.025 C 
ENDBRANCH  16  20
ENDBRANCH  15  16
ENDBRANCH  14  15
ENDBRANCH   2  14
BRANCH   2  22
ATOM     22  C   UNL     1      32.235 -22.901 -15.405  0.00  0.00    +0.094 C 
BRANCH  22  23
ATOM     23  C   UNL     1      31.140 -23.923 -15.690  0.00  0.00    +0.022 C 
BRANCH  23  24
ATOM     24  C   UNL     1      29.780 -23.499 -15.132  0.00  0.00    +0.002 C 
ATOM     25  C   UNL     1      29.003 -22.663 -16.137  0.00  0.00    +0.000 C 
ENDBRANCH  23  24
ENDBRANCH  22  23
ENDBRANCH   2  22
TORSDOF 9
ENDMDL
MODEL 8
REMARK VINA RESULT:      -7.6      2.938      8.426
REMARK  Name = 36131
REMARK  9 active torsions:
REMARK  status: ('A' for Active; 'I' for Inactive)
REMARK    1  A    between atoms: N_2  and  C_14
REMARK    2  A    between atoms: N_2  and  C_22
REMARK    3  A    between atoms: C_3  and  C_4
REMARK    4  A    between atoms: C_14  and  C_15
REMARK    5  A    between atoms: C_15  and  N_16
REMARK    6  A    between atoms: N_16  and  C_18
REMARK    7  A    between atoms: N_16  and  C_20
REMARK    8  A    between atoms: C_22  and  C_23
REMARK    9  A    between atoms: C_23  and  C_24
REMARK                            x       y       z     vdW  Elec       q    Type
REMARK                         _______ _______ _______ _____ _____    ______ ____
ROOT
ATOM      1  O   UNL     1      31.822 -14.677 -21.531  0.00  0.00    -0.270 OA
ATOM      2  N   UNL     1      32.633 -12.706 -22.493  0.00  0.00    -0.278 N 
ATOM      3  C   UNL     1      32.534 -14.100 -22.361  0.00  0.00    +0.249 C 
ENDROOT
BRANCH   3   4
ATOM      4  C   UNL     1      33.303 -14.948 -23.268  0.00  0.00    +0.054 C 
ATOM      5  C   UNL     1      34.146 -15.973 -22.808  0.00  0.00    +0.004 C 
ATOM      6  C   UNL     1      34.860 -16.754 -23.747  0.00  0.00    +0.000 C 
ATOM      7  C   UNL     1      33.168 -14.696 -24.633  0.00  0.00    +0.005 C 
ATOM      8  C   UNL     1      34.293 -16.241 -21.437  0.00  0.00    +0.000 C 
ATOM      9  C   UNL     1      34.712 -16.487 -25.118  0.00  0.00    +0.000 C 
ATOM     10  C   UNL     1      33.871 -15.464 -25.557  0.00  0.00    +0.000 C 
ATOM     11  C   UNL     1      35.703 -17.780 -23.287  0.00  0.00    +0.000 C 
ATOM     12  C   UNL     1      35.134 -17.263 -20.998  0.00  0.00    +0.000 C 
ATOM     13  C   UNL     1      35.838 -18.031 -21.922  0.00  0.00    +0.000 C 
ENDBRANCH   3   4
BRANCH   2  14
ATOM     14  C   UNL     1      33.491 -12.078 -23.495  0.00  0.00    +0.071 C 
BRANCH  14  15
ATOM     15  C   UNL     1      32.833 -10.838 -24.084  0.00  0.00    -0.055 C 
BRANCH  15  16
ATOM     16  N   UNL     1      33.829  -9.802 -24.325  0.00  0.00    +0.388 N 
ATOM     17  H   UNL     1      33.556  -9.289 -25.164  0.00  0.00    -0.080 HD
BRANCH  16  18
ATOM     18  C   UNL     1      33.882  -8.864 -23.202  0.00  0.00    -0.077 C 
ATOM     19  C   UNL     1      34.178  -7.453 -23.680  0.00  0.00    -0.025 C 
ENDBRANCH  16  18
BRANCH  16  20
ATOM     20  C   UNL     1      35.149 -10.397 -24.551  0.00  0.00    -0.077 C 
ATOM     21  C   UNL     1      35.521 -10.363 -26.024  0.00  0.00    -0.025 C 
ENDBRANCH  16  20
ENDBRANCH  15  16
ENDBRANCH  14  15
ENDBRANCH   2  14
BRANCH   2  22
ATOM     22  C   UNL     1      31.886 -11.792 -21.640  0.00  0.00    +0.094 C 
BRANCH  22  23
ATOM     23  C   UNL     1      31.960 -12.178 -20.167  0.00  0.00    +0.022 C 
BRANCH  23  24
ATOM     24  C   UNL     1      31.624 -11.011 -19.235  0.00  0.00    +0.002 C 
ATOM     25  C   UNL     1      31.984  -9.675 -19.867  0.00  0.00    +0.000 C 
ENDBRANCH  23  24
ENDBRANCH  22  23
ENDBRANCH   2  22
TORSDOF 9
ENDMDL
MODEL 9
REMARK VINA RESULT:      -7.4      2.932      5.077
REMARK  Name = 36131
REMARK  9 active torsions:
REMARK  status: ('A' for Active; 'I' for Inactive)
REMARK    1  A    between atoms: N_2  and  C_14
REMARK    2  A    between atoms: N_2  and  C_22
REMARK    3  A    between atoms: C_3  and  C_4
REMARK    4  A    between atoms: C_14  and  C_15
REMARK    5  A    between atoms: C_15  and  N_16
REMARK    6  A    between atoms: N_16  and  C_18
REMARK    7  A    between atoms: N_16  and  C_20
REMARK    8  A    between atoms: C_22  and  C_23
REMARK    9  A    between atoms: C_23  and  C_24
REMARK                            x       y       z     vdW  Elec       q    Type
REMARK                         _______ _______ _______ _____ _____    ______ ____
ROOT
ATOM      1  O   UNL     1      32.894 -13.184 -26.129  0.00  0.00    -0.270 OA
ATOM      2  N   UNL     1      33.628 -14.071 -24.094  0.00  0.00    -0.278 N 
ATOM      3  C   UNL     1      33.398 -13.033 -25.011  0.00  0.00    +0.249 C 
ENDROOT
BRANCH   3   4
ATOM      4  C   UNL     1      33.755 -11.669 -24.631  0.00  0.00    +0.054 C 
ATOM      5  C   UNL     1      33.063 -10.957 -23.638  0.00  0.00    +0.004 C 
ATOM      6  C   UNL     1      33.468  -9.639 -23.323  0.00  0.00    +0.000 C 
ATOM      7  C   UNL     1      34.831 -11.089 -25.304  0.00  0.00    +0.005 C 
ATOM      8  C   UNL     1      31.979 -11.527 -22.950  0.00  0.00    +0.000 C 
ATOM      9  C   UNL     1      34.552  -9.070 -24.010  0.00  0.00    +0.000 C 
ATOM     10  C   UNL     1      35.229  -9.791 -24.994  0.00  0.00    +0.000 C 
ATOM     11  C   UNL     1      32.775  -8.926 -22.329  0.00  0.00    +0.000 C 
ATOM     12  C   UNL     1      31.302 -10.805 -21.966  0.00  0.00    +0.000 C 
ATOM     13  C   UNL     1      31.700  -9.507 -21.656  0.00  0.00    +0.000 C 
ENDBRANCH   3   4
BRANCH   2  14
ATOM     14  C   UNL     1      34.228 -13.833 -22.783  0.00  0.00    +0.071 C 
BRANCH  14  15
ATOM     15  C   UNL     1      34.988 -15.058 -22.295  0.00  0.00    -0.055 C 
BRANCH  15  16
ATOM     16  N   UNL     1      34.448 -15.515 -21.021  0.00  0.00    +0.388 N 
ATOM     17  H   UNL     1      35.148 -15.342 -20.299  0.00  0.00    -0.080 HD
BRANCH  16  18
ATOM     18  C   UNL     1      33.233 -14.773 -20.679  0.00  0.00    -0.077 C 
ATOM     19  C   UNL     1      32.049 -15.710 -20.503  0.00  0.00    -0.025 C 
ENDBRANCH  16  18
BRANCH  16  20
ATOM     20  C   UNL     1      34.169 -16.952 -21.064  0.00  0.00    -0.077 C 
ATOM     21  C   UNL     1      35.416 -17.743 -21.420  0.00  0.00    -0.025 C 
ENDBRANCH  16  20
ENDBRANCH  15  16
ENDBRANCH  14  15
ENDBRANCH   2  14
BRANCH   2  22
ATOM     22  C   UNL     1      33.285 -15.455 -24.389  0.00  0.00    +0.094 C 
BRANCH  22  23
ATOM     23  C   UNL     1      34.101 -16.025 -25.544  0.00  0.00    +0.022 C 
BRANCH  23  24
ATOM     24  C   UNL     1      34.989 -17.195 -25.116  0.00  0.00    +0.002 C 
ATOM     25  C   UNL     1      34.197 -18.491 -25.032  0.00  0.00    +0.000 C 
ENDBRANCH  23  24
ENDBRANCH  22  23
ENDBRANCH   2  22
TORSDOF 9
ENDMDL
