MODEL 1
REMARK VINA RESULT:      -9.3      0.000      0.000
REMARK  Name = 2735289
REMARK  4 active torsions:
REMARK  status: ('A' for Active; 'I' for Inactive)
REMARK    1  A    between atoms: O_1  and  C_3
REMARK    2  A    between atoms: O_1  and  C_16
REMARK    3  A    between atoms: C_6  and  N_8
REMARK    4  A    between atoms: C_11  and  C_17
REMARK                            x       y       z     vdW  Elec       q    Type
REMARK                         _______ _______ _______ _____ _____    ______ ____
ROOT
ATOM      1  O   UNL     1      33.719 -23.479 -18.678  0.00  0.00    -0.436 OA
ENDROOT
BRANCH   1   3
ATOM      2  N   UNL     1      34.424 -23.415 -16.468  0.00  0.00    -0.209 NA
ATOM      3  C   UNL     1      33.399 -23.349 -17.337  0.00  0.00    +0.230 C 
ATOM      4  C   UNL     1      32.077 -23.166 -16.992  0.00  0.00    +0.059 C 
ATOM      5  C   UNL     1      31.781 -23.039 -15.639  0.00  0.00    +0.020 C 
ATOM      6  C   UNL     1      32.806 -23.099 -14.700  0.00  0.00    +0.061 C 
ATOM      7  C   UNL     1      34.099 -23.287 -15.162  0.00  0.00    +0.116 C 
BRANCH   6   8
ATOM      8  N   UNL     1      32.537 -22.973 -13.328  0.00  0.00    -0.356 N 
ATOM      9  H   UNL     1      31.891 -23.577 -12.895  0.00  0.00    +0.142 HD
ATOM     10  H   UNL     1      32.996 -22.282 -12.798  0.00  0.00    +0.142 HD
ENDBRANCH   6   8
ENDBRANCH   1   3
BRANCH   1  16
ATOM     11  C   UNL     1      34.680 -20.066 -20.746  0.00  0.00    -0.023 C 
ATOM     12  C   UNL     1      33.356 -20.320 -20.487  0.00  0.00    -0.001 C 
ATOM     13  C   UNL     1      35.699 -20.896 -20.349  0.00  0.00    -0.001 C 
ATOM     14  C   UNL     1      33.030 -21.479 -19.784  0.00  0.00    +0.037 C 
ATOM     15  C   UNL     1      35.373 -22.055 -19.647  0.00  0.00    +0.037 C 
ATOM     16  C   UNL     1      34.038 -22.348 -19.364  0.00  0.00    +0.147 C 
BRANCH  11  17
ATOM     17  C   UNL     1      35.039 -18.787 -21.520  0.00  0.00    +0.019 C 
ATOM     18  C   UNL     1      34.613 -18.938 -22.996  0.00  0.00    +0.004 C 
ATOM     19  C   UNL     1      36.564 -18.551 -21.453  0.00  0.00    +0.004 C 
ATOM     20  C   UNL     1      34.356 -17.513 -20.975  0.00  0.00    +0.004 C 
ENDBRANCH  11  17
ENDBRANCH   1  16
TORSDOF 4
ENDMDL
MODEL 2
REMARK VINA RESULT:      -9.3      0.059      1.140
REMARK  Name = 2735289
REMARK  4 active torsions:
REMARK  status: ('A' for Active; 'I' for Inactive)
REMARK    1  A    between atoms: O_1  and  C_3
REMARK    2  A    between atoms: O_1  and  C_16
REMARK    3  A    between atoms: C_6  and  N_8
REMARK    4  A    between atoms: C_11  and  C_17
REMARK                            x       y       z     vdW  Elec       q    Type
REMARK                         _______ _______ _______ _____ _____    ______ ____
ROOT
ATOM      1  O   UNL     1      33.757 -23.479 -18.655  0.00  0.00    -0.436 OA
ENDROOT
BRANCH   1   3
ATOM      2  N   UNL     1      34.386 -23.399 -16.423  0.00  0.00    -0.209 NA
ATOM      3  C   UNL     1      33.392 -23.339 -17.326  0.00  0.00    +0.230 C 
ATOM      4  C   UNL     1      32.059 -23.153 -17.027  0.00  0.00    +0.059 C 
ATOM      5  C   UNL     1      31.717 -23.017 -15.686  0.00  0.00    +0.020 C 
ATOM      6  C   UNL     1      32.709 -23.070 -14.713  0.00  0.00    +0.061 C 
ATOM      7  C   UNL     1      34.017 -23.261 -15.130  0.00  0.00    +0.116 C 
BRANCH   6   8
ATOM      8  N   UNL     1      32.395 -22.934 -13.351  0.00  0.00    -0.356 N 
ATOM      9  H   UNL     1      32.887 -23.455 -12.677  0.00  0.00    +0.142 HD
ATOM     10  H   UNL     1      31.681 -22.316 -13.071  0.00  0.00    +0.142 HD
ENDBRANCH   6   8
ENDBRANCH   1   3
BRANCH   1  16
ATOM     11  C   UNL     1      34.677 -20.071 -20.749  0.00  0.00    -0.023 C 
ATOM     12  C   UNL     1      35.705 -20.883 -20.342  0.00  0.00    -0.001 C 
ATOM     13  C   UNL     1      33.356 -20.339 -20.489  0.00  0.00    -0.001 C 
ATOM     14  C   UNL     1      35.393 -22.041 -19.631  0.00  0.00    +0.037 C 
ATOM     15  C   UNL     1      33.043 -21.497 -19.779  0.00  0.00    +0.037 C 
ATOM     16  C   UNL     1      34.062 -22.349 -19.348  0.00  0.00    +0.147 C 
BRANCH  11  17
ATOM     17  C   UNL     1      35.022 -18.794 -21.533  0.00  0.00    +0.019 C 
ATOM     18  C   UNL     1      34.604 -18.963 -23.009  0.00  0.00    +0.004 C 
ATOM     19  C   UNL     1      36.543 -18.536 -21.463  0.00  0.00    +0.004 C 
ATOM     20  C   UNL     1      34.318 -17.525 -21.002  0.00  0.00    +0.004 C 
ENDBRANCH  11  17
ENDBRANCH   1  16
TORSDOF 4
ENDMDL
MODEL 3
REMARK VINA RESULT:      -8.9      0.933      1.899
REMARK  Name = 2735289
REMARK  4 active torsions:
REMARK  status: ('A' for Active; 'I' for Inactive)
REMARK    1  A    between atoms: O_1  and  C_3
REMARK    2  A    between atoms: O_1  and  C_16
REMARK    3  A    between atoms: C_6  and  N_8
REMARK    4  A    between atoms: C_11  and  C_17
REMARK                            x       y       z     vdW  Elec       q    Type
REMARK                         _______ _______ _______ _____ _____    ______ ____
ROOT
ATOM      1  O   UNL     1      33.565 -23.236 -18.447  0.00  0.00    -0.436 OA
ENDROOT
BRANCH   1   3
ATOM      2  N   UNL     1      35.314 -23.155 -16.925  0.00  0.00    -0.209 NA
ATOM      3  C   UNL     1      33.987 -23.240 -17.129  0.00  0.00    +0.230 C 
ATOM      4  C   UNL     1      33.036 -23.331 -16.135  0.00  0.00    +0.059 C 
ATOM      5  C   UNL     1      33.485 -23.334 -14.818  0.00  0.00    +0.020 C 
ATOM      6  C   UNL     1      34.848 -23.247 -14.554  0.00  0.00    +0.061 C 
ATOM      7  C   UNL     1      35.713 -23.161 -15.633  0.00  0.00    +0.116 C 
BRANCH   6   8
ATOM      8  N   UNL     1      35.331 -23.247 -13.236  0.00  0.00    -0.356 N 
ATOM      9  H   UNL     1      35.964 -23.941 -12.943  0.00  0.00    +0.142 HD
ATOM     10  H   UNL     1      35.035 -22.551 -12.604  0.00  0.00    +0.142 HD
ENDBRANCH   6   8
ENDBRANCH   1   3
BRANCH   1  16
ATOM     11  C   UNL     1      34.624 -20.030 -20.780  0.00  0.00    -0.023 C 
ATOM     12  C   UNL     1      35.606 -20.905 -20.391  0.00  0.00    -0.001 C 
ATOM     13  C   UNL     1      33.305 -20.171 -20.427  0.00  0.00    -0.001 C 
ATOM     14  C   UNL     1      35.246 -21.994 -19.599  0.00  0.00    +0.037 C 
ATOM     15  C   UNL     1      32.945 -21.261 -19.635  0.00  0.00    +0.037 C 
ATOM     16  C   UNL     1      33.916 -22.173 -19.220  0.00  0.00    +0.147 C 
BRANCH  11  17
ATOM     17  C   UNL     1      35.021 -18.828 -21.654  0.00  0.00    +0.019 C 
ATOM     18  C   UNL     1      36.539 -18.577 -21.532  0.00  0.00    +0.004 C 
ATOM     19  C   UNL     1      34.258 -17.570 -21.185  0.00  0.00    +0.004 C 
ATOM     20  C   UNL     1      34.708 -19.018 -23.156  0.00  0.00    +0.004 C 
ENDBRANCH  11  17
ENDBRANCH   1  16
TORSDOF 4
ENDMDL
MODEL 4
REMARK VINA RESULT:      -8.8      3.552      5.841
REMARK  Name = 2735289
REMARK  4 active torsions:
REMARK  status: ('A' for Active; 'I' for Inactive)
REMARK    1  A    between atoms: O_1  and  C_3
REMARK    2  A    between atoms: O_1  and  C_16
REMARK    3  A    between atoms: C_6  and  N_8
REMARK    4  A    between atoms: C_11  and  C_17
REMARK                            x       y       z     vdW  Elec       q    Type
REMARK                         _______ _______ _______ _____ _____    ______ ____
ROOT
ATOM      1  O   UNL     1      35.918 -18.298 -21.556  0.00  0.00    -0.436 OA
ENDROOT
BRANCH   1   3
ATOM      2  N   UNL     1      35.806 -20.184 -20.210  0.00  0.00    -0.209 NA
ATOM      3  C   UNL     1      35.146 -19.271 -20.945  0.00  0.00    +0.230 C 
ATOM      4  C   UNL     1      33.780 -19.239 -21.130  0.00  0.00    +0.059 C 
ATOM      5  C   UNL     1      33.027 -20.228 -20.507  0.00  0.00    +0.020 C 
ATOM      6  C   UNL     1      33.662 -21.195 -19.734  0.00  0.00    +0.061 C 
ATOM      7  C   UNL     1      35.041 -21.129 -19.618  0.00  0.00    +0.116 C 
BRANCH   6   8
ATOM      8  N   UNL     1      32.927 -22.204 -19.092  0.00  0.00    -0.356 N 
ATOM      9  H   UNL     1      32.076 -22.515 -19.477  0.00  0.00    +0.142 HD
ATOM     10  H   UNL     1      33.265 -22.603 -18.258  0.00  0.00    +0.142 HD
ENDBRANCH   6   8
ENDBRANCH   1   3
BRANCH   1  16
ATOM     11  C   UNL     1      33.985 -15.029 -23.113  0.00  0.00    -0.023 C 
ATOM     12  C   UNL     1      34.164 -15.094 -21.755  0.00  0.00    -0.001 C 
ATOM     13  C   UNL     1      34.419 -16.003 -23.979  0.00  0.00    -0.001 C 
ATOM     14  C   UNL     1      34.821 -16.204 -21.226  0.00  0.00    +0.037 C 
ATOM     15  C   UNL     1      35.076 -17.113 -23.450  0.00  0.00    +0.037 C 
ATOM     16  C   UNL     1      35.277 -17.215 -22.072  0.00  0.00    +0.147 C 
BRANCH  11  17
ATOM     17  C   UNL     1      33.262 -13.805 -23.697  0.00  0.00    +0.019 C 
ATOM     18  C   UNL     1      32.114 -13.383 -22.755  0.00  0.00    +0.004 C 
ATOM     19  C   UNL     1      32.678 -14.157 -25.083  0.00  0.00    +0.004 C 
ATOM     20  C   UNL     1      34.173 -12.571 -23.887  0.00  0.00    +0.004 C 
ENDBRANCH  11  17
ENDBRANCH   1  16
TORSDOF 4
ENDMDL
MODEL 5
REMARK VINA RESULT:      -8.2      7.753     10.744
REMARK  Name = 2735289
REMARK  4 active torsions:
REMARK  status: ('A' for Active; 'I' for Inactive)
REMARK    1  A    between atoms: O_1  and  C_3
REMARK    2  A    between atoms: O_1  and  C_16
REMARK    3  A    between atoms: C_6  and  N_8
REMARK    4  A    between atoms: C_11  and  C_17
REMARK                            x       y       z     vdW  Elec       q    Type
REMARK                         _______ _______ _______ _____ _____    ______ ____
ROOT
ATOM      1  O   UNL     1      32.375 -13.517 -23.591  0.00  0.00    -0.436 OA
ENDROOT
BRANCH   1   3
ATOM      2  N   UNL     1      34.100 -15.063 -23.446  0.00  0.00    -0.209 NA
ATOM      3  C   UNL     1      33.108 -14.404 -22.820  0.00  0.00    +0.230 C 
ATOM      4  C   UNL     1      32.777 -14.548 -21.490  0.00  0.00    +0.059 C 
ATOM      5  C   UNL     1      33.527 -15.445 -20.737  0.00  0.00    +0.020 C 
ATOM      6  C   UNL     1      34.564 -16.150 -21.338  0.00  0.00    +0.061 C 
ATOM      7  C   UNL     1      34.808 -15.925 -22.683  0.00  0.00    +0.116 C 
BRANCH   6   8
ATOM      8  N   UNL     1      35.339 -17.062 -20.602  0.00  0.00    -0.356 N 
ATOM      9  H   UNL     1      36.322 -17.004 -20.625  0.00  0.00    +0.142 HD
ATOM     10  H   UNL     1      34.899 -17.758 -20.063  0.00  0.00    +0.142 HD
ENDBRANCH   6   8
ENDBRANCH   1   3
BRANCH   1  16
ATOM     11  C   UNL     1      33.120  -9.509 -23.116  0.00  0.00    -0.023 C 
ATOM     12  C   UNL     1      33.915 -10.222 -23.978  0.00  0.00    -0.001 C 
ATOM     13  C   UNL     1      32.088 -10.069 -22.404  0.00  0.00    -0.001 C 
ATOM     14  C   UNL     1      33.662 -11.583 -24.139  0.00  0.00    +0.037 C 
ATOM     15  C   UNL     1      31.835 -11.430 -22.565  0.00  0.00    +0.037 C 
ATOM     16  C   UNL     1      32.622 -12.189 -23.433  0.00  0.00    +0.147 C 
BRANCH  11  17
ATOM     17  C   UNL     1      33.398  -8.008 -22.939  0.00  0.00    +0.019 C 
ATOM     18  C   UNL     1      34.850  -7.696 -23.362  0.00  0.00    +0.004 C 
ATOM     19  C   UNL     1      33.205  -7.615 -21.457  0.00  0.00    +0.004 C 
ATOM     20  C   UNL     1      32.473  -7.096 -23.777  0.00  0.00    +0.004 C 
ENDBRANCH  11  17
ENDBRANCH   1  16
TORSDOF 4
ENDMDL
MODEL 6
REMARK VINA RESULT:      -8.2      4.577      7.568
REMARK  Name = 2735289
REMARK  4 active torsions:
REMARK  status: ('A' for Active; 'I' for Inactive)
REMARK    1  A    between atoms: O_1  and  C_3
REMARK    2  A    between atoms: O_1  and  C_16
REMARK    3  A    between atoms: C_6  and  N_8
REMARK    4  A    between atoms: C_11  and  C_17
REMARK                            x       y       z     vdW  Elec       q    Type
REMARK                         _______ _______ _______ _____ _____    ______ ____
ROOT
ATOM      1  O   UNL     1      35.596 -17.260 -22.311  0.00  0.00    -0.436 OA
ENDROOT
BRANCH   1   3
ATOM      2  N   UNL     1      34.085 -15.835 -23.346  0.00  0.00    -0.209 NA
ATOM      3  C   UNL     1      34.691 -16.217 -22.208  0.00  0.00    +0.230 C 
ATOM      4  C   UNL     1      34.479 -15.652 -20.968  0.00  0.00    +0.059 C 
ATOM      5  C   UNL     1      33.566 -14.606 -20.890  0.00  0.00    +0.020 C 
ATOM      6  C   UNL     1      32.912 -14.174 -22.039  0.00  0.00    +0.061 C 
ATOM      7  C   UNL     1      33.204 -14.816 -23.232  0.00  0.00    +0.116 C 
BRANCH   6   8
ATOM      8  N   UNL     1      31.984 -13.121 -21.990  0.00  0.00    -0.356 N 
ATOM      9  H   UNL     1      32.006 -12.479 -21.244  0.00  0.00    +0.142 HD
ATOM     10  H   UNL     1      31.313 -13.024 -22.704  0.00  0.00    +0.142 HD
ENDBRANCH   6   8
ENDBRANCH   1   3
BRANCH   1  16
ATOM     11  C   UNL     1      34.852 -20.652 -20.124  0.00  0.00    -0.023 C 
ATOM     12  C   UNL     1      36.150 -20.222 -20.237  0.00  0.00    -0.001 C 
ATOM     13  C   UNL     1      33.790 -20.007 -20.707  0.00  0.00    -0.001 C 
ATOM     14  C   UNL     1      36.402 -19.069 -20.980  0.00  0.00    +0.037 C 
ATOM     15  C   UNL     1      34.042 -18.854 -21.449  0.00  0.00    +0.037 C 
ATOM     16  C   UNL     1      35.349 -18.385 -21.587  0.00  0.00    +0.147 C 
BRANCH  11  17
ATOM     17  C   UNL     1      34.573 -21.923 -19.304  0.00  0.00    +0.019 C 
ATOM     18  C   UNL     1      33.160 -21.843 -18.689  0.00  0.00    +0.004 C 
ATOM     19  C   UNL     1      35.615 -22.049 -18.170  0.00  0.00    +0.004 C 
ATOM     20  C   UNL     1      34.638 -23.227 -20.131  0.00  0.00    +0.004 C 
ENDBRANCH  11  17
ENDBRANCH   1  16
TORSDOF 4
ENDMDL
MODEL 7
REMARK VINA RESULT:      -8.1      4.207      7.712
REMARK  Name = 2735289
REMARK  4 active torsions:
REMARK  status: ('A' for Active; 'I' for Inactive)
REMARK    1  A    between atoms: O_1  and  C_3
REMARK    2  A    between atoms: O_1  and  C_16
REMARK    3  A    between atoms: C_6  and  N_8
REMARK    4  A    between atoms: C_11  and  C_17
REMARK                            x       y       z     vdW  Elec       q    Type
REMARK                         _______ _______ _______ _____ _____    ______ ____
ROOT
ATOM      1  O   UNL     1      36.428 -18.221 -21.774  0.00  0.00    -0.436 OA
ENDROOT
BRANCH   1   3
ATOM      2  N   UNL     1      35.373 -16.362 -22.676  0.00  0.00    -0.209 NA
ATOM      3  C   UNL     1      35.684 -17.664 -22.801  0.00  0.00    +0.230 C 
ATOM      4  C   UNL     1      35.321 -18.469 -23.860  0.00  0.00    +0.059 C 
ATOM      5  C   UNL     1      34.574 -17.887 -24.879  0.00  0.00    +0.020 C 
ATOM      6  C   UNL     1      34.227 -16.542 -24.798  0.00  0.00    +0.061 C 
ATOM      7  C   UNL     1      34.647 -15.830 -23.686  0.00  0.00    +0.116 C 
BRANCH   6   8
ATOM      8  N   UNL     1      33.474 -15.928 -25.811  0.00  0.00    -0.356 N 
ATOM      9  H   UNL     1      32.601 -16.300 -26.071  0.00  0.00    +0.142 HD
ATOM     10  H   UNL     1      33.821 -15.123 -26.261  0.00  0.00    +0.142 HD
ENDBRANCH   6   8
ENDBRANCH   1   3
BRANCH   1  16
ATOM     11  C   UNL     1      34.710 -21.251 -19.602  0.00  0.00    -0.023 C 
ATOM     12  C   UNL     1      36.079 -21.158 -19.621  0.00  0.00    -0.001 C 
ATOM     13  C   UNL     1      33.886 -20.383 -20.275  0.00  0.00    -0.001 C 
ATOM     14  C   UNL     1      36.662 -20.128 -20.358  0.00  0.00    +0.037 C 
ATOM     15  C   UNL     1      34.469 -19.354 -21.012  0.00  0.00    +0.037 C 
ATOM     16  C   UNL     1      35.858 -19.226 -21.055  0.00  0.00    +0.147 C 
BRANCH  11  17
ATOM     17  C   UNL     1      34.066 -22.386 -18.789  0.00  0.00    +0.019 C 
ATOM     18  C   UNL     1      34.081 -23.689 -19.615  0.00  0.00    +0.004 C 
ATOM     19  C   UNL     1      32.606 -22.017 -18.448  0.00  0.00    +0.004 C 
ATOM     20  C   UNL     1      34.786 -22.683 -17.454  0.00  0.00    +0.004 C 
ENDBRANCH  11  17
ENDBRANCH   1  16
TORSDOF 4
ENDMDL
MODEL 8
REMARK VINA RESULT:      -7.9      4.007      7.182
REMARK  Name = 2735289
REMARK  4 active torsions:
REMARK  status: ('A' for Active; 'I' for Inactive)
REMARK    1  A    between atoms: O_1  and  C_3
REMARK    2  A    between atoms: O_1  and  C_16
REMARK    3  A    between atoms: C_6  and  N_8
REMARK    4  A    between atoms: C_11  and  C_17
REMARK                            x       y       z     vdW  Elec       q    Type
REMARK                         _______ _______ _______ _____ _____    ______ ____
ROOT
ATOM      1  O   UNL     1      35.770 -17.995 -21.952  0.00  0.00    -0.436 OA
ENDROOT
BRANCH   1   3
ATOM      2  N   UNL     1      34.881 -16.263 -20.690  0.00  0.00    -0.209 NA
ATOM      3  C   UNL     1      34.995 -16.849 -21.895  0.00  0.00    +0.230 C 
ATOM      4  C   UNL     1      34.404 -16.397 -23.056  0.00  0.00    +0.059 C 
ATOM      5  C   UNL     1      33.629 -15.245 -22.972  0.00  0.00    +0.020 C 
ATOM      6  C   UNL     1      33.480 -14.601 -21.749  0.00  0.00    +0.061 C 
ATOM      7  C   UNL     1      34.121 -15.145 -20.647  0.00  0.00    +0.116 C 
BRANCH   6   8
ATOM      8  N   UNL     1      32.705 -13.436 -21.635  0.00  0.00    -0.356 N 
ATOM      9  H   UNL     1      31.725 -13.486 -21.711  0.00  0.00    +0.142 HD
ATOM     10  H   UNL     1      33.143 -12.568 -21.477  0.00  0.00    +0.142 HD
ENDBRANCH   6   8
ENDBRANCH   1   3
BRANCH   1  16
ATOM     11  C   UNL     1      34.594 -21.208 -19.686  0.00  0.00    -0.023 C 
ATOM     12  C   UNL     1      33.633 -20.503 -20.364  0.00  0.00    -0.001 C 
ATOM     13  C   UNL     1      35.930 -20.893 -19.725  0.00  0.00    -0.001 C 
ATOM     14  C   UNL     1      34.032 -19.412 -21.134  0.00  0.00    +0.037 C 
ATOM     15  C   UNL     1      36.329 -19.802 -20.495  0.00  0.00    +0.037 C 
ATOM     16  C   UNL     1      35.380 -19.059 -21.200  0.00  0.00    +0.147 C 
BRANCH  11  17
ATOM     17  C   UNL     1      34.154 -22.412 -18.837  0.00  0.00    +0.019 C 
ATOM     18  C   UNL     1      35.140 -22.609 -17.666  0.00  0.00    +0.004 C 
ATOM     19  C   UNL     1      34.141 -23.687 -19.710  0.00  0.00    +0.004 C 
ATOM     20  C   UNL     1      32.742 -22.264 -18.226  0.00  0.00    +0.004 C 
ENDBRANCH  11  17
ENDBRANCH   1  16
TORSDOF 4
ENDMDL
MODEL 9
REMARK VINA RESULT:      -7.9      8.071     11.164
REMARK  Name = 2735289
REMARK  4 active torsions:
REMARK  status: ('A' for Active; 'I' for Inactive)
REMARK    1  A    between atoms: O_1  and  C_3
REMARK    2  A    between atoms: O_1  and  C_16
REMARK    3  A    between atoms: C_6  and  N_8
REMARK    4  A    between atoms: C_11  and  C_17
REMARK                            x       y       z     vdW  Elec       q    Type
REMARK                         _______ _______ _______ _____ _____    ______ ____
ROOT
ATOM      1  O   UNL     1      31.609 -13.288 -21.550  0.00  0.00    -0.436 OA
ENDROOT
BRANCH   1   3
ATOM      2  N   UNL     1      32.658 -14.372 -23.312  0.00  0.00    -0.209 NA
ATOM      3  C   UNL     1      32.634 -14.106 -21.994  0.00  0.00    +0.230 C 
ATOM      4  C   UNL     1      33.541 -14.583 -21.071  0.00  0.00    +0.059 C 
ATOM      5  C   UNL     1      34.560 -15.404 -21.542  0.00  0.00    +0.020 C 
ATOM      6  C   UNL     1      34.630 -15.709 -22.897  0.00  0.00    +0.061 C 
ATOM      7  C   UNL     1      33.664 -15.173 -23.733  0.00  0.00    +0.116 C 
BRANCH   6   8
ATOM      8  N   UNL     1      35.649 -16.534 -23.401  0.00  0.00    -0.356 N 
ATOM      9  H   UNL     1      36.572 -16.199 -23.456  0.00  0.00    +0.142 HD
ATOM     10  H   UNL     1      35.438 -17.449 -23.697  0.00  0.00    +0.142 HD
ENDBRANCH   6   8
ENDBRANCH   1   3
BRANCH   1  16
ATOM     11  C   UNL     1      32.201  -9.230 -21.716  0.00  0.00    -0.023 C 
ATOM     12  C   UNL     1      32.483  -9.975 -22.833  0.00  0.00    -0.001 C 
ATOM     13  C   UNL     1      31.733  -9.772 -20.545  0.00  0.00    -0.001 C 
ATOM     14  C   UNL     1      32.281 -11.353 -22.776  0.00  0.00    +0.037 C 
ATOM     15  C   UNL     1      31.532 -11.151 -20.489  0.00  0.00    +0.037 C 
ATOM     16  C   UNL     1      31.806 -11.943 -21.605  0.00  0.00    +0.147 C 
BRANCH  11  17
ATOM     17  C   UNL     1      32.423  -7.709 -21.778  0.00  0.00    +0.019 C 
ATOM     18  C   UNL     1      33.739  -7.407 -22.526  0.00  0.00    +0.004 C 
ATOM     19  C   UNL     1      32.510  -7.138 -20.346  0.00  0.00    +0.004 C 
ATOM     20  C   UNL     1      31.297  -6.943 -22.508  0.00  0.00    +0.004 C 
ENDBRANCH  11  17
ENDBRANCH   1  16
TORSDOF 4
ENDMDL
