MODEL 1
REMARK VINA RESULT:      -8.7      0.000      0.000
REMARK  Name = 9949848
REMARK  1 active torsions:
REMARK  status: ('A' for Active; 'I' for Inactive)
REMARK    1  A    between atoms: C_5  and  C_24
REMARK                            x       y       z     vdW  Elec       q    Type
REMARK                         _______ _______ _______ _____ _____    ______ ____
ROOT
ATOM      1  O   UNL     1      39.949 -25.748 -13.607  0.00  0.00    -0.291 OA
ATOM      2  C   UNL     1      31.689 -23.895 -14.743  0.00  0.00    +0.006 C 
ATOM      3  C   UNL     1      32.837 -23.530 -15.720  0.00  0.00    +0.004 C 
ATOM      4  C   UNL     1      34.158 -23.224 -14.996  0.00  0.00    +0.022 C 
ATOM      5  C   UNL     1      30.496 -24.048 -15.747  0.00  0.00    +0.052 C 
ATOM      6  C   UNL     1      34.584 -24.499 -14.213  0.00  0.00    +0.008 C 
ATOM      7  C   UNL     1      32.113 -25.151 -13.960  0.00  0.00    +0.000 C 
ATOM      8  C   UNL     1      32.211 -22.455 -16.603  0.00  0.00    +0.001 C 
ATOM      9  C   UNL     1      33.466 -24.961 -13.245  0.00  0.00    +0.001 C 
ATOM     10  C   UNL     1      30.745 -22.897 -16.766  0.00  0.00    +0.007 C 
ATOM     11  C   UNL     1      36.008 -24.329 -13.575  0.00  0.00    +0.019 C 
ATOM     12  C   UNL     1      31.382 -22.755 -13.722  0.00  0.00    +0.000 C 
ATOM     13  C   UNL     1      35.259 -22.781 -15.919  0.00  0.00    -0.031 C 
ATOM     14  C   UNL     1      30.430 -25.397 -16.481  0.00  0.00    +0.007 C 
ATOM     15  C   UNL     1      37.020 -24.009 -14.698  0.00  0.00    -0.024 C 
ATOM     16  C   UNL     1      36.406 -25.657 -12.874  0.00  0.00    +0.012 C 
ATOM     17  C   UNL     1      36.551 -23.141 -15.798  0.00  0.00    -0.030 C 
ATOM     18  C   UNL     1      36.039 -23.183 -12.534  0.00  0.00    +0.004 C 
ATOM     19  C   UNL     1      37.864 -25.704 -12.444  0.00  0.00    +0.069 C 
ATOM     20  C   UNL     1      38.270 -24.507 -14.686  0.00  0.00    +0.033 C 
ATOM     21  C   UNL     1      38.780 -25.366 -13.588  0.00  0.00    +0.173 C 
ATOM     22  C   UNL     1      37.551 -22.609 -16.795  0.00  0.00    +0.030 C 
ENDROOT
BRANCH   5  24
ATOM     23  O   UNL     1      28.688 -24.750 -14.344  0.00  0.00    -0.296 OA
ATOM     24  C   UNL     1      29.151 -23.887 -15.088  0.00  0.00    +0.150 C 
ATOM     25  C   UNL     1      28.401 -22.615 -15.383  0.00  0.00    +0.072 C 
ENDBRANCH   5  24
TORSDOF 1
ENDMDL
MODEL 2
REMARK VINA RESULT:      -8.5      1.446      6.897
REMARK  Name = 9949848
REMARK  1 active torsions:
REMARK  status: ('A' for Active; 'I' for Inactive)
REMARK    1  A    between atoms: C_5  and  C_24
REMARK                            x       y       z     vdW  Elec       q    Type
REMARK                         _______ _______ _______ _____ _____    ______ ____
ROOT
ATOM      1  O   UNL     1      28.107 -21.910 -16.450  0.00  0.00    -0.291 OA
ATOM      2  C   UNL     1      35.819 -24.378 -13.732  0.00  0.00    +0.006 C 
ATOM      3  C   UNL     1      35.539 -23.535 -15.005  0.00  0.00    +0.004 C 
ATOM      4  C   UNL     1      34.211 -23.908 -15.683  0.00  0.00    +0.022 C 
ATOM      5  C   UNL     1      37.241 -23.847 -13.345  0.00  0.00    +0.052 C 
ATOM      6  C   UNL     1      33.061 -23.641 -14.669  0.00  0.00    +0.008 C 
ATOM      7  C   UNL     1      34.677 -24.122 -12.732  0.00  0.00    +0.000 C 
ATOM      8  C   UNL     1      36.836 -23.663 -15.797  0.00  0.00    +0.001 C 
ATOM      9  C   UNL     1      33.292 -24.411 -13.345  0.00  0.00    +0.001 C 
ATOM     10  C   UNL     1      37.941 -23.678 -14.725  0.00  0.00    +0.007 C 
ATOM     11  C   UNL     1      31.654 -23.840 -15.335  0.00  0.00    +0.019 C 
ATOM     12  C   UNL     1      35.886 -25.908 -14.027  0.00  0.00    +0.000 C 
ATOM     13  C   UNL     1      33.964 -23.164 -16.966  0.00  0.00    -0.031 C 
ATOM     14  C   UNL     1      37.253 -22.513 -12.581  0.00  0.00    +0.007 C 
ATOM     15  C   UNL     1      31.544 -22.896 -16.554  0.00  0.00    -0.024 C 
ATOM     16  C   UNL     1      30.553 -23.485 -14.297  0.00  0.00    +0.012 C 
ATOM     17  C   UNL     1      32.765 -22.694 -17.361  0.00  0.00    -0.030 C 
ATOM     18  C   UNL     1      31.445 -25.297 -15.812  0.00  0.00    +0.004 C 
ATOM     19  C   UNL     1      29.159 -23.389 -14.900  0.00  0.00    +0.069 C 
ATOM     20  C   UNL     1      30.391 -22.273 -16.863  0.00  0.00    +0.033 C 
ATOM     21  C   UNL     1      29.142 -22.467 -16.086  0.00  0.00    +0.173 C 
ATOM     22  C   UNL     1      32.665 -21.975 -18.683  0.00  0.00    +0.030 C 
ENDROOT
BRANCH   5  24
ATOM     23  O   UNL     1      37.774 -24.927 -11.276  0.00  0.00    -0.296 OA
ATOM     24  C   UNL     1      38.010 -24.810 -12.478  0.00  0.00    +0.150 C 
ATOM     25  C   UNL     1      39.080 -25.624 -13.154  0.00  0.00    +0.072 C 
ENDBRANCH   5  24
TORSDOF 1
ENDMDL
MODEL 3
REMARK VINA RESULT:      -7.5     13.478     15.748
REMARK  Name = 9949848
REMARK  1 active torsions:
REMARK  status: ('A' for Active; 'I' for Inactive)
REMARK    1  A    between atoms: C_5  and  C_24
REMARK                            x       y       z     vdW  Elec       q    Type
REMARK                         _______ _______ _______ _____ _____    ______ ____
ROOT
ATOM      1  O   UNL     1      35.057 -17.467 -23.194  0.00  0.00    -0.291 OA
ATOM      2  C   UNL     1      32.673  -9.265 -23.136  0.00  0.00    +0.006 C 
ATOM      3  C   UNL     1      32.598 -10.234 -21.926  0.00  0.00    +0.004 C 
ATOM      4  C   UNL     1      32.293 -11.682 -22.344  0.00  0.00    +0.022 C 
ATOM      5  C   UNL     1      32.891  -7.902 -22.397  0.00  0.00    +0.052 C 
ATOM      6  C   UNL     1      33.440 -12.167 -23.275  0.00  0.00    +0.008 C 
ATOM      7  C   UNL     1      33.802  -9.750 -24.064  0.00  0.00    +0.000 C 
ATOM      8  C   UNL     1      31.645  -9.523 -20.971  0.00  0.00    +0.001 C 
ATOM      9  C   UNL     1      33.615 -11.221 -24.489  0.00  0.00    +0.001 C 
ATOM     10  C   UNL     1      31.970  -8.028 -21.148  0.00  0.00    +0.007 C 
ATOM     11  C   UNL     1      33.293 -13.691 -23.618  0.00  0.00    +0.019 C 
ATOM     12  C   UNL     1      31.345  -9.220 -23.954  0.00  0.00    +0.000 C 
ATOM     13  C   UNL     1      32.128 -12.620 -21.179  0.00  0.00    -0.031 C 
ATOM     14  C   UNL     1      34.338  -7.621 -21.959  0.00  0.00    +0.007 C 
ATOM     15  C   UNL     1      33.276 -14.497 -22.299  0.00  0.00    -0.024 C 
ATOM     16  C   UNL     1      34.505 -14.131 -24.485  0.00  0.00    +0.012 C 
ATOM     17  C   UNL     1      32.579 -13.888 -21.147  0.00  0.00    -0.030 C 
ATOM     18  C   UNL     1      31.987 -13.982 -24.397  0.00  0.00    +0.004 C 
ATOM     19  C   UNL     1      34.610 -15.638 -24.662  0.00  0.00    +0.069 C 
ATOM     20  C   UNL     1      33.879 -15.697 -22.196  0.00  0.00    +0.033 C 
ATOM     21  C   UNL     1      34.571 -16.346 -23.337  0.00  0.00    +0.173 C 
ATOM     22  C   UNL     1      32.330 -14.717 -19.912  0.00  0.00    +0.030 C 
ENDROOT
BRANCH   5  24
ATOM     23  O   UNL     1      33.114  -6.390 -24.240  0.00  0.00    -0.296 OA
ATOM     24  C   UNL     1      32.489  -6.713 -23.231  0.00  0.00    +0.150 C 
ATOM     25  C   UNL     1      31.283  -5.939 -22.769  0.00  0.00    +0.072 C 
ENDBRANCH   5  24
TORSDOF 1
ENDMDL
MODEL 4
REMARK VINA RESULT:      -7.4     10.717     13.347
REMARK  Name = 9949848
REMARK  1 active torsions:
REMARK  status: ('A' for Active; 'I' for Inactive)
REMARK    1  A    between atoms: C_5  and  C_24
REMARK                            x       y       z     vdW  Elec       q    Type
REMARK                         _______ _______ _______ _____ _____    ______ ____
ROOT
ATOM      1  O   UNL     1      33.896  -9.571 -25.107  0.00  0.00    -0.291 OA
ATOM      2  C   UNL     1      34.592 -17.481 -21.961  0.00  0.00    +0.006 C 
ATOM      3  C   UNL     1      34.581 -17.108 -23.467  0.00  0.00    +0.004 C 
ATOM      4  C   UNL     1      33.686 -15.895 -23.772  0.00  0.00    +0.022 C 
ATOM      5  C   UNL     1      35.483 -18.768 -21.992  0.00  0.00    +0.052 C 
ATOM      6  C   UNL     1      34.240 -14.676 -22.981  0.00  0.00    +0.008 C 
ATOM      7  C   UNL     1      35.131 -16.272 -21.176  0.00  0.00    +0.000 C 
ATOM      8  C   UNL     1      34.283 -18.438 -24.151  0.00  0.00    +0.001 C 
ATOM      9  C   UNL     1      34.330 -14.986 -21.465  0.00  0.00    +0.001 C 
ATOM     10  C   UNL     1      35.022 -19.483 -23.296  0.00  0.00    +0.007 C 
ATOM     11  C   UNL     1      33.483 -13.356 -23.360  0.00  0.00    +0.019 C 
ATOM     12  C   UNL     1      33.172 -17.830 -21.417  0.00  0.00    +0.000 C 
ATOM     13  C   UNL     1      33.591 -15.573 -25.237  0.00  0.00    -0.031 C 
ATOM     14  C   UNL     1      36.998 -18.512 -22.039  0.00  0.00    +0.007 C 
ATOM     15  C   UNL     1      33.613 -13.129 -24.883  0.00  0.00    -0.024 C 
ATOM     16  C   UNL     1      34.131 -12.167 -22.597  0.00  0.00    +0.012 C 
ATOM     17  C   UNL     1      33.570 -14.327 -25.748  0.00  0.00    -0.030 C 
ATOM     18  C   UNL     1      31.980 -13.428 -22.994  0.00  0.00    +0.004 C 
ATOM     19  C   UNL     1      33.655 -10.805 -23.078  0.00  0.00    +0.069 C 
ATOM     20  C   UNL     1      33.772 -11.898 -25.404  0.00  0.00    +0.033 C 
ATOM     21  C   UNL     1      33.801 -10.672 -24.568  0.00  0.00    +0.173 C 
ATOM     22  C   UNL     1      33.461 -14.156 -27.242  0.00  0.00    +0.030 C 
ENDROOT
BRANCH   5  24
ATOM     23  O   UNL     1      36.123 -19.789 -19.924  0.00  0.00    -0.296 OA
ATOM     24  C   UNL     1      35.266 -19.660 -20.797  0.00  0.00    +0.150 C 
ATOM     25  C   UNL     1      33.948 -20.384 -20.722  0.00  0.00    +0.072 C 
ENDBRANCH   5  24
TORSDOF 1
ENDMDL
MODEL 5
REMARK VINA RESULT:      -6.5     15.195     17.332
REMARK  Name = 9949848
REMARK  1 active torsions:
REMARK  status: ('A' for Active; 'I' for Inactive)
REMARK    1  A    between atoms: C_5  and  C_24
REMARK                            x       y       z     vdW  Elec       q    Type
REMARK                         _______ _______ _______ _____ _____    ______ ____
ROOT
ATOM      1  O   UNL     1      33.435 -15.548 -26.622  0.00  0.00    -0.291 OA
ATOM      2  C   UNL     1      32.323  -8.141 -22.517  0.00  0.00    +0.006 C 
ATOM      3  C   UNL     1      33.121  -8.330 -23.834  0.00  0.00    +0.004 C 
ATOM      4  C   UNL     1      33.833  -9.692 -23.906  0.00  0.00    +0.022 C 
ATOM      5  C   UNL     1      31.815  -6.671 -22.699  0.00  0.00    +0.052 C 
ATOM      6  C   UNL     1      32.749 -10.806 -23.839  0.00  0.00    +0.008 C 
ATOM      7  C   UNL     1      31.256  -9.249 -22.444  0.00  0.00    +0.000 C 
ATOM      8  C   UNL     1      33.953  -7.055 -23.921  0.00  0.00    +0.001 C 
ATOM      9  C   UNL     1      31.871 -10.657 -22.571  0.00  0.00    +0.001 C 
ATOM     10  C   UNL     1      33.033  -5.957 -23.356  0.00  0.00    +0.007 C 
ATOM     11  C   UNL     1      33.374 -12.226 -24.071  0.00  0.00    +0.019 C 
ATOM     12  C   UNL     1      33.225  -8.238 -21.248  0.00  0.00    +0.000 C 
ATOM     13  C   UNL     1      34.683  -9.859 -25.135  0.00  0.00    -0.031 C 
ATOM     14  C   UNL     1      30.571  -6.516 -23.589  0.00  0.00    +0.007 C 
ATOM     15  C   UNL     1      34.089 -12.236 -25.440  0.00  0.00    -0.024 C 
ATOM     16  C   UNL     1      32.234 -13.283 -24.068  0.00  0.00    +0.012 C 
ATOM     17  C   UNL     1      34.795 -11.001 -25.840  0.00  0.00    -0.030 C 
ATOM     18  C   UNL     1      34.399 -12.590 -22.970  0.00  0.00    +0.004 C 
ATOM     19  C   UNL     1      32.681 -14.658 -24.539  0.00  0.00    +0.069 C 
ATOM     20  C   UNL     1      34.062 -13.316 -26.245  0.00  0.00    +0.033 C 
ATOM     21  C   UNL     1      33.379 -14.578 -25.867  0.00  0.00    +0.173 C 
ATOM     22  C   UNL     1      35.698 -11.024 -27.048  0.00  0.00    +0.030 C 
ENDROOT
BRANCH   5  24
ATOM     23  O   UNL     1      32.154  -6.142 -20.389  0.00  0.00    -0.296 OA
ATOM     24  C   UNL     1      31.457  -6.008 -21.394  0.00  0.00    +0.150 C 
ATOM     25  C   UNL     1      30.206  -5.171 -21.381  0.00  0.00    +0.072 C 
ENDBRANCH   5  24
TORSDOF 1
ENDMDL
MODEL 6
REMARK VINA RESULT:      -6.4      2.964      5.035
REMARK  Name = 9949848
REMARK  1 active torsions:
REMARK  status: ('A' for Active; 'I' for Inactive)
REMARK    1  A    between atoms: C_5  and  C_24
REMARK                            x       y       z     vdW  Elec       q    Type
REMARK                         _______ _______ _______ _____ _____    ______ ____
ROOT
ATOM      1  O   UNL     1      37.287 -19.417 -20.681  0.00  0.00    -0.291 OA
ATOM      2  C   UNL     1      31.466 -23.579 -16.018  0.00  0.00    +0.006 C 
ATOM      3  C   UNL     1      32.931 -23.302 -15.591  0.00  0.00    +0.004 C 
ATOM      4  C   UNL     1      33.907 -23.314 -16.779  0.00  0.00    +0.022 C 
ATOM      5  C   UNL     1      30.760 -23.598 -14.620  0.00  0.00    +0.052 C 
ATOM      6  C   UNL     1      33.477 -22.193 -17.768  0.00  0.00    +0.008 C 
ATOM      7  C   UNL     1      31.041 -22.475 -17.004  0.00  0.00    +0.000 C 
ATOM      8  C   UNL     1      33.150 -24.284 -14.445  0.00  0.00    +0.001 C 
ATOM      9  C   UNL     1      32.001 -22.369 -18.206  0.00  0.00    +0.001 C 
ATOM     10  C   UNL     1      31.795 -24.327 -13.714  0.00  0.00    +0.007 C 
ATOM     11  C   UNL     1      34.516 -22.027 -18.932  0.00  0.00    +0.019 C 
ATOM     12  C   UNL     1      31.294 -24.962 -16.719  0.00  0.00    +0.000 C 
ATOM     13  C   UNL     1      35.345 -23.137 -16.376  0.00  0.00    -0.031 C 
ATOM     14  C   UNL     1      30.431 -22.214 -14.036  0.00  0.00    +0.007 C 
ATOM     15  C   UNL     1      35.901 -21.720 -18.320  0.00  0.00    -0.024 C 
ATOM     16  C   UNL     1      34.070 -20.846 -19.839  0.00  0.00    +0.012 C 
ATOM     17  C   UNL     1      36.248 -22.408 -17.060  0.00  0.00    -0.030 C 
ATOM     18  C   UNL     1      34.625 -23.309 -19.793  0.00  0.00    +0.004 C 
ATOM     19  C   UNL     1      35.128 -20.422 -20.847  0.00  0.00    +0.069 C 
ATOM     20  C   UNL     1      36.753 -20.853 -18.899  0.00  0.00    +0.033 C 
ATOM     21  C   UNL     1      36.445 -20.158 -20.174  0.00  0.00    +0.173 C 
ATOM     22  C   UNL     1      37.662 -22.329 -16.540  0.00  0.00    +0.030 C 
ENDROOT
BRANCH   5  24
ATOM     23  O   UNL     1      29.340 -25.461 -14.125  0.00  0.00    -0.296 OA
ATOM     24  C   UNL     1      29.452 -24.346 -14.633  0.00  0.00    +0.150 C 
ATOM     25  C   UNL     1      28.287 -23.661 -15.297  0.00  0.00    +0.072 C 
ENDBRANCH   5  24
TORSDOF 1
ENDMDL
MODEL 7
REMARK VINA RESULT:      -6.0      3.257      6.772
REMARK  Name = 9949848
REMARK  1 active torsions:
REMARK  status: ('A' for Active; 'I' for Inactive)
REMARK    1  A    between atoms: C_5  and  C_24
REMARK                            x       y       z     vdW  Elec       q    Type
REMARK                         _______ _______ _______ _____ _____    ______ ____
ROOT
ATOM      1  O   UNL     1      32.907 -19.316 -21.438  0.00  0.00    -0.291 OA
ATOM      2  C   UNL     1      35.713 -24.014 -14.881  0.00  0.00    +0.006 C 
ATOM      3  C   UNL     1      36.569 -23.016 -15.706  0.00  0.00    +0.004 C 
ATOM      4  C   UNL     1      36.146 -22.953 -17.183  0.00  0.00    +0.022 C 
ATOM      5  C   UNL     1      36.431 -23.926 -13.492  0.00  0.00    +0.052 C 
ATOM      6  C   UNL     1      34.667 -22.476 -17.241  0.00  0.00    +0.008 C 
ATOM      7  C   UNL     1      34.247 -23.550 -14.945  0.00  0.00    +0.000 C 
ATOM      8  C   UNL     1      37.999 -23.419 -15.362  0.00  0.00    +0.001 C 
ATOM      9  C   UNL     1      33.749 -23.396 -16.397  0.00  0.00    +0.001 C 
ATOM     10  C   UNL     1      37.936 -23.829 -13.879  0.00  0.00    +0.007 C 
ATOM     11  C   UNL     1      34.204 -22.226 -18.719  0.00  0.00    +0.019 C 
ATOM     12  C   UNL     1      35.795 -25.473 -15.429  0.00  0.00    +0.000 C 
ATOM     13  C   UNL     1      37.020 -22.058 -18.018  0.00  0.00    -0.031 C 
ATOM     14  C   UNL     1      36.031 -22.718 -12.627  0.00  0.00    +0.007 C 
ATOM     15  C   UNL     1      35.144 -21.183 -19.363  0.00  0.00    -0.024 C 
ATOM     16  C   UNL     1      32.748 -21.682 -18.705  0.00  0.00    +0.012 C 
ATOM     17  C   UNL     1      36.573 -21.247 -18.996  0.00  0.00    -0.030 C 
ATOM     18  C   UNL     1      34.246 -23.524 -19.562  0.00  0.00    +0.004 C 
ATOM     19  C   UNL     1      32.282 -21.158 -20.054  0.00  0.00    +0.069 C 
ATOM     20  C   UNL     1      34.683 -20.245 -20.213  0.00  0.00    +0.033 C 
ATOM     21  C   UNL     1      33.257 -20.163 -20.618  0.00  0.00    +0.173 C 
ATOM     22  C   UNL     1      37.570 -20.413 -19.760  0.00  0.00    +0.030 C 
ENDROOT
BRANCH   5  24
ATOM     23  O   UNL     1      35.186 -25.227 -11.914  0.00  0.00    -0.296 OA
ATOM     24  C   UNL     1      36.185 -25.134 -12.626  0.00  0.00    +0.150 C 
ATOM     25  C   UNL     1      37.221 -26.225 -12.678  0.00  0.00    +0.072 C 
ENDBRANCH   5  24
TORSDOF 1
ENDMDL
MODEL 8
REMARK VINA RESULT:      -5.8     14.816     17.197
REMARK  Name = 9949848
REMARK  1 active torsions:
REMARK  status: ('A' for Active; 'I' for Inactive)
REMARK    1  A    between atoms: C_5  and  C_24
REMARK                            x       y       z     vdW  Elec       q    Type
REMARK                         _______ _______ _______ _____ _____    ______ ____
ROOT
ATOM      1  O   UNL     1      32.793 -15.400 -19.909  0.00  0.00    -0.291 OA
ATOM      2  C   UNL     1      32.354  -7.774 -23.731  0.00  0.00    +0.006 C 
ATOM      3  C   UNL     1      32.391  -8.013 -22.198  0.00  0.00    +0.004 C 
ATOM      4  C   UNL     1      31.678  -9.311 -21.782  0.00  0.00    +0.022 C 
ATOM      5  C   UNL     1      33.050  -6.374 -23.819  0.00  0.00    +0.052 C 
ATOM      6  C   UNL     1      32.406 -10.502 -22.470  0.00  0.00    +0.008 C 
ATOM      7  C   UNL     1      33.065  -8.957 -24.413  0.00  0.00    +0.000 C 
ATOM      8  C   UNL     1      31.902  -6.686 -21.629  0.00  0.00    +0.001 C 
ATOM      9  C   UNL     1      32.457 -10.314 -24.008  0.00  0.00    +0.001 C 
ATOM     10  C   UNL     1      32.486  -5.623 -22.577  0.00  0.00    +0.007 C 
ATOM     11  C   UNL     1      31.845 -11.880 -21.972  0.00  0.00    +0.019 C 
ATOM     12  C   UNL     1      30.900  -7.681 -24.290  0.00  0.00    +0.000 C 
ATOM     13  C   UNL     1      31.626  -9.516 -20.294  0.00  0.00    -0.031 C 
ATOM     14  C   UNL     1      34.586  -6.405 -23.763  0.00  0.00    +0.007 C 
ATOM     15  C   UNL     1      32.001 -11.952 -20.436  0.00  0.00    -0.024 C 
ATOM     16  C   UNL     1      32.661 -13.024 -22.635  0.00  0.00    +0.012 C 
ATOM     17  C   UNL     1      31.783 -10.703 -19.678  0.00  0.00    -0.030 C 
ATOM     18  C   UNL     1      30.350 -12.056 -22.330  0.00  0.00    +0.004 C 
ATOM     19  C   UNL     1      32.385 -14.394 -22.035  0.00  0.00    +0.069 C 
ATOM     20  C   UNL     1      32.334 -13.098 -19.812  0.00  0.00    +0.033 C 
ATOM     21  C   UNL     1      32.543 -14.375 -20.540  0.00  0.00    +0.173 C 
ATOM     22  C   UNL     1      31.693 -10.758 -18.173  0.00  0.00    +0.030 C 
ENDROOT
BRANCH   5  24
ATOM     23  O   UNL     1      31.636  -5.049 -25.224  0.00  0.00    -0.296 OA
ATOM     24  C   UNL     1      32.712  -5.630 -25.084  0.00  0.00    +0.150 C 
ATOM     25  C   UNL     1      33.756  -5.629 -26.168  0.00  0.00    +0.072 C 
ENDBRANCH   5  24
TORSDOF 1
ENDMDL
