MODEL 1
REMARK VINA RESULT:      -7.7      0.000      0.000
REMARK  Name = 446106
REMARK  5 active torsions:
REMARK  status: ('A' for Active; 'I' for Inactive)
REMARK    1  A    between atoms: C_1  and  C_4
REMARK    2  A    between atoms: C_1  and  C_12
REMARK    3  A    between atoms: C_1  and  N_15
REMARK    4  A    between atoms: N_15  and  C_17
REMARK    5  A    between atoms: C_18  and  C_25
REMARK                            x       y       z     vdW  Elec       q    Type
REMARK                         _______ _______ _______ _____ _____    ______ ____
ROOT
ATOM      1  C   UNL     1      35.797 -24.538 -13.578  0.00  0.00    +0.170 C 
ENDROOT
BRANCH   1   4
ATOM      2 BR   UNL     1      37.697 -22.725 -11.817  0.00  0.00    -0.049 Br
ATOM      3 BR   UNL     1      36.430 -26.880 -15.603  0.00  0.00    -0.049 Br
ATOM      4  C   UNL     1      37.270 -24.845 -13.732  0.00  0.00    +0.017 C 
ATOM      5  C   UNL     1      38.200 -24.114 -13.007  0.00  0.00    +0.033 C 
ATOM      6  C   UNL     1      37.669 -25.855 -14.596  0.00  0.00    +0.033 C 
ATOM      7  C   UNL     1      39.558 -24.399 -13.149  0.00  0.00    +0.006 C 
ATOM      8  C   UNL     1      39.028 -26.141 -14.737  0.00  0.00    +0.006 C 
ATOM      9  C   UNL     1      39.972 -25.412 -14.014  0.00  0.00    +0.001 C 
ENDBRANCH   1   4
BRANCH   1  12
ATOM     10  O   UNL     1      35.790 -25.454 -11.333  0.00  0.00    -0.273 OA
ATOM     11  N   UNL     1      34.410 -23.676 -11.793  0.00  0.00    -0.327 N 
ATOM     12  C   UNL     1      35.356 -24.622 -12.126  0.00  0.00    +0.242 C 
ATOM     13  H   UNL     1      34.053 -23.638 -10.876  0.00  0.00    +0.145 HD
ATOM     14  H   UNL     1      34.093 -23.037 -12.472  0.00  0.00    +0.145 HD
ENDBRANCH   1  12
BRANCH   1  15
ATOM     15  N   UNL     1      35.501 -23.233 -14.079  0.00  0.00    -0.324 N 
ATOM     16  H   UNL     1      35.592 -22.463 -13.472  0.00  0.00    +0.147 HD
BRANCH  15  17
ATOM     17  C   UNL     1      35.082 -23.000 -15.408  0.00  0.00    +0.048 C 
ATOM     18  C   UNL     1      33.764 -23.242 -15.797  0.00  0.00    +0.048 C 
ATOM     19  C   UNL     1      36.005 -22.518 -16.336  0.00  0.00    +0.010 C 
ATOM     20  C   UNL     1      35.611 -22.282 -17.653  0.00  0.00    -0.021 C 
ATOM     21  C   UNL     1      33.370 -23.005 -17.114  0.00  0.00    +0.004 C 
ATOM     22  C   UNL     1      34.294 -22.525 -18.042  0.00  0.00    -0.004 C 
ATOM     23  C   UNL     1      36.599 -21.767 -18.646  0.00  0.00    +0.031 C 
BRANCH  18  25
ATOM     24  O   UNL     1      32.822 -24.914 -14.425  0.00  0.00    -0.291 OA
ATOM     25  C   UNL     1      32.776 -23.745 -14.851  0.00  0.00    +0.175 C 
ATOM     26  C   UNL     1      31.655 -22.837 -14.360  0.00  0.00    +0.077 C 
ENDBRANCH  18  25
ENDBRANCH  15  17
ENDBRANCH   1  15
TORSDOF 5
ENDMDL
MODEL 2
REMARK VINA RESULT:      -7.5      1.294      2.629
REMARK  Name = 446106
REMARK  5 active torsions:
REMARK  status: ('A' for Active; 'I' for Inactive)
REMARK    1  A    between atoms: C_1  and  C_4
REMARK    2  A    between atoms: C_1  and  C_12
REMARK    3  A    between atoms: C_1  and  N_15
REMARK    4  A    between atoms: N_15  and  C_17
REMARK    5  A    between atoms: C_18  and  C_25
REMARK                            x       y       z     vdW  Elec       q    Type
REMARK                         _______ _______ _______ _____ _____    ______ ____
ROOT
ATOM      1  C   UNL     1      35.807 -24.608 -13.552  0.00  0.00    +0.170 C 
ENDROOT
BRANCH   1   4
ATOM      2 BR   UNL     1      37.693 -22.781 -11.790  0.00  0.00    -0.049 Br
ATOM      3 BR   UNL     1      36.454 -26.994 -15.522  0.00  0.00    -0.049 Br
ATOM      4  C   UNL     1      37.280 -24.932 -13.674  0.00  0.00    +0.017 C 
ATOM      5  C   UNL     1      38.204 -24.197 -12.945  0.00  0.00    +0.033 C 
ATOM      6  C   UNL     1      37.684 -25.962 -14.511  0.00  0.00    +0.033 C 
ATOM      7  C   UNL     1      39.561 -24.498 -13.057  0.00  0.00    +0.006 C 
ATOM      8  C   UNL     1      39.042 -26.263 -14.622  0.00  0.00    +0.006 C 
ATOM      9  C   UNL     1      39.981 -25.530 -13.896  0.00  0.00    +0.001 C 
ENDBRANCH   1   4
BRANCH   1  12
ATOM     10  O   UNL     1      35.717 -25.401 -11.262  0.00  0.00    -0.273 OA
ATOM     11  N   UNL     1      34.499 -23.536 -11.823  0.00  0.00    -0.327 N 
ATOM     12  C   UNL     1      35.358 -24.577 -12.100  0.00  0.00    +0.242 C 
ATOM     13  H   UNL     1      34.145 -23.419 -10.912  0.00  0.00    +0.145 HD
ATOM     14  H   UNL     1      34.239 -22.909 -12.536  0.00  0.00    +0.145 HD
ENDBRANCH   1  12
BRANCH   1  15
ATOM     15  N   UNL     1      35.519 -23.346 -14.155  0.00  0.00    -0.324 N 
ATOM     16  H   UNL     1      35.922 -22.536 -13.767  0.00  0.00    +0.147 HD
BRANCH  15  17
ATOM     17  C   UNL     1      34.679 -23.210 -15.283  0.00  0.00    +0.048 C 
ATOM     18  C   UNL     1      35.185 -22.759 -16.502  0.00  0.00    +0.048 C 
ATOM     19  C   UNL     1      33.327 -23.535 -15.166  0.00  0.00    +0.010 C 
ATOM     20  C   UNL     1      32.482 -23.407 -16.268  0.00  0.00    -0.021 C 
ATOM     21  C   UNL     1      34.339 -22.632 -17.604  0.00  0.00    +0.004 C 
ATOM     22  C   UNL     1      32.987 -22.956 -17.487  0.00  0.00    -0.004 C 
ATOM     23  C   UNL     1      31.037 -23.755 -16.143  0.00  0.00    +0.031 C 
BRANCH  18  25
ATOM     24  O   UNL     1      37.490 -23.094 -16.128  0.00  0.00    -0.291 OA
ATOM     25  C   UNL     1      36.592 -22.412 -16.657  0.00  0.00    +0.175 C 
ATOM     26  C   UNL     1      36.994 -21.194 -17.479  0.00  0.00    +0.077 C 
ENDBRANCH  18  25
ENDBRANCH  15  17
ENDBRANCH   1  15
TORSDOF 5
ENDMDL
MODEL 3
REMARK VINA RESULT:      -7.5      1.294      3.288
REMARK  Name = 446106
REMARK  5 active torsions:
REMARK  status: ('A' for Active; 'I' for Inactive)
REMARK    1  A    between atoms: C_1  and  C_4
REMARK    2  A    between atoms: C_1  and  C_12
REMARK    3  A    between atoms: C_1  and  N_15
REMARK    4  A    between atoms: N_15  and  C_17
REMARK    5  A    between atoms: C_18  and  C_25
REMARK                            x       y       z     vdW  Elec       q    Type
REMARK                         _______ _______ _______ _____ _____    ______ ____
ROOT
ATOM      1  C   UNL     1      35.801 -24.608 -13.545  0.00  0.00    +0.170 C 
ENDROOT
BRANCH   1   4
ATOM      2 BR   UNL     1      36.449 -26.995 -15.514  0.00  0.00    -0.049 Br
ATOM      3 BR   UNL     1      37.686 -22.780 -11.785  0.00  0.00    -0.049 Br
ATOM      4  C   UNL     1      37.274 -24.934 -13.666  0.00  0.00    +0.017 C 
ATOM      5  C   UNL     1      37.679 -25.963 -14.504  0.00  0.00    +0.033 C 
ATOM      6  C   UNL     1      38.198 -24.197 -12.938  0.00  0.00    +0.033 C 
ATOM      7  C   UNL     1      39.037 -26.262 -14.616  0.00  0.00    +0.006 C 
ATOM      8  C   UNL     1      39.556 -24.495 -13.052  0.00  0.00    +0.006 C 
ATOM      9  C   UNL     1      39.976 -25.528 -13.890  0.00  0.00    +0.001 C 
ENDBRANCH   1   4
BRANCH   1  12
ATOM     10  O   UNL     1      35.707 -25.400 -11.255  0.00  0.00    -0.273 OA
ATOM     11  N   UNL     1      34.497 -23.530 -11.816  0.00  0.00    -0.327 N 
ATOM     12  C   UNL     1      35.353 -24.575 -12.094  0.00  0.00    +0.242 C 
ATOM     13  H   UNL     1      34.144 -23.410 -10.905  0.00  0.00    +0.145 HD
ATOM     14  H   UNL     1      34.241 -22.901 -12.530  0.00  0.00    +0.145 HD
ENDBRANCH   1  12
BRANCH   1  15
ATOM     15  N   UNL     1      35.515 -23.346 -14.150  0.00  0.00    -0.324 N 
ATOM     16  H   UNL     1      35.918 -22.535 -13.762  0.00  0.00    +0.147 HD
BRANCH  15  17
ATOM     17  C   UNL     1      34.677 -23.210 -15.279  0.00  0.00    +0.048 C 
ATOM     18  C   UNL     1      35.185 -22.760 -16.498  0.00  0.00    +0.048 C 
ATOM     19  C   UNL     1      33.325 -23.534 -15.164  0.00  0.00    +0.010 C 
ATOM     20  C   UNL     1      32.481 -23.407 -16.267  0.00  0.00    -0.021 C 
ATOM     21  C   UNL     1      34.341 -22.633 -17.601  0.00  0.00    +0.004 C 
ATOM     22  C   UNL     1      32.988 -22.957 -17.485  0.00  0.00    -0.004 C 
ATOM     23  C   UNL     1      31.036 -23.754 -16.144  0.00  0.00    +0.031 C 
BRANCH  18  25
ATOM     24  O   UNL     1      37.489 -23.095 -16.119  0.00  0.00    -0.291 OA
ATOM     25  C   UNL     1      36.592 -22.414 -16.651  0.00  0.00    +0.175 C 
ATOM     26  C   UNL     1      36.996 -21.197 -17.475  0.00  0.00    +0.077 C 
ENDBRANCH  18  25
ENDBRANCH  15  17
ENDBRANCH   1  15
TORSDOF 5
ENDMDL
MODEL 4
REMARK VINA RESULT:      -6.8      1.053      2.284
REMARK  Name = 446106
REMARK  5 active torsions:
REMARK  status: ('A' for Active; 'I' for Inactive)
REMARK    1  A    between atoms: C_1  and  C_4
REMARK    2  A    between atoms: C_1  and  C_12
REMARK    3  A    between atoms: C_1  and  N_15
REMARK    4  A    between atoms: N_15  and  C_17
REMARK    5  A    between atoms: C_18  and  C_25
REMARK                            x       y       z     vdW  Elec       q    Type
REMARK                         _______ _______ _______ _____ _____    ______ ____
ROOT
ATOM      1  C   UNL     1      35.685 -24.542 -13.504  0.00  0.00    +0.170 C 
ENDROOT
BRANCH   1   4
ATOM      2 BR   UNL     1      36.267 -26.862 -15.573  0.00  0.00    -0.049 Br
ATOM      3 BR   UNL     1      37.630 -22.704 -11.823  0.00  0.00    -0.049 Br
ATOM      4  C   UNL     1      37.155 -24.823 -13.729  0.00  0.00    +0.017 C 
ATOM      5  C   UNL     1      37.532 -25.819 -14.617  0.00  0.00    +0.033 C 
ATOM      6  C   UNL     1      38.103 -24.077 -13.043  0.00  0.00    +0.033 C 
ATOM      7  C   UNL     1      38.888 -26.076 -14.825  0.00  0.00    +0.006 C 
ATOM      8  C   UNL     1      39.459 -24.333 -13.252  0.00  0.00    +0.006 C 
ATOM      9  C   UNL     1      39.851 -25.333 -14.142  0.00  0.00    +0.001 C 
ENDBRANCH   1   4
BRANCH   1  12
ATOM     10  O   UNL     1      34.664 -23.686 -11.478  0.00  0.00    -0.273 OA
ATOM     11  N   UNL     1      35.841 -25.655 -11.363  0.00  0.00    -0.327 N 
ATOM     12  C   UNL     1      35.330 -24.561 -12.027  0.00  0.00    +0.242 C 
ATOM     13  H   UNL     1      35.672 -25.771 -10.400  0.00  0.00    +0.145 HD
ATOM     14  H   UNL     1      36.374 -26.323 -11.852  0.00  0.00    +0.145 HD
ENDBRANCH   1  12
BRANCH   1  15
ATOM     15  N   UNL     1      35.326 -23.273 -14.053  0.00  0.00    -0.324 N 
ATOM     16  H   UNL     1      35.595 -22.458 -13.571  0.00  0.00    +0.147 HD
BRANCH  15  17
ATOM     17  C   UNL     1      34.600 -23.137 -15.258  0.00  0.00    +0.048 C 
ATOM     18  C   UNL     1      33.225 -23.367 -15.296  0.00  0.00    +0.048 C 
ATOM     19  C   UNL     1      35.277 -22.765 -16.420  0.00  0.00    +0.010 C 
ATOM     20  C   UNL     1      34.579 -22.626 -17.620  0.00  0.00    -0.021 C 
ATOM     21  C   UNL     1      32.527 -23.227 -16.495  0.00  0.00    +0.004 C 
ATOM     22  C   UNL     1      33.204 -22.857 -17.657  0.00  0.00    -0.004 C 
ATOM     23  C   UNL     1      35.302 -22.229 -18.862  0.00  0.00    +0.031 C 
BRANCH  18  25
ATOM     24  O   UNL     1      32.229 -22.933 -13.202  0.00  0.00    -0.291 OA
ATOM     25  C   UNL     1      32.489 -23.756 -14.099  0.00  0.00    +0.175 C 
ATOM     26  C   UNL     1      32.019 -25.195 -13.924  0.00  0.00    +0.077 C 
ENDBRANCH  18  25
ENDBRANCH  15  17
ENDBRANCH   1  15
TORSDOF 5
ENDMDL
MODEL 5
REMARK VINA RESULT:      -6.7      2.161      2.760
REMARK  Name = 446106
REMARK  5 active torsions:
REMARK  status: ('A' for Active; 'I' for Inactive)
REMARK    1  A    between atoms: C_1  and  C_4
REMARK    2  A    between atoms: C_1  and  C_12
REMARK    3  A    between atoms: C_1  and  N_15
REMARK    4  A    between atoms: N_15  and  C_17
REMARK    5  A    between atoms: C_18  and  C_25
REMARK                            x       y       z     vdW  Elec       q    Type
REMARK                         _______ _______ _______ _____ _____    ______ ____
ROOT
ATOM      1  C   UNL     1      36.109 -24.368 -15.205  0.00  0.00    +0.170 C 
ENDROOT
BRANCH   1   4
ATOM      2 BR   UNL     1      39.229 -24.776 -14.898  0.00  0.00    -0.049 Br
ATOM      3 BR   UNL     1      33.893 -23.542 -13.108  0.00  0.00    -0.049 Br
ATOM      4  C   UNL     1      36.635 -24.126 -13.807  0.00  0.00    +0.017 C 
ATOM      5  C   UNL     1      37.991 -24.274 -13.552  0.00  0.00    +0.033 C 
ATOM      6  C   UNL     1      35.752 -23.758 -12.801  0.00  0.00    +0.033 C 
ATOM      7  C   UNL     1      38.474 -24.048 -12.263  0.00  0.00    +0.006 C 
ATOM      8  C   UNL     1      36.237 -23.532 -11.512  0.00  0.00    +0.006 C 
ATOM      9  C   UNL     1      37.598 -23.678 -11.243  0.00  0.00    +0.001 C 
ENDBRANCH   1   4
BRANCH   1  12
ATOM     10  O   UNL     1      36.414 -26.643 -15.987  0.00  0.00    -0.273 OA
ATOM     11  N   UNL     1      34.467 -26.116 -14.890  0.00  0.00    -0.327 N 
ATOM     12  C   UNL     1      35.709 -25.819 -15.409  0.00  0.00    +0.242 C 
ATOM     13  H   UNL     1      34.106 -27.028 -14.965  0.00  0.00    +0.145 HD
ATOM     14  H   UNL     1      33.940 -25.414 -14.442  0.00  0.00    +0.145 HD
ENDBRANCH   1  12
BRANCH   1  15
ATOM     15  N   UNL     1      34.981 -23.532 -15.469  0.00  0.00    -0.324 N 
ATOM     16  H   UNL     1      34.349 -23.348 -14.736  0.00  0.00    +0.147 HD
BRANCH  15  17
ATOM     17  C   UNL     1      34.731 -22.960 -16.736  0.00  0.00    +0.048 C 
ATOM     18  C   UNL     1      33.438 -22.914 -17.259  0.00  0.00    +0.048 C 
ATOM     19  C   UNL     1      35.797 -22.436 -17.467  0.00  0.00    +0.010 C 
ATOM     20  C   UNL     1      35.571 -21.867 -18.720  0.00  0.00    -0.021 C 
ATOM     21  C   UNL     1      33.212 -22.345 -18.512  0.00  0.00    +0.004 C 
ATOM     22  C   UNL     1      34.279 -21.822 -19.243  0.00  0.00    -0.004 C 
ATOM     23  C   UNL     1      36.712 -21.307 -19.501  0.00  0.00    +0.031 C 
BRANCH  18  25
ATOM     24  O   UNL     1      32.393 -24.518 -15.881  0.00  0.00    -0.291 OA
ATOM     25  C   UNL     1      32.303 -23.453 -16.521  0.00  0.00    +0.175 C 
ATOM     26  C   UNL     1      30.971 -22.714 -16.518  0.00  0.00    +0.077 C 
ENDBRANCH  18  25
ENDBRANCH  15  17
ENDBRANCH   1  15
TORSDOF 5
ENDMDL
MODEL 6
REMARK VINA RESULT:      -6.7      2.160      2.646
REMARK  Name = 446106
REMARK  5 active torsions:
REMARK  status: ('A' for Active; 'I' for Inactive)
REMARK    1  A    between atoms: C_1  and  C_4
REMARK    2  A    between atoms: C_1  and  C_12
REMARK    3  A    between atoms: C_1  and  N_15
REMARK    4  A    between atoms: N_15  and  C_17
REMARK    5  A    between atoms: C_18  and  C_25
REMARK                            x       y       z     vdW  Elec       q    Type
REMARK                         _______ _______ _______ _____ _____    ______ ____
ROOT
ATOM      1  C   UNL     1      36.104 -24.370 -15.203  0.00  0.00    +0.170 C 
ENDROOT
BRANCH   1   4
ATOM      2 BR   UNL     1      33.890 -23.545 -13.102  0.00  0.00    -0.049 Br
ATOM      3 BR   UNL     1      39.223 -24.780 -14.901  0.00  0.00    -0.049 Br
ATOM      4  C   UNL     1      36.631 -24.128 -13.806  0.00  0.00    +0.017 C 
ATOM      5  C   UNL     1      35.750 -23.761 -12.798  0.00  0.00    +0.033 C 
ATOM      6  C   UNL     1      37.987 -24.278 -13.552  0.00  0.00    +0.033 C 
ATOM      7  C   UNL     1      36.236 -23.541 -11.509  0.00  0.00    +0.006 C 
ATOM      8  C   UNL     1      38.473 -24.057 -12.263  0.00  0.00    +0.006 C 
ATOM      9  C   UNL     1      37.597 -23.688 -11.242  0.00  0.00    +0.001 C 
ENDBRANCH   1   4
BRANCH   1  12
ATOM     10  O   UNL     1      36.408 -26.645 -15.985  0.00  0.00    -0.273 OA
ATOM     11  N   UNL     1      34.461 -26.117 -14.887  0.00  0.00    -0.327 N 
ATOM     12  C   UNL     1      35.703 -25.821 -15.408  0.00  0.00    +0.242 C 
ATOM     13  H   UNL     1      34.100 -27.029 -14.962  0.00  0.00    +0.145 HD
ATOM     14  H   UNL     1      33.935 -25.414 -14.439  0.00  0.00    +0.145 HD
ENDBRANCH   1  12
BRANCH   1  15
ATOM     15  N   UNL     1      34.976 -23.533 -15.466  0.00  0.00    -0.324 N 
ATOM     16  H   UNL     1      34.345 -23.349 -14.734  0.00  0.00    +0.147 HD
BRANCH  15  17
ATOM     17  C   UNL     1      34.726 -22.961 -16.734  0.00  0.00    +0.048 C 
ATOM     18  C   UNL     1      33.433 -22.914 -17.256  0.00  0.00    +0.048 C 
ATOM     19  C   UNL     1      35.792 -22.438 -17.465  0.00  0.00    +0.010 C 
ATOM     20  C   UNL     1      35.566 -21.869 -18.719  0.00  0.00    -0.021 C 
ATOM     21  C   UNL     1      33.206 -22.345 -18.509  0.00  0.00    +0.004 C 
ATOM     22  C   UNL     1      34.273 -21.822 -19.241  0.00  0.00    -0.004 C 
ATOM     23  C   UNL     1      36.706 -21.309 -19.500  0.00  0.00    +0.031 C 
BRANCH  18  25
ATOM     24  O   UNL     1      32.388 -24.516 -15.875  0.00  0.00    -0.291 OA
ATOM     25  C   UNL     1      32.297 -23.452 -16.517  0.00  0.00    +0.175 C 
ATOM     26  C   UNL     1      30.965 -22.714 -16.516  0.00  0.00    +0.077 C 
ENDBRANCH  18  25
ENDBRANCH  15  17
ENDBRANCH   1  15
TORSDOF 5
ENDMDL
MODEL 7
REMARK VINA RESULT:      -6.6     11.782     14.908
REMARK  Name = 446106
REMARK  5 active torsions:
REMARK  status: ('A' for Active; 'I' for Inactive)
REMARK    1  A    between atoms: C_1  and  C_4
REMARK    2  A    between atoms: C_1  and  C_12
REMARK    3  A    between atoms: C_1  and  N_15
REMARK    4  A    between atoms: N_15  and  C_17
REMARK    5  A    between atoms: C_18  and  C_25
REMARK                            x       y       z     vdW  Elec       q    Type
REMARK                         _______ _______ _______ _____ _____    ______ ____
ROOT
ATOM      1  C   UNL     1      33.134 -13.795 -24.956  0.00  0.00    +0.170 C 
ENDROOT
BRANCH   1   4
ATOM      2 BR   UNL     1      32.115 -12.379 -22.318  0.00  0.00    -0.049 Br
ATOM      3 BR   UNL     1      34.952 -12.750 -27.321  0.00  0.00    -0.049 Br
ATOM      4  C   UNL     1      33.598 -12.363 -24.798  0.00  0.00    +0.017 C 
ATOM      5  C   UNL     1      33.214 -11.640 -23.677  0.00  0.00    +0.033 C 
ATOM      6  C   UNL     1      34.403 -11.796 -25.776  0.00  0.00    +0.033 C 
ATOM      7  C   UNL     1      33.645 -10.322 -23.532  0.00  0.00    +0.006 C 
ATOM      8  C   UNL     1      34.833 -10.477 -25.630  0.00  0.00    +0.006 C 
ATOM      9  C   UNL     1      34.454  -9.739 -24.508  0.00  0.00    +0.001 C 
ENDBRANCH   1   4
BRANCH   1  12
ATOM     10  O   UNL     1      32.027 -13.125 -27.007  0.00  0.00    -0.273 OA
ATOM     11  N   UNL     1      32.453 -15.357 -26.673  0.00  0.00    -0.327 N 
ATOM     12  C   UNL     1      32.485 -14.027 -26.310  0.00  0.00    +0.242 C 
ATOM     13  H   UNL     1      32.055 -15.624 -27.533  0.00  0.00    +0.145 HD
ATOM     14  H   UNL     1      32.829 -16.040 -26.071  0.00  0.00    +0.145 HD
ENDBRANCH   1  12
BRANCH   1  15
ATOM     15  N   UNL     1      34.230 -14.698 -24.804  0.00  0.00    -0.324 N 
ATOM     16  H   UNL     1      34.879 -14.780 -25.540  0.00  0.00    +0.147 HD
BRANCH  15  17
ATOM     17  C   UNL     1      34.422 -15.481 -23.643  0.00  0.00    +0.048 C 
ATOM     18  C   UNL     1      34.627 -16.857 -23.734  0.00  0.00    +0.048 C 
ATOM     19  C   UNL     1      34.407 -14.858 -22.394  0.00  0.00    +0.010 C 
ATOM     20  C   UNL     1      34.595 -15.614 -21.237  0.00  0.00    -0.021 C 
ATOM     21  C   UNL     1      34.815 -17.613 -22.576  0.00  0.00    +0.004 C 
ATOM     22  C   UNL     1      34.799 -16.990 -21.327  0.00  0.00    -0.004 C 
ATOM     23  C   UNL     1      34.579 -14.948 -19.902  0.00  0.00    +0.031 C 
BRANCH  18  25
ATOM     24  O   UNL     1      34.994 -16.944 -26.062  0.00  0.00    -0.291 OA
ATOM     25  C   UNL     1      34.648 -17.537 -25.023  0.00  0.00    +0.175 C 
ATOM     26  C   UNL     1      34.244 -19.003 -25.122  0.00  0.00    +0.077 C 
ENDBRANCH  18  25
ENDBRANCH  15  17
ENDBRANCH   1  15
TORSDOF 5
ENDMDL
MODEL 8
REMARK VINA RESULT:      -6.6     15.602     18.198
REMARK  Name = 446106
REMARK  5 active torsions:
REMARK  status: ('A' for Active; 'I' for Inactive)
REMARK    1  A    between atoms: C_1  and  C_4
REMARK    2  A    between atoms: C_1  and  C_12
REMARK    3  A    between atoms: C_1  and  N_15
REMARK    4  A    between atoms: N_15  and  C_17
REMARK    5  A    between atoms: C_18  and  C_25
REMARK                            x       y       z     vdW  Elec       q    Type
REMARK                         _______ _______ _______ _____ _____    ______ ____
ROOT
ATOM      1  C   UNL     1      32.739  -7.729 -21.945  0.00  0.00    +0.170 C 
ENDROOT
BRANCH   1   4
ATOM      2 BR   UNL     1      30.099  -5.997 -21.774  0.00  0.00    -0.049 Br
ATOM      3 BR   UNL     1      35.062  -7.794 -24.087  0.00  0.00    -0.049 Br
ATOM      4  C   UNL     1      32.554  -6.760 -23.092  0.00  0.00    +0.017 C 
ATOM      5  C   UNL     1      31.432  -5.945 -23.124  0.00  0.00    +0.033 C 
ATOM      6  C   UNL     1      33.512  -6.699 -24.094  0.00  0.00    +0.033 C 
ATOM      7  C   UNL     1      31.264  -5.050 -24.181  0.00  0.00    +0.006 C 
ATOM      8  C   UNL     1      33.344  -5.804 -25.151  0.00  0.00    +0.006 C 
ATOM      9  C   UNL     1      32.219  -4.980 -25.195  0.00  0.00    +0.001 C 
ENDBRANCH   1   4
BRANCH   1  12
ATOM     10  O   UNL     1      32.769  -5.875 -20.382  0.00  0.00    -0.273 OA
ATOM     11  N   UNL     1      32.002  -7.911 -19.648  0.00  0.00    -0.327 N 
ATOM     12  C   UNL     1      32.513  -7.057 -20.601  0.00  0.00    +0.242 C 
ATOM     13  H   UNL     1      31.815  -7.582 -18.739  0.00  0.00    +0.145 HD
ATOM     14  H   UNL     1      31.822  -8.852 -19.877  0.00  0.00    +0.145 HD
ENDBRANCH   1  12
BRANCH   1  15
ATOM     15  N   UNL     1      31.840  -8.832 -22.070  0.00  0.00    -0.324 N 
ATOM     16  H   UNL     1      30.897  -8.703 -21.815  0.00  0.00    +0.147 HD
BRANCH  15  17
ATOM     17  C   UNL     1      32.245 -10.101 -22.542  0.00  0.00    +0.048 C 
ATOM     18  C   UNL     1      31.884 -11.266 -21.866  0.00  0.00    +0.048 C 
ATOM     19  C   UNL     1      33.014 -10.179 -23.703  0.00  0.00    +0.010 C 
ATOM     20  C   UNL     1      33.425 -11.422 -24.186  0.00  0.00    -0.021 C 
ATOM     21  C   UNL     1      32.294 -12.509 -22.348  0.00  0.00    +0.004 C 
ATOM     22  C   UNL     1      33.064 -12.586 -23.509  0.00  0.00    -0.004 C 
ATOM     23  C   UNL     1      34.247 -11.505 -25.427  0.00  0.00    +0.031 C 
BRANCH  18  25
ATOM     24  O   UNL     1      29.839 -11.127 -20.697  0.00  0.00    -0.291 OA
ATOM     25  C   UNL     1      31.081 -11.218 -20.650  0.00  0.00    +0.175 C 
ATOM     26  C   UNL     1      31.754 -11.281 -19.285  0.00  0.00    +0.077 C 
ENDBRANCH  18  25
ENDBRANCH  15  17
ENDBRANCH   1  15
TORSDOF 5
ENDMDL
MODEL 9
REMARK VINA RESULT:      -6.6     11.783     14.976
REMARK  Name = 446106
REMARK  5 active torsions:
REMARK  status: ('A' for Active; 'I' for Inactive)
REMARK    1  A    between atoms: C_1  and  C_4
REMARK    2  A    between atoms: C_1  and  C_12
REMARK    3  A    between atoms: C_1  and  N_15
REMARK    4  A    between atoms: N_15  and  C_17
REMARK    5  A    between atoms: C_18  and  C_25
REMARK                            x       y       z     vdW  Elec       q    Type
REMARK                         _______ _______ _______ _____ _____    ______ ____
ROOT
ATOM      1  C   UNL     1      33.132 -13.795 -24.956  0.00  0.00    +0.170 C 
ENDROOT
BRANCH   1   4
ATOM      2 BR   UNL     1      34.952 -12.747 -27.319  0.00  0.00    -0.049 Br
ATOM      3 BR   UNL     1      32.110 -12.381 -22.320  0.00  0.00    -0.049 Br
ATOM      4  C   UNL     1      33.597 -12.363 -24.797  0.00  0.00    +0.017 C 
ATOM      5  C   UNL     1      34.401 -11.794 -25.774  0.00  0.00    +0.033 C 
ATOM      6  C   UNL     1      33.210 -11.641 -23.677  0.00  0.00    +0.033 C 
ATOM      7  C   UNL     1      34.827 -10.474 -25.628  0.00  0.00    +0.006 C 
ATOM      8  C   UNL     1      33.636 -10.320 -23.532  0.00  0.00    +0.006 C 
ATOM      9  C   UNL     1      34.445  -9.737 -24.507  0.00  0.00    +0.001 C 
ENDBRANCH   1   4
BRANCH   1  12
ATOM     10  O   UNL     1      32.026 -13.124 -27.006  0.00  0.00    -0.273 OA
ATOM     11  N   UNL     1      32.453 -15.356 -26.674  0.00  0.00    -0.327 N 
ATOM     12  C   UNL     1      32.484 -14.027 -26.310  0.00  0.00    +0.242 C 
ATOM     13  H   UNL     1      32.056 -15.623 -27.534  0.00  0.00    +0.145 HD
ATOM     14  H   UNL     1      32.830 -16.040 -26.073  0.00  0.00    +0.145 HD
ENDBRANCH   1  12
BRANCH   1  15
ATOM     15  N   UNL     1      34.228 -14.698 -24.803  0.00  0.00    -0.324 N 
ATOM     16  H   UNL     1      34.878 -14.779 -25.539  0.00  0.00    +0.147 HD
BRANCH  15  17
ATOM     17  C   UNL     1      34.420 -15.481 -23.643  0.00  0.00    +0.048 C 
ATOM     18  C   UNL     1      34.626 -16.858 -23.734  0.00  0.00    +0.048 C 
ATOM     19  C   UNL     1      34.402 -14.860 -22.394  0.00  0.00    +0.010 C 
ATOM     20  C   UNL     1      34.589 -15.616 -21.236  0.00  0.00    -0.021 C 
ATOM     21  C   UNL     1      34.813 -17.614 -22.577  0.00  0.00    +0.004 C 
ATOM     22  C   UNL     1      34.795 -16.992 -21.327  0.00  0.00    -0.004 C 
ATOM     23  C   UNL     1      34.570 -14.952 -19.901  0.00  0.00    +0.031 C 
BRANCH  18  25
ATOM     24  O   UNL     1      34.995 -16.942 -26.063  0.00  0.00    -0.291 OA
ATOM     25  C   UNL     1      34.650 -17.537 -25.024  0.00  0.00    +0.175 C 
ATOM     26  C   UNL     1      34.250 -19.003 -25.124  0.00  0.00    +0.077 C 
ENDBRANCH  18  25
ENDBRANCH  15  17
ENDBRANCH   1  15
TORSDOF 5
ENDMDL
