MODEL 1
REMARK VINA RESULT:      -9.7      0.000      0.000
REMARK  Name = 33675
REMARK  5 active torsions:
REMARK  status: ('A' for Active; 'I' for Inactive)
REMARK    1  A    between atoms: C_3  and  C_22
REMARK    2  A    between atoms: C_10  and  C_14
REMARK    3  A    between atoms: C_11  and  O_20
REMARK    4  A    between atoms: C_22  and  C_25
REMARK    5  A    between atoms: N_24  and  O_27
REMARK                            x       y       z     vdW  Elec       q    Type
REMARK                         _______ _______ _______ _____ _____    ______ ____
ROOT
ATOM      1  O   UNL     1      35.690 -17.999 -24.070  0.00  0.00    -0.267 OA
ATOM      2  N   UNL     1      34.182 -16.487 -23.319  0.00  0.00    -0.279 N 
ATOM      3  C   UNL     1      33.190 -14.695 -24.245  0.00  0.00    +0.001 A 
ATOM      4  C   UNL     1      33.072 -14.577 -22.840  0.00  0.00    +0.017 A 
ATOM      5  C   UNL     1      33.690 -15.700 -22.272  0.00  0.00    +0.066 A 
ATOM      6  C   UNL     1      33.859 -15.863 -24.509  0.00  0.00    +0.041 A 
ATOM      7  C   UNL     1      32.487 -13.606 -22.001  0.00  0.00    +0.038 C 
ATOM      8  C   UNL     1      33.740 -15.861 -20.875  0.00  0.00    +0.021 C 
ATOM      9  C   UNL     1      34.208 -16.404 -25.844  0.00  0.00    +0.050 C 
ATOM     10  C   UNL     1      34.858 -17.722 -23.212  0.00  0.00    +0.264 C 
ATOM     11  C   UNL     1      32.535 -13.772 -20.616  0.00  0.00    +0.139 C 
ATOM     12  C   UNL     1      33.154 -14.885 -20.062  0.00  0.00    +0.038 C 
ENDROOT
BRANCH  10  14
ATOM     13 CL   UNL     1      33.999 -21.712 -18.839  0.00  0.00    -0.082 Cl
ATOM     14  C   UNL     1      34.646 -18.706 -22.132  0.00  0.00    +0.057 C 
ATOM     15  C   UNL     1      35.736 -19.196 -21.418  0.00  0.00    +0.006 C 
ATOM     16  C   UNL     1      33.357 -19.141 -21.835  0.00  0.00    +0.006 C 
ATOM     17  C   UNL     1      35.537 -20.127 -20.399  0.00  0.00    +0.012 C 
ATOM     18  C   UNL     1      33.157 -20.072 -20.815  0.00  0.00    +0.012 C 
ATOM     19  C   UNL     1      34.246 -20.564 -20.098  0.00  0.00    +0.058 C 
ENDBRANCH  10  14
BRANCH  11  20
ATOM     20  O   UNL     1      31.970 -12.835 -19.803  0.00  0.00    -0.471 OA
ATOM     21  C   UNL     1      31.568 -11.609 -20.410  0.00  0.00    +0.252 C 
ENDBRANCH  11  20
BRANCH   3  22
ATOM     22  C   UNL     1      32.679 -13.735 -25.248  0.00  0.00    +0.115 C 
BRANCH  22  25
ATOM     23  O   UNL     1      34.126 -12.510 -26.737  0.00  0.00    -0.273 OA
ATOM     24  N   UNL     1      34.115 -11.939 -24.499  0.00  0.00    -0.197 N 
ATOM     25  C   UNL     1      33.712 -12.670 -25.589  0.00  0.00    +0.249 C 
ATOM     26  H   UNL     1      33.754 -12.102 -23.598  0.00  0.00    +0.182 HD
BRANCH  24  27
ATOM     27  O   UNL     1      35.071 -10.945 -24.749  0.00  0.00    -0.295 OA
ATOM     28  H   UNL     1      34.663 -10.223 -25.252  0.00  0.00    +0.241 HD
ENDBRANCH  24  27
ENDBRANCH  22  25
ENDBRANCH   3  22
TORSDOF 5
ENDMDL
MODEL 2
REMARK VINA RESULT:      -9.3      6.496      9.821
REMARK  Name = 33675
REMARK  5 active torsions:
REMARK  status: ('A' for Active; 'I' for Inactive)
REMARK    1  A    between atoms: C_3  and  C_22
REMARK    2  A    between atoms: C_10  and  C_14
REMARK    3  A    between atoms: C_11  and  O_20
REMARK    4  A    between atoms: C_22  and  C_25
REMARK    5  A    between atoms: N_24  and  O_27
REMARK                            x       y       z     vdW  Elec       q    Type
REMARK                         _______ _______ _______ _____ _____    ______ ____
ROOT
ATOM      1  O   UNL     1      37.581 -21.600 -16.329  0.00  0.00    -0.267 OA
ATOM      2  N   UNL     1      35.564 -22.508 -16.809  0.00  0.00    -0.279 N 
ATOM      3  C   UNL     1      34.162 -22.336 -18.558  0.00  0.00    +0.001 A 
ATOM      4  C   UNL     1      33.421 -22.827 -17.458  0.00  0.00    +0.017 A 
ATOM      5  C   UNL     1      34.304 -22.934 -16.373  0.00  0.00    +0.066 A 
ATOM      6  C   UNL     1      35.458 -22.158 -18.142  0.00  0.00    +0.041 A 
ATOM      7  C   UNL     1      32.070 -23.193 -17.292  0.00  0.00    +0.038 C 
ATOM      8  C   UNL     1      33.851 -23.392 -15.122  0.00  0.00    +0.021 C 
ATOM      9  C   UNL     1      36.592 -21.665 -18.957  0.00  0.00    +0.050 C 
ATOM     10  C   UNL     1      36.757 -22.467 -16.056  0.00  0.00    +0.264 C 
ATOM     11  C   UNL     1      31.625 -23.652 -16.051  0.00  0.00    +0.139 C 
ATOM     12  C   UNL     1      32.506 -23.749 -14.981  0.00  0.00    +0.038 C 
ENDROOT
BRANCH  10  14
ATOM     13 CL   UNL     1      38.083 -26.199 -11.573  0.00  0.00    -0.082 Cl
ATOM     14  C   UNL     1      37.086 -23.388 -14.950  0.00  0.00    +0.057 C 
ATOM     15  C   UNL     1      37.376 -24.722 -15.222  0.00  0.00    +0.006 C 
ATOM     16  C   UNL     1      37.101 -22.918 -13.639  0.00  0.00    +0.006 C 
ATOM     17  C   UNL     1      37.685 -25.593 -14.177  0.00  0.00    +0.012 C 
ATOM     18  C   UNL     1      37.409 -23.789 -12.593  0.00  0.00    +0.012 C 
ATOM     19  C   UNL     1      37.701 -25.125 -12.863  0.00  0.00    +0.058 C 
ENDBRANCH  10  14
BRANCH  11  20
ATOM     20  O   UNL     1      30.320 -24.005 -15.890  0.00  0.00    -0.471 OA
ATOM     21  C   UNL     1      30.055 -25.163 -15.100  0.00  0.00    +0.252 C 
ENDBRANCH  11  20
BRANCH   3  22
ATOM     22  C   UNL     1      33.637 -22.069 -19.915  0.00  0.00    +0.115 C 
BRANCH  22  25
ATOM     23  O   UNL     1      32.203 -20.150 -19.641  0.00  0.00    -0.273 OA
ATOM     24  N   UNL     1      34.181 -19.887 -20.804  0.00  0.00    -0.197 N 
ATOM     25  C   UNL     1      33.252 -20.607 -20.095  0.00  0.00    +0.249 C 
ATOM     26  H   UNL     1      35.007 -20.296 -21.148  0.00  0.00    +0.182 HD
BRANCH  24  27
ATOM     27  O   UNL     1      33.879 -18.534 -21.009  0.00  0.00    -0.295 OA
ATOM     28  H   UNL     1      33.309 -18.218 -20.291  0.00  0.00    +0.241 HD
ENDBRANCH  24  27
ENDBRANCH  22  25
ENDBRANCH   3  22
TORSDOF 5
ENDMDL
MODEL 3
REMARK VINA RESULT:      -9.2      5.126      9.319
REMARK  Name = 33675
REMARK  5 active torsions:
REMARK  status: ('A' for Active; 'I' for Inactive)
REMARK    1  A    between atoms: C_3  and  C_22
REMARK    2  A    between atoms: C_10  and  C_14
REMARK    3  A    between atoms: C_11  and  O_20
REMARK    4  A    between atoms: C_22  and  C_25
REMARK    5  A    between atoms: N_24  and  O_27
REMARK                            x       y       z     vdW  Elec       q    Type
REMARK                         _______ _______ _______ _____ _____    ______ ____
ROOT
ATOM      1  O   UNL     1      31.608  -9.451 -20.266  0.00  0.00    -0.267 OA
ATOM      2  N   UNL     1      32.427 -10.170 -22.250  0.00  0.00    -0.279 N 
ATOM      3  C   UNL     1      32.763 -12.206 -23.143  0.00  0.00    +0.001 A 
ATOM      4  C   UNL     1      33.559 -11.282 -23.861  0.00  0.00    +0.017 A 
ATOM      5  C   UNL     1      33.341 -10.016 -23.299  0.00  0.00    +0.066 A 
ATOM      6  C   UNL     1      32.082 -11.506 -22.178  0.00  0.00    +0.041 A 
ATOM      7  C   UNL     1      34.448 -11.417 -24.947  0.00  0.00    +0.038 C 
ATOM      8  C   UNL     1      34.008  -8.884 -23.802  0.00  0.00    +0.021 C 
ATOM      9  C   UNL     1      31.125 -12.058 -21.191  0.00  0.00    +0.050 C 
ATOM     10  C   UNL     1      31.904  -9.155 -21.420  0.00  0.00    +0.264 C 
ATOM     11  C   UNL     1      35.105 -10.291 -25.446  0.00  0.00    +0.139 C 
ATOM     12  C   UNL     1      34.886  -9.042 -24.879  0.00  0.00    +0.038 C 
ENDROOT
BRANCH  10  14
ATOM     13 CL   UNL     1      31.068  -3.475 -23.098  0.00  0.00    -0.082 Cl
ATOM     14  C   UNL     1      31.697  -7.754 -21.833  0.00  0.00    +0.057 C 
ATOM     15  C   UNL     1      31.029  -7.474 -23.023  0.00  0.00    +0.006 C 
ATOM     16  C   UNL     1      32.173  -6.718 -21.034  0.00  0.00    +0.006 C 
ATOM     17  C   UNL     1      30.834  -6.150 -23.415  0.00  0.00    +0.012 C 
ATOM     18  C   UNL     1      31.978  -5.393 -21.425  0.00  0.00    +0.012 C 
ATOM     19  C   UNL     1      31.309  -5.110 -22.615  0.00  0.00    +0.058 C 
ENDBRANCH  10  14
BRANCH  11  20
ATOM     20  O   UNL     1      35.965 -10.419 -26.494  0.00  0.00    -0.471 OA
ATOM     21  C   UNL     1      35.594 -11.327 -27.529  0.00  0.00    +0.252 C 
ENDBRANCH  11  20
BRANCH   3  22
ATOM     22  C   UNL     1      32.675 -13.661 -23.392  0.00  0.00    +0.115 C 
BRANCH  22  25
ATOM     23  O   UNL     1      34.456 -14.176 -21.850  0.00  0.00    -0.273 OA
ATOM     24  N   UNL     1      34.408 -15.275 -23.880  0.00  0.00    -0.197 N 
ATOM     25  C   UNL     1      33.936 -14.389 -22.945  0.00  0.00    +0.249 C 
ATOM     26  H   UNL     1      33.957 -15.413 -24.744  0.00  0.00    +0.182 HD
BRANCH  24  27
ATOM     27  O   UNL     1      35.572 -15.972 -23.529  0.00  0.00    -0.295 OA
ATOM     28  H   UNL     1      36.089 -15.443 -22.901  0.00  0.00    +0.241 HD
ENDBRANCH  24  27
ENDBRANCH  22  25
ENDBRANCH   3  22
TORSDOF 5
ENDMDL
MODEL 4
REMARK VINA RESULT:      -9.0      1.506      2.055
REMARK  Name = 33675
REMARK  5 active torsions:
REMARK  status: ('A' for Active; 'I' for Inactive)
REMARK    1  A    between atoms: C_3  and  C_22
REMARK    2  A    between atoms: C_10  and  C_14
REMARK    3  A    between atoms: C_11  and  O_20
REMARK    4  A    between atoms: C_22  and  C_25
REMARK    5  A    between atoms: N_24  and  O_27
REMARK                            x       y       z     vdW  Elec       q    Type
REMARK                         _______ _______ _______ _____ _____    ______ ____
ROOT
ATOM      1  O   UNL     1      36.118 -18.502 -23.415  0.00  0.00    -0.267 OA
ATOM      2  N   UNL     1      34.606 -16.873 -22.989  0.00  0.00    -0.279 N 
ATOM      3  C   UNL     1      33.959 -15.028 -24.098  0.00  0.00    +0.001 A 
ATOM      4  C   UNL     1      33.567 -14.879 -22.747  0.00  0.00    +0.017 A 
ATOM      5  C   UNL     1      33.972 -16.035 -22.064  0.00  0.00    +0.066 A 
ATOM      6  C   UNL     1      34.579 -16.246 -24.220  0.00  0.00    +0.041 A 
ATOM      7  C   UNL     1      32.898 -13.856 -22.045  0.00  0.00    +0.038 C 
ATOM      8  C   UNL     1      33.725 -16.177 -20.686  0.00  0.00    +0.021 C 
ATOM      9  C   UNL     1      35.150 -16.832 -25.455  0.00  0.00    +0.050 C 
ATOM     10  C   UNL     1      35.152 -18.152 -22.745  0.00  0.00    +0.264 C 
ATOM     11  C   UNL     1      32.651 -14.003 -20.679  0.00  0.00    +0.139 C 
ATOM     12  C   UNL     1      33.060 -15.149 -20.010  0.00  0.00    +0.038 C 
ENDROOT
BRANCH  10  14
ATOM     13 CL   UNL     1      33.131 -21.992 -18.628  0.00  0.00    -0.082 Cl
ATOM     14  C   UNL     1      34.653 -19.100 -21.730  0.00  0.00    +0.057 C 
ATOM     15  C   UNL     1      33.283 -19.283 -21.567  0.00  0.00    +0.006 C 
ATOM     16  C   UNL     1      35.556 -19.806 -20.939  0.00  0.00    +0.006 C 
ATOM     17  C   UNL     1      32.811 -20.178 -20.607  0.00  0.00    +0.012 C 
ATOM     18  C   UNL     1      35.085 -20.701 -19.978  0.00  0.00    +0.012 C 
ATOM     19  C   UNL     1      33.712 -20.887 -19.813  0.00  0.00    +0.058 C 
ENDBRANCH  10  14
BRANCH  11  20
ATOM     20  O   UNL     1      32.004 -13.015 -20.000  0.00  0.00    -0.471 OA
ATOM     21  C   UNL     1      31.557 -11.892 -20.757  0.00  0.00    +0.252 C 
ENDBRANCH  11  20
BRANCH   3  22
ATOM     22  C   UNL     1      33.735 -14.050 -25.185  0.00  0.00    +0.115 C 
BRANCH  22  25
ATOM     23  O   UNL     1      33.652 -14.422 -27.565  0.00  0.00    -0.273 OA
ATOM     24  N   UNL     1      32.250 -15.659 -26.211  0.00  0.00    -0.197 N 
ATOM     25  C   UNL     1      33.221 -14.720 -26.453  0.00  0.00    +0.249 C 
ATOM     26  H   UNL     1      31.936 -15.865 -25.301  0.00  0.00    +0.182 HD
BRANCH  24  27
ATOM     27  O   UNL     1      31.732 -16.307 -27.341  0.00  0.00    -0.295 OA
ATOM     28  H   UNL     1      32.160 -17.172 -27.442  0.00  0.00    +0.241 HD
ENDBRANCH  24  27
ENDBRANCH  22  25
ENDBRANCH   3  22
TORSDOF 5
ENDMDL
MODEL 5
REMARK VINA RESULT:      -8.8      4.858      9.130
REMARK  Name = 33675
REMARK  5 active torsions:
REMARK  status: ('A' for Active; 'I' for Inactive)
REMARK    1  A    between atoms: C_3  and  C_22
REMARK    2  A    between atoms: C_10  and  C_14
REMARK    3  A    between atoms: C_11  and  O_20
REMARK    4  A    between atoms: C_22  and  C_25
REMARK    5  A    between atoms: N_24  and  O_27
REMARK                            x       y       z     vdW  Elec       q    Type
REMARK                         _______ _______ _______ _____ _____    ______ ____
ROOT
ATOM      1  O   UNL     1      32.253  -9.057 -20.166  0.00  0.00    -0.267 OA
ATOM      2  N   UNL     1      32.383 -10.497 -21.907  0.00  0.00    -0.279 N 
ATOM      3  C   UNL     1      32.405 -12.740 -22.066  0.00  0.00    +0.001 A 
ATOM      4  C   UNL     1      32.929 -12.215 -23.271  0.00  0.00    +0.017 A 
ATOM      5  C   UNL     1      32.908 -10.818 -23.164  0.00  0.00    +0.066 A 
ATOM      6  C   UNL     1      32.076 -11.679 -21.260  0.00  0.00    +0.041 A 
ATOM      7  C   UNL     1      33.418 -12.815 -24.450  0.00  0.00    +0.038 C 
ATOM      8  C   UNL     1      33.380 -10.010 -24.215  0.00  0.00    +0.021 C 
ATOM      9  C   UNL     1      31.488 -11.746 -19.901  0.00  0.00    +0.050 C 
ATOM     10  C   UNL     1      32.160  -9.207 -21.380  0.00  0.00    +0.264 C 
ATOM     11  C   UNL     1      33.881 -12.010 -25.493  0.00  0.00    +0.139 C 
ATOM     12  C   UNL     1      33.862 -10.627 -25.375  0.00  0.00    +0.038 C 
ENDROOT
BRANCH  10  14
ATOM     13 CL   UNL     1      30.843  -4.373 -24.648  0.00  0.00    -0.082 Cl
ATOM     14  C   UNL     1      31.834  -8.014 -22.186  0.00  0.00    +0.057 C 
ATOM     15  C   UNL     1      31.027  -8.139 -23.314  0.00  0.00    +0.006 C 
ATOM     16  C   UNL     1      32.337  -6.769 -21.815  0.00  0.00    +0.006 C 
ATOM     17  C   UNL     1      30.720  -7.013 -24.076  0.00  0.00    +0.012 C 
ATOM     18  C   UNL     1      32.030  -5.642 -22.578  0.00  0.00    +0.012 C 
ATOM     19  C   UNL     1      31.222  -5.764 -23.708  0.00  0.00    +0.058 C 
ENDBRANCH  10  14
BRANCH  11  20
ATOM     20  O   UNL     1      34.355 -12.587 -26.632  0.00  0.00    -0.471 OA
ATOM     21  C   UNL     1      33.452 -13.415 -27.363  0.00  0.00    +0.252 C 
ENDBRANCH  11  20
BRANCH   3  22
ATOM     22  C   UNL     1      32.238 -14.172 -21.737  0.00  0.00    +0.115 C 
BRANCH  22  25
ATOM     23  O   UNL     1      34.279 -14.571 -20.518  0.00  0.00    -0.273 OA
ATOM     24  N   UNL     1      33.891 -15.790 -22.441  0.00  0.00    -0.197 N 
ATOM     25  C   UNL     1      33.575 -14.855 -21.486  0.00  0.00    +0.249 C 
ATOM     26  H   UNL     1      33.295 -15.984 -23.200  0.00  0.00    +0.182 HD
BRANCH  24  27
ATOM     27  O   UNL     1      35.115 -16.450 -22.268  0.00  0.00    -0.295 OA
ATOM     28  H   UNL     1      35.008 -17.167 -21.625  0.00  0.00    +0.241 HD
ENDBRANCH  24  27
ENDBRANCH  22  25
ENDBRANCH   3  22
TORSDOF 5
ENDMDL
MODEL 6
REMARK VINA RESULT:      -8.3      7.595     11.685
REMARK  Name = 33675
REMARK  5 active torsions:
REMARK  status: ('A' for Active; 'I' for Inactive)
REMARK    1  A    between atoms: C_3  and  C_22
REMARK    2  A    between atoms: C_10  and  C_14
REMARK    3  A    between atoms: C_11  and  O_20
REMARK    4  A    between atoms: C_22  and  C_25
REMARK    5  A    between atoms: N_24  and  O_27
REMARK                            x       y       z     vdW  Elec       q    Type
REMARK                         _______ _______ _______ _____ _____    ______ ____
ROOT
ATOM      1  O   UNL     1      37.454 -22.754 -17.377  0.00  0.00    -0.267 OA
ATOM      2  N   UNL     1      35.503 -22.846 -16.233  0.00  0.00    -0.279 N 
ATOM      3  C   UNL     1      34.971 -23.375 -14.113  0.00  0.00    +0.001 A 
ATOM      4  C   UNL     1      33.796 -23.480 -14.892  0.00  0.00    +0.017 A 
ATOM      5  C   UNL     1      34.136 -23.146 -16.211  0.00  0.00    +0.066 A 
ATOM      6  C   UNL     1      35.989 -22.982 -14.946  0.00  0.00    +0.041 A 
ATOM      7  C   UNL     1      32.465 -23.831 -14.586  0.00  0.00    +0.038 C 
ATOM      8  C   UNL     1      33.166 -23.168 -17.230  0.00  0.00    +0.021 C 
ATOM      9  C   UNL     1      37.401 -22.739 -14.569  0.00  0.00    +0.050 C 
ATOM     10  C   UNL     1      36.269 -22.438 -17.346  0.00  0.00    +0.264 C 
ATOM     11  C   UNL     1      31.504 -23.847 -15.598  0.00  0.00    +0.139 C 
ATOM     12  C   UNL     1      31.852 -23.520 -16.902  0.00  0.00    +0.038 C 
ENDROOT
BRANCH  10  14
ATOM     13 CL   UNL     1      34.143 -19.304 -21.976  0.00  0.00    -0.082 Cl
ATOM     14  C   UNL     1      35.745 -21.666 -18.489  0.00  0.00    +0.057 C 
ATOM     15  C   UNL     1      36.596 -20.833 -19.211  0.00  0.00    +0.006 C 
ATOM     16  C   UNL     1      34.401 -21.772 -18.839  0.00  0.00    +0.006 C 
ATOM     17  C   UNL     1      36.100 -20.101 -20.290  0.00  0.00    +0.012 C 
ATOM     18  C   UNL     1      33.905 -21.040 -19.919  0.00  0.00    +0.012 C 
ATOM     19  C   UNL     1      34.755 -20.206 -20.644  0.00  0.00    +0.058 C 
ENDBRANCH  10  14
BRANCH  11  20
ATOM     20  O   UNL     1      30.218 -24.186 -15.304  0.00  0.00    -0.471 OA
ATOM     21  C   UNL     1      30.011 -25.436 -14.650  0.00  0.00    +0.252 C 
ENDBRANCH  11  20
BRANCH   3  22
ATOM     22  C   UNL     1      35.083 -23.634 -12.661  0.00  0.00    +0.115 C 
BRANCH  22  25
ATOM     23  O   UNL     1      36.252 -25.198 -11.248  0.00  0.00    -0.273 OA
ATOM     24  N   UNL     1      35.999 -25.715 -13.483  0.00  0.00    -0.197 N 
ATOM     25  C   UNL     1      35.838 -24.925 -12.373  0.00  0.00    +0.249 C 
ATOM     26  H   UNL     1      35.648 -25.455 -14.366  0.00  0.00    +0.182 HD
BRANCH  24  27
ATOM     27  O   UNL     1      36.693 -26.916 -13.283  0.00  0.00    -0.295 OA
ATOM     28  H   UNL     1      37.251 -27.100 -14.055  0.00  0.00    +0.241 HD
ENDBRANCH  24  27
ENDBRANCH  22  25
ENDBRANCH   3  22
TORSDOF 5
ENDMDL
MODEL 7
REMARK VINA RESULT:      -8.1      3.794      6.812
REMARK  Name = 33675
REMARK  5 active torsions:
REMARK  status: ('A' for Active; 'I' for Inactive)
REMARK    1  A    between atoms: C_3  and  C_22
REMARK    2  A    between atoms: C_10  and  C_14
REMARK    3  A    between atoms: C_11  and  O_20
REMARK    4  A    between atoms: C_22  and  C_25
REMARK    5  A    between atoms: N_24  and  O_27
REMARK                            x       y       z     vdW  Elec       q    Type
REMARK                         _______ _______ _______ _____ _____    ______ ____
ROOT
ATOM      1  O   UNL     1      30.602 -11.529 -20.954  0.00  0.00    -0.267 OA
ATOM      2  N   UNL     1      32.336 -10.594 -22.069  0.00  0.00    -0.279 N 
ATOM      3  C   UNL     1      33.008  -8.473 -22.395  0.00  0.00    +0.001 A 
ATOM      4  C   UNL     1      33.617  -9.276 -23.387  0.00  0.00    +0.017 A 
ATOM      5  C   UNL     1      33.195 -10.597 -23.174  0.00  0.00    +0.066 A 
ATOM      6  C   UNL     1      32.243  -9.295 -21.605  0.00  0.00    +0.041 A 
ATOM      7  C   UNL     1      34.497  -8.991 -24.451  0.00  0.00    +0.038 C 
ATOM      8  C   UNL     1      33.633 -11.635 -24.017  0.00  0.00    +0.021 C 
ATOM      9  C   UNL     1      31.426  -8.895 -20.436  0.00  0.00    +0.050 C 
ATOM     10  C   UNL     1      31.693 -11.707 -21.486  0.00  0.00    +0.264 C 
ATOM     11  C   UNL     1      34.933 -10.024 -25.282  0.00  0.00    +0.139 C 
ATOM     12  C   UNL     1      34.505 -11.328 -25.067  0.00  0.00    +0.038 C 
ENDROOT
BRANCH  10  14
ATOM     13 CL   UNL     1      33.875 -17.277 -21.457  0.00  0.00    -0.082 Cl
ATOM     14  C   UNL     1      32.232 -13.081 -21.479  0.00  0.00    +0.057 C 
ATOM     15  C   UNL     1      32.429 -13.755 -22.682  0.00  0.00    +0.006 C 
ATOM     16  C   UNL     1      32.539 -13.698 -20.270  0.00  0.00    +0.006 C 
ATOM     17  C   UNL     1      32.937 -15.053 -22.676  0.00  0.00    +0.012 C 
ATOM     18  C   UNL     1      33.048 -14.998 -20.263  0.00  0.00    +0.012 C 
ATOM     19  C   UNL     1      33.247 -15.674 -21.466  0.00  0.00    +0.058 C 
ENDBRANCH  10  14
BRANCH  11  20
ATOM     20  O   UNL     1      35.783  -9.750 -26.310  0.00  0.00    -0.471 OA
ATOM     21  C   UNL     1      35.912 -10.743 -27.326  0.00  0.00    +0.252 C 
ENDBRANCH  11  20
BRANCH   3  22
ATOM     22  C   UNL     1      33.170  -7.012 -22.233  0.00  0.00    +0.115 C 
BRANCH  22  25
ATOM     23  O   UNL     1      31.238  -6.547 -23.599  0.00  0.00    -0.273 OA
ATOM     24  N   UNL     1      31.599  -5.245 -21.726  0.00  0.00    -0.197 N 
ATOM     25  C   UNL     1      31.900  -6.257 -22.604  0.00  0.00    +0.249 C 
ATOM     26  H   UNL     1      32.159  -5.050 -20.941  0.00  0.00    +0.182 HD
BRANCH  24  27
ATOM     27  O   UNL     1      30.443  -4.508 -22.017  0.00  0.00    -0.295 OA
ATOM     28  H   UNL     1      30.557  -4.049 -22.864  0.00  0.00    +0.241 HD
ENDBRANCH  24  27
ENDBRANCH  22  25
ENDBRANCH   3  22
TORSDOF 5
ENDMDL
MODEL 8
REMARK VINA RESULT:      -8.0      4.716      6.960
REMARK  Name = 33675
REMARK  5 active torsions:
REMARK  status: ('A' for Active; 'I' for Inactive)
REMARK    1  A    between atoms: C_3  and  C_22
REMARK    2  A    between atoms: C_10  and  C_14
REMARK    3  A    between atoms: C_11  and  O_20
REMARK    4  A    between atoms: C_22  and  C_25
REMARK    5  A    between atoms: N_24  and  O_27
REMARK                            x       y       z     vdW  Elec       q    Type
REMARK                         _______ _______ _______ _____ _____    ______ ____
ROOT
ATOM      1  O   UNL     1      35.518 -10.396 -25.325  0.00  0.00    -0.267 OA
ATOM      2  N   UNL     1      33.816  -9.963 -23.897  0.00  0.00    -0.279 N 
ATOM      3  C   UNL     1      33.139  -8.117 -22.807  0.00  0.00    +0.001 A 
ATOM      4  C   UNL     1      32.570  -9.237 -22.156  0.00  0.00    +0.017 A 
ATOM      5  C   UNL     1      32.995 -10.382 -22.844  0.00  0.00    +0.066 A 
ATOM      6  C   UNL     1      33.883  -8.583 -23.862  0.00  0.00    +0.041 A 
ATOM      7  C   UNL     1      31.724  -9.374 -21.036  0.00  0.00    +0.038 C 
ATOM      8  C   UNL     1      32.595 -11.663 -22.422  0.00  0.00    +0.021 C 
ATOM      9  C   UNL     1      34.656  -7.770 -24.830  0.00  0.00    +0.050 C 
ATOM     10  C   UNL     1      34.448 -10.777 -24.862  0.00  0.00    +0.264 C 
ATOM     11  C   UNL     1      31.325 -10.646 -20.623  0.00  0.00    +0.139 C 
ATOM     12  C   UNL     1      31.756 -11.775 -21.308  0.00  0.00    +0.038 C 
ENDROOT
BRANCH  10  14
ATOM     13 CL   UNL     1      32.312 -16.001 -26.843  0.00  0.00    -0.082 Cl
ATOM     14  C   UNL     1      33.920 -12.066 -25.350  0.00  0.00    +0.057 C 
ATOM     15  C   UNL     1      33.806 -13.144 -24.477  0.00  0.00    +0.006 C 
ATOM     16  C   UNL     1      33.540 -12.198 -26.684  0.00  0.00    +0.006 C 
ATOM     17  C   UNL     1      33.309 -14.363 -24.938  0.00  0.00    +0.012 C 
ATOM     18  C   UNL     1      33.042 -13.417 -27.146  0.00  0.00    +0.012 C 
ATOM     19  C   UNL     1      32.927 -14.498 -26.273  0.00  0.00    +0.058 C 
ENDBRANCH  10  14
BRANCH  11  20
ATOM     20  O   UNL     1      30.509 -10.780 -19.541  0.00  0.00    -0.471 OA
ATOM     21  C   UNL     1      31.133 -10.831 -18.260  0.00  0.00    +0.252 C 
ENDBRANCH  11  20
BRANCH   3  22
ATOM     22  C   UNL     1      32.959  -6.700 -22.423  0.00  0.00    +0.115 C 
BRANCH  22  25
ATOM     23  O   UNL     1      30.909  -6.549 -23.684  0.00  0.00    -0.273 OA
ATOM     24  N   UNL     1      31.056  -5.405 -21.683  0.00  0.00    -0.197 N 
ATOM     25  C   UNL     1      31.535  -6.221 -22.677  0.00  0.00    +0.249 C 
ATOM     26  H   UNL     1      31.594  -5.170 -20.894  0.00  0.00    +0.182 HD
BRANCH  24  27
ATOM     27  O   UNL     1      29.751  -4.926 -21.863  0.00  0.00    -0.295 OA
ATOM     28  H   UNL     1      29.546  -4.277 -21.171  0.00  0.00    +0.241 HD
ENDBRANCH  24  27
ENDBRANCH  22  25
ENDBRANCH   3  22
TORSDOF 5
ENDMDL
MODEL 9
REMARK VINA RESULT:      -7.9      6.672     10.801
REMARK  Name = 33675
REMARK  5 active torsions:
REMARK  status: ('A' for Active; 'I' for Inactive)
REMARK    1  A    between atoms: C_3  and  C_22
REMARK    2  A    between atoms: C_10  and  C_14
REMARK    3  A    between atoms: C_11  and  O_20
REMARK    4  A    between atoms: C_22  and  C_25
REMARK    5  A    between atoms: N_24  and  O_27
REMARK                            x       y       z     vdW  Elec       q    Type
REMARK                         _______ _______ _______ _____ _____    ______ ____
ROOT
ATOM      1  O   UNL     1      37.467 -22.115 -18.980  0.00  0.00    -0.267 OA
ATOM      2  N   UNL     1      35.703 -22.308 -17.575  0.00  0.00    -0.279 N 
ATOM      3  C   UNL     1      35.455 -23.144 -15.503  0.00  0.00    +0.001 A 
ATOM      4  C   UNL     1      34.173 -23.077 -16.098  0.00  0.00    +0.017 A 
ATOM      5  C   UNL     1      34.338 -22.552 -17.387  0.00  0.00    +0.066 A 
ATOM      6  C   UNL     1      36.363 -22.667 -16.415  0.00  0.00    +0.041 A 
ATOM      7  C   UNL     1      32.882 -23.418 -15.645  0.00  0.00    +0.038 C 
ATOM      8  C   UNL     1      33.229 -22.372 -18.235  0.00  0.00    +0.021 C 
ATOM      9  C   UNL     1      37.827 -22.543 -16.228  0.00  0.00    +0.050 C 
ATOM     10  C   UNL     1      36.322 -21.760 -18.719  0.00  0.00    +0.264 C 
ATOM     11  C   UNL     1      31.784 -23.234 -16.488  0.00  0.00    +0.139 C 
ATOM     12  C   UNL     1      31.958 -22.718 -17.765  0.00  0.00    +0.038 C 
ENDROOT
BRANCH  10  14
ATOM     13 CL   UNL     1      33.750 -17.853 -22.447  0.00  0.00    -0.082 Cl
ATOM     14  C   UNL     1      35.687 -20.796 -19.638  0.00  0.00    +0.057 C 
ATOM     15  C   UNL     1      34.326 -20.897 -19.918  0.00  0.00    +0.006 C 
ATOM     16  C   UNL     1      36.452 -19.790 -20.223  0.00  0.00    +0.006 C 
ATOM     17  C   UNL     1      33.726 -19.987 -20.788  0.00  0.00    +0.012 C 
ATOM     18  C   UNL     1      35.852 -18.879 -21.093  0.00  0.00    +0.012 C 
ATOM     19  C   UNL     1      34.490 -18.978 -21.375  0.00  0.00    +0.058 C 
ENDBRANCH  10  14
BRANCH  11  20
ATOM     20  O   UNL     1      30.536 -23.563 -16.052  0.00  0.00    -0.471 OA
ATOM     21  C   UNL     1      29.465 -22.710 -16.451  0.00  0.00    +0.252 C 
ENDBRANCH  11  20
BRANCH   3  22
ATOM     22  C   UNL     1      35.761 -23.635 -14.142  0.00  0.00    +0.115 C 
BRANCH  22  25
ATOM     23  O   UNL     1      36.245 -25.751 -15.189  0.00  0.00    -0.273 OA
ATOM     24  N   UNL     1      36.446 -25.590 -12.894  0.00  0.00    -0.197 N 
ATOM     25  C   UNL     1      36.175 -25.101 -14.148  0.00  0.00    +0.249 C 
ATOM     26  H   UNL     1      36.377 -25.030 -12.088  0.00  0.00    +0.182 HD
BRANCH  24  27
ATOM     27  O   UNL     1      36.828 -26.937 -12.834  0.00  0.00    -0.295 OA
ATOM     28  H   UNL     1      37.512 -27.049 -12.155  0.00  0.00    +0.241 HD
ENDBRANCH  24  27
ENDBRANCH  22  25
ENDBRANCH   3  22
TORSDOF 5
ENDMDL
