MODEL 1
REMARK VINA RESULT:      -4.1      0.000      0.000
REMARK  Name = 6540253
REMARK  4 active torsions:
REMARK  status: ('A' for Active; 'I' for Inactive)
REMARK    1  A    between atoms: C_1  and  C_4
REMARK    2  A    between atoms: C_1  and  N_7
REMARK    3  A    between atoms: C_1  and  C_11
REMARK    4  A    between atoms: C_11  and  S_12
REMARK                            x       y       z     vdW  Elec       q    Type
REMARK                         _______ _______ _______ _____ _____    ______ ____
ROOT
ATOM      1  C   UNL     1      37.937 -26.316 -14.483  0.00  0.00    +0.023 C 
ENDROOT
BRANCH   1   4
ATOM      2  O   UNL     1      36.703 -27.394 -16.276  0.00  0.00    -0.278 OA
ATOM      3  N   UNL     1      35.590 -25.899 -14.933  0.00  0.00    -0.330 N 
ATOM      4  C   UNL     1      36.706 -26.600 -15.338  0.00  0.00    +0.200 C 
ATOM      5  H   UNL     1      34.739 -26.007 -15.416  0.00  0.00    +0.145 HD
ATOM      6  H   UNL     1      35.645 -25.291 -14.162  0.00  0.00    +0.145 HD
ENDBRANCH   1   4
BRANCH   1   7
ATOM      7  N   UNL     1      38.521 -25.091 -15.035  0.00  0.00    +0.388 N 
ATOM      8  H   UNL     1      38.798 -24.473 -14.272  0.00  0.00    -0.089 HD
ATOM      9  H   UNL     1      37.832 -24.619 -15.621  0.00  0.00    -0.089 HD
ATOM     10  H   UNL     1      39.339 -25.326 -15.596  0.00  0.00    -0.089 HD
ENDBRANCH   1   7
BRANCH   1  11
ATOM     11  C   UNL     1      37.599 -26.108 -13.005  0.00  0.00    +0.040 C 
BRANCH  11  12
ATOM     12  S   UNL     1      38.124 -24.462 -12.430  0.00  0.00    -0.170 S 
ATOM     13  H   UNL     1      39.291 -24.574 -11.741  0.00  0.00    +0.102 HD
ENDBRANCH  11  12
ENDBRANCH   1  11
TORSDOF 4
ENDMDL
MODEL 2
REMARK VINA RESULT:      -4.0      2.186      2.320
REMARK  Name = 6540253
REMARK  4 active torsions:
REMARK  status: ('A' for Active; 'I' for Inactive)
REMARK    1  A    between atoms: C_1  and  C_4
REMARK    2  A    between atoms: C_1  and  N_7
REMARK    3  A    between atoms: C_1  and  C_11
REMARK    4  A    between atoms: C_11  and  S_12
REMARK                            x       y       z     vdW  Elec       q    Type
REMARK                         _______ _______ _______ _____ _____    ______ ____
ROOT
ATOM      1  C   UNL     1      37.652 -24.871 -14.694  0.00  0.00    +0.023 C 
ENDROOT
BRANCH   1   4
ATOM      2  O   UNL     1      38.255 -27.223 -14.720  0.00  0.00    -0.278 OA
ATOM      3  N   UNL     1      36.081 -26.650 -15.193  0.00  0.00    -0.330 N 
ATOM      4  C   UNL     1      37.391 -26.363 -14.873  0.00  0.00    +0.200 C 
ATOM      5  H   UNL     1      35.802 -27.584 -15.331  0.00  0.00    +0.145 HD
ATOM      6  H   UNL     1      35.426 -25.923 -15.283  0.00  0.00    +0.145 HD
ENDBRANCH   1   4
BRANCH   1   7
ATOM      7  N   UNL     1      38.904 -24.606 -15.408  0.00  0.00    +0.388 N 
ATOM      8  H   UNL     1      38.936 -23.624 -15.684  0.00  0.00    -0.089 HD
ATOM      9  H   UNL     1      38.952 -25.194 -16.240  0.00  0.00    -0.089 HD
ATOM     10  H   UNL     1      39.694 -24.815 -14.798  0.00  0.00    -0.089 HD
ENDBRANCH   1   7
BRANCH   1  11
ATOM     11  C   UNL     1      36.533 -23.998 -15.269  0.00  0.00    +0.040 C 
BRANCH  11  12
ATOM     12  S   UNL     1      37.198 -22.485 -16.032  0.00  0.00    -0.170 S 
ATOM     13  H   UNL     1      38.128 -22.820 -16.967  0.00  0.00    +0.102 HD
ENDBRANCH  11  12
ENDBRANCH   1  11
TORSDOF 4
ENDMDL
MODEL 3
REMARK VINA RESULT:      -4.0      3.494      3.781
REMARK  Name = 6540253
REMARK  4 active torsions:
REMARK  status: ('A' for Active; 'I' for Inactive)
REMARK    1  A    between atoms: C_1  and  C_4
REMARK    2  A    between atoms: C_1  and  N_7
REMARK    3  A    between atoms: C_1  and  C_11
REMARK    4  A    between atoms: C_11  and  S_12
REMARK                            x       y       z     vdW  Elec       q    Type
REMARK                         _______ _______ _______ _____ _____    ______ ____
ROOT
ATOM      1  C   UNL     1      36.993 -24.711 -12.423  0.00  0.00    +0.023 C 
ENDROOT
BRANCH   1   4
ATOM      2  O   UNL     1      35.344 -25.053 -10.675  0.00  0.00    -0.278 OA
ATOM      3  N   UNL     1      34.823 -23.629 -12.400  0.00  0.00    -0.330 N 
ATOM      4  C   UNL     1      35.648 -24.508 -11.733  0.00  0.00    +0.200 C 
ATOM      5  H   UNL     1      33.929 -23.425 -12.041  0.00  0.00    +0.145 HD
ATOM      6  H   UNL     1      35.127 -23.206 -13.234  0.00  0.00    +0.145 HD
ENDBRANCH   1   4
BRANCH   1   7
ATOM      7  N   UNL     1      37.984 -24.103 -11.531  0.00  0.00    +0.388 N 
ATOM      8  H   UNL     1      37.645 -24.142 -10.569  0.00  0.00    -0.089 HD
ATOM      9  H   UNL     1      38.132 -23.130 -11.799  0.00  0.00    -0.089 HD
ATOM     10  H   UNL     1      38.865 -24.612 -11.603  0.00  0.00    -0.089 HD
ENDBRANCH   1   7
BRANCH   1  11
ATOM     11  C   UNL     1      37.332 -26.187 -12.643  0.00  0.00    +0.040 C 
BRANCH  11  12
ATOM     12  S   UNL     1      37.296 -26.620 -14.411  0.00  0.00    -0.170 S 
ATOM     13  H   UNL     1      37.188 -27.970 -14.545  0.00  0.00    +0.102 HD
ENDBRANCH  11  12
ENDBRANCH   1  11
TORSDOF 4
ENDMDL
MODEL 4
REMARK VINA RESULT:      -3.9      2.273      3.013
REMARK  Name = 6540253
REMARK  4 active torsions:
REMARK  status: ('A' for Active; 'I' for Inactive)
REMARK    1  A    between atoms: C_1  and  C_4
REMARK    2  A    between atoms: C_1  and  N_7
REMARK    3  A    between atoms: C_1  and  C_11
REMARK    4  A    between atoms: C_11  and  S_12
REMARK                            x       y       z     vdW  Elec       q    Type
REMARK                         _______ _______ _______ _____ _____    ______ ____
ROOT
ATOM      1  C   UNL     1      38.901 -25.199 -14.401  0.00  0.00    +0.023 C 
ENDROOT
BRANCH   1   4
ATOM      2  O   UNL     1      40.576 -25.955 -15.988  0.00  0.00    -0.278 OA
ATOM      3  N   UNL     1      40.803 -26.573 -13.787  0.00  0.00    -0.330 N 
ATOM      4  C   UNL     1      40.161 -25.943 -14.831  0.00  0.00    +0.200 C 
ATOM      5  H   UNL     1      41.628 -27.083 -13.953  0.00  0.00    +0.145 HD
ATOM      6  H   UNL     1      40.436 -26.513 -12.876  0.00  0.00    +0.145 HD
ENDBRANCH   1   4
BRANCH   1   7
ATOM      7  N   UNL     1      37.833 -25.707 -15.267  0.00  0.00    +0.388 N 
ATOM      8  H   UNL     1      37.099 -26.122 -14.692  0.00  0.00    -0.089 HD
ATOM      9  H   UNL     1      38.213 -26.414 -15.895  0.00  0.00    -0.089 HD
ATOM     10  H   UNL     1      37.445 -24.939 -15.814  0.00  0.00    -0.089 HD
ENDBRANCH   1   7
BRANCH   1  11
ATOM     11  C   UNL     1      38.538 -25.444 -12.934  0.00  0.00    +0.040 C 
BRANCH  11  12
ATOM     12  S   UNL     1      37.830 -23.951 -12.167  0.00  0.00    -0.170 S 
ATOM     13  H   UNL     1      36.552 -23.782 -12.599  0.00  0.00    +0.102 HD
ENDBRANCH  11  12
ENDBRANCH   1  11
TORSDOF 4
ENDMDL
MODEL 5
REMARK VINA RESULT:      -3.9      3.238      3.668
REMARK  Name = 6540253
REMARK  4 active torsions:
REMARK  status: ('A' for Active; 'I' for Inactive)
REMARK    1  A    between atoms: C_1  and  C_4
REMARK    2  A    between atoms: C_1  and  N_7
REMARK    3  A    between atoms: C_1  and  C_11
REMARK    4  A    between atoms: C_11  and  S_12
REMARK                            x       y       z     vdW  Elec       q    Type
REMARK                         _______ _______ _______ _____ _____    ______ ____
ROOT
ATOM      1  C   UNL     1      36.812 -25.433 -12.324  0.00  0.00    +0.023 C 
ENDROOT
BRANCH   1   4
ATOM      2  O   UNL     1      35.301 -25.034 -10.466  0.00  0.00    -0.278 OA
ATOM      3  N   UNL     1      35.324 -23.522 -12.195  0.00  0.00    -0.330 N 
ATOM      4  C   UNL     1      35.736 -24.672 -11.557  0.00  0.00    +0.200 C 
ATOM      5  H   UNL     1      34.631 -22.954 -11.786  0.00  0.00    +0.145 HD
ATOM      6  H   UNL     1      35.721 -23.270 -13.059  0.00  0.00    +0.145 HD
ENDBRANCH   1   4
BRANCH   1   7
ATOM      7  N   UNL     1      36.230 -25.708 -13.641  0.00  0.00    +0.388 N 
ATOM      8  H   UNL     1      36.122 -26.716 -13.760  0.00  0.00    -0.089 HD
ATOM      9  H   UNL     1      36.845 -25.344 -14.368  0.00  0.00    -0.089 HD
ATOM     10  H   UNL     1      35.318 -25.257 -13.711  0.00  0.00    -0.089 HD
ENDBRANCH   1   7
BRANCH   1  11
ATOM     11  C   UNL     1      38.105 -24.630 -12.488  0.00  0.00    +0.040 C 
BRANCH  11  12
ATOM     12  S   UNL     1      39.236 -25.428 -13.671  0.00  0.00    -0.170 S 
ATOM     13  H   UNL     1      38.599 -26.465 -14.279  0.00  0.00    +0.102 HD
ENDBRANCH  11  12
ENDBRANCH   1  11
TORSDOF 4
ENDMDL
MODEL 6
REMARK VINA RESULT:      -3.9      1.765      1.911
REMARK  Name = 6540253
REMARK  4 active torsions:
REMARK  status: ('A' for Active; 'I' for Inactive)
REMARK    1  A    between atoms: C_1  and  C_4
REMARK    2  A    between atoms: C_1  and  N_7
REMARK    3  A    between atoms: C_1  and  C_11
REMARK    4  A    between atoms: C_11  and  S_12
REMARK                            x       y       z     vdW  Elec       q    Type
REMARK                         _______ _______ _______ _____ _____    ______ ____
ROOT
ATOM      1  C   UNL     1      37.011 -25.090 -13.994  0.00  0.00    +0.023 C 
ENDROOT
BRANCH   1   4
ATOM      2  O   UNL     1      38.392 -26.992 -14.605  0.00  0.00    -0.278 OA
ATOM      3  N   UNL     1      36.193 -26.984 -15.267  0.00  0.00    -0.330 N 
ATOM      4  C   UNL     1      37.296 -26.437 -14.649  0.00  0.00    +0.200 C 
ATOM      5  H   UNL     1      36.265 -27.854 -15.722  0.00  0.00    +0.145 HD
ATOM      6  H   UNL     1      35.334 -26.505 -15.255  0.00  0.00    +0.145 HD
ENDBRANCH   1   4
BRANCH   1   7
ATOM      7  N   UNL     1      35.626 -25.170 -13.523  0.00  0.00    +0.388 N 
ATOM      8  H   UNL     1      35.019 -25.439 -14.298  0.00  0.00    -0.089 HD
ATOM      9  H   UNL     1      35.336 -24.262 -13.163  0.00  0.00    -0.089 HD
ATOM     10  H   UNL     1      35.559 -25.867 -12.781  0.00  0.00    -0.089 HD
ENDBRANCH   1   7
BRANCH   1  11
ATOM     11  C   UNL     1      37.942 -24.793 -12.815  0.00  0.00    +0.040 C 
BRANCH  11  12
ATOM     12  S   UNL     1      37.454 -23.265 -11.953  0.00  0.00    -0.170 S 
ATOM     13  H   UNL     1      36.703 -22.495 -12.785  0.00  0.00    +0.102 HD
ENDBRANCH  11  12
ENDBRANCH   1  11
TORSDOF 4
ENDMDL
MODEL 7
REMARK VINA RESULT:      -3.8     14.082     14.412
REMARK  Name = 6540253
REMARK  4 active torsions:
REMARK  status: ('A' for Active; 'I' for Inactive)
REMARK    1  A    between atoms: C_1  and  C_4
REMARK    2  A    between atoms: C_1  and  N_7
REMARK    3  A    between atoms: C_1  and  C_11
REMARK    4  A    between atoms: C_11  and  S_12
REMARK                            x       y       z     vdW  Elec       q    Type
REMARK                         _______ _______ _______ _____ _____    ______ ____
ROOT
ATOM      1  C   UNL     1      34.863 -16.803 -25.146  0.00  0.00    +0.023 C 
ENDROOT
BRANCH   1   4
ATOM      2  O   UNL     1      33.278 -15.680 -26.602  0.00  0.00    -0.278 OA
ATOM      3  N   UNL     1      33.399 -15.017 -24.406  0.00  0.00    -0.330 N 
ATOM      4  C   UNL     1      33.780 -15.785 -25.485  0.00  0.00    +0.200 C 
ATOM      5  H   UNL     1      32.704 -14.328 -24.514  0.00  0.00    +0.145 HD
ATOM      6  H   UNL     1      33.820 -15.159 -23.529  0.00  0.00    +0.145 HD
ENDBRANCH   1   4
BRANCH   1   7
ATOM      7  N   UNL     1      35.410 -16.375 -23.855  0.00  0.00    +0.388 N 
ATOM      8  H   UNL     1      35.070 -16.995 -23.120  0.00  0.00    -0.089 HD
ATOM      9  H   UNL     1      35.111 -15.420 -23.660  0.00  0.00    -0.089 HD
ATOM     10  H   UNL     1      36.428 -16.413 -23.888  0.00  0.00    -0.089 HD
ENDBRANCH   1   7
BRANCH   1  11
ATOM     11  C   UNL     1      34.322 -18.231 -25.030  0.00  0.00    +0.040 C 
BRANCH  11  12
ATOM     12  S   UNL     1      34.837 -19.011 -23.467  0.00  0.00    -0.170 S 
ATOM     13  H   UNL     1      36.180 -19.222 -23.487  0.00  0.00    +0.102 HD
ENDBRANCH  11  12
ENDBRANCH   1  11
TORSDOF 4
ENDMDL
MODEL 8
REMARK VINA RESULT:      -3.8      2.842      3.224
REMARK  Name = 6540253
REMARK  4 active torsions:
REMARK  status: ('A' for Active; 'I' for Inactive)
REMARK    1  A    between atoms: C_1  and  C_4
REMARK    2  A    between atoms: C_1  and  N_7
REMARK    3  A    between atoms: C_1  and  C_11
REMARK    4  A    between atoms: C_11  and  S_12
REMARK                            x       y       z     vdW  Elec       q    Type
REMARK                         _______ _______ _______ _____ _____    ______ ____
ROOT
ATOM      1  C   UNL     1      38.266 -25.377 -13.780  0.00  0.00    +0.023 C 
ENDROOT
BRANCH   1   4
ATOM      2  O   UNL     1      37.119 -26.313 -11.854  0.00  0.00    -0.278 OA
ATOM      3  N   UNL     1      38.049 -24.221 -11.659  0.00  0.00    -0.330 N 
ATOM      4  C   UNL     1      37.737 -25.373 -12.349  0.00  0.00    +0.200 C 
ATOM      5  H   UNL     1      37.755 -24.113 -10.725  0.00  0.00    +0.145 HD
ATOM      6  H   UNL     1      38.564 -23.508 -12.099  0.00  0.00    +0.145 HD
ENDBRANCH   1   4
BRANCH   1   7
ATOM      7  N   UNL     1      39.523 -26.128 -13.727  0.00  0.00    +0.388 N 
ATOM      8  H   UNL     1      40.255 -25.599 -14.203  0.00  0.00    -0.089 HD
ATOM      9  H   UNL     1      39.401 -27.029 -14.189  0.00  0.00    -0.089 HD
ATOM     10  H   UNL     1      39.790 -26.278 -12.755  0.00  0.00    -0.089 HD
ENDBRANCH   1   7
BRANCH   1  11
ATOM     11  C   UNL     1      37.305 -26.046 -14.767  0.00  0.00    +0.040 C 
BRANCH  11  12
ATOM     12  S   UNL     1      35.783 -25.069 -14.976  0.00  0.00    -0.170 S 
ATOM     13  H   UNL     1      34.808 -25.856 -15.506  0.00  0.00    +0.102 HD
ENDBRANCH  11  12
ENDBRANCH   1  11
TORSDOF 4
ENDMDL
MODEL 9
REMARK VINA RESULT:      -3.8     12.417     12.740
REMARK  Name = 6540253
REMARK  4 active torsions:
REMARK  status: ('A' for Active; 'I' for Inactive)
REMARK    1  A    between atoms: C_1  and  C_4
REMARK    2  A    between atoms: C_1  and  N_7
REMARK    3  A    between atoms: C_1  and  C_11
REMARK    4  A    between atoms: C_11  and  S_12
REMARK                            x       y       z     vdW  Elec       q    Type
REMARK                         _______ _______ _______ _____ _____    ______ ____
ROOT
ATOM      1  C   UNL     1      42.107 -14.426 -16.952  0.00  0.00    +0.023 C 
ENDROOT
BRANCH   1   4
ATOM      2  O   UNL     1      42.331 -16.571 -15.836  0.00  0.00    -0.278 OA
ATOM      3  N   UNL     1      40.511 -15.264 -15.329  0.00  0.00    -0.330 N 
ATOM      4  C   UNL     1      41.681 -15.542 -16.003  0.00  0.00    +0.200 C 
ATOM      5  H   UNL     1      40.145 -15.918 -14.690  0.00  0.00    +0.145 HD
ATOM      6  H   UNL     1      40.042 -14.414 -15.488  0.00  0.00    +0.145 HD
ENDBRANCH   1   4
BRANCH   1   7
ATOM      7  N   UNL     1      41.165 -14.487 -18.073  0.00  0.00    +0.388 N 
ATOM      8  H   UNL     1      41.298 -15.362 -18.581  0.00  0.00    -0.089 HD
ATOM      9  H   UNL     1      41.331 -13.701 -18.700  0.00  0.00    -0.089 HD
ATOM     10  H   UNL     1      40.210 -14.443 -17.717  0.00  0.00    -0.089 HD
ENDBRANCH   1   7
BRANCH   1  11
ATOM     11  C   UNL     1      42.051 -13.040 -16.304  0.00  0.00    +0.040 C 
BRANCH  11  12
ATOM     12  S   UNL     1      42.669 -11.754 -17.434  0.00  0.00    -0.170 S 
ATOM     13  H   UNL     1      41.619 -11.066 -17.956  0.00  0.00    +0.102 HD
ENDBRANCH  11  12
ENDBRANCH   1  11
TORSDOF 4
ENDMDL
