MODEL 1
REMARK VINA RESULT:      -8.6      0.000      0.000
REMARK  Name = 10993211
REMARK  7 active torsions:
REMARK  status: ('A' for Active; 'I' for Inactive)
REMARK    1  A    between atoms: C_4  and  C_14
REMARK    2  A    between atoms: C_7  and  C_11
REMARK    3  A    between atoms: C_8  and  S_18
REMARK    4  A    between atoms: C_11  and  O_12
REMARK    5  A    between atoms: C_14  and  O_16
REMARK    6  A    between atoms: S_18  and  C_21
REMARK    7  A    between atoms: C_22  and  C_25
REMARK                            x       y       z     vdW  Elec       q    Type
REMARK                         _______ _______ _______ _____ _____    ______ ____
ROOT
ATOM      1  O   UNL     1      38.909 -25.341 -11.741  0.00  0.00    -0.274 OA
ATOM      2  N   UNL     1      37.637 -24.201 -13.366  0.00  0.00    -0.254 N 
ATOM      3  C   UNL     1      37.679 -24.680 -14.763  0.00  0.00    +0.095 C 
ATOM      4  C   UNL     1      38.767 -25.685 -14.269  0.00  0.00    +0.123 C 
ATOM      5  C   UNL     1      36.200 -24.959 -15.105  0.00  0.00    +0.049 C 
ATOM      6  C   UNL     1      38.541 -25.085 -12.866  0.00  0.00    +0.233 C 
ATOM      7  C   UNL     1      36.349 -24.033 -12.949  0.00  0.00    +0.132 C 
ATOM      8  C   UNL     1      35.472 -24.410 -13.890  0.00  0.00    +0.031 C 
ATOM      9  C   UNL     1      35.893 -26.415 -15.413  0.00  0.00    +0.007 C 
ENDROOT
BRANCH   7  11
ATOM     10  O   UNL     1      35.204 -23.975 -10.866  0.00  0.00    -0.244 OA
ATOM     11  C   UNL     1      36.068 -23.534 -11.607  0.00  0.00    +0.352 C 
BRANCH  11  12
ATOM     12  O   UNL     1      36.906 -22.515 -11.313  0.00  0.00    -0.476 OA
ATOM     13  H   UNL     1      37.776 -22.509 -11.660  0.00  0.00    +0.295 HD
ENDBRANCH  11  12
ENDBRANCH   7  11
BRANCH   4  14
ATOM     14  C   UNL     1      40.197 -25.633 -14.747  0.00  0.00    +0.121 C 
ATOM     15  C   UNL     1      41.042 -26.716 -14.086  0.00  0.00    +0.032 C 
BRANCH  14  16
ATOM     16  O   UNL     1      40.235 -25.817 -16.163  0.00  0.00    -0.384 OA
ATOM     17  H   UNL     1      40.376 -24.959 -16.596  0.00  0.00    +0.210 HD
ENDBRANCH  14  16
ENDBRANCH   4  14
BRANCH   8  18
ATOM     18  S   UNL     1      33.759 -24.321 -13.791  0.00  0.00    -0.052 S 
BRANCH  18  21
ATOM     19  S   UNL     1      31.885 -23.469 -16.023  0.00  0.00    -0.068 S 
ATOM     20  N   UNL     1      34.460 -23.283 -16.159  0.00  0.00    -0.393 NA
ATOM     21  C   UNL     1      33.463 -23.654 -15.402  0.00  0.00    +0.187 C 
ATOM     22  C   UNL     1      33.942 -22.806 -17.348  0.00  0.00    +0.115 C 
ATOM     23  C   UNL     1      32.568 -22.827 -17.460  0.00  0.00    +0.123 C 
BRANCH  22  25
ATOM     24  N   UNL     1      35.683 -22.008 -20.572  0.00  0.00    +0.390 N 
ATOM     25  C   UNL     1      34.839 -22.330 -18.365  0.00  0.00    -0.024 C 
ATOM     26  C   UNL     1      36.623 -21.443 -19.581  0.00  0.00    -0.039 C 
ATOM     27  C   UNL     1      34.503 -22.478 -19.817  0.00  0.00    -0.052 C 
ATOM     28  C   UNL     1      36.031 -21.738 -18.242  0.00  0.00    -0.052 C 
ATOM     29  C   UNL     1      36.832 -19.948 -19.796  0.00  0.00    -0.019 C 
ATOM     30  H   UNL     1      36.118 -22.787 -21.065  0.00  0.00    -0.083 HD
ATOM     31  H   UNL     1      35.419 -21.309 -21.267  0.00  0.00    -0.083 HD
ENDBRANCH  22  25
ENDBRANCH  18  21
ENDBRANCH   8  18
TORSDOF 7
ENDMDL
MODEL 2
REMARK VINA RESULT:      -7.9     10.450     13.825
REMARK  Name = 10993211
REMARK  7 active torsions:
REMARK  status: ('A' for Active; 'I' for Inactive)
REMARK    1  A    between atoms: C_4  and  C_14
REMARK    2  A    between atoms: C_7  and  C_11
REMARK    3  A    between atoms: C_8  and  S_18
REMARK    4  A    between atoms: C_11  and  O_12
REMARK    5  A    between atoms: C_14  and  O_16
REMARK    6  A    between atoms: S_18  and  C_21
REMARK    7  A    between atoms: C_22  and  C_25
REMARK                            x       y       z     vdW  Elec       q    Type
REMARK                         _______ _______ _______ _____ _____    ______ ____
ROOT
ATOM      1  O   UNL     1      33.354 -16.717 -20.631  0.00  0.00    -0.274 OA
ATOM      2  N   UNL     1      34.433 -15.567 -22.383  0.00  0.00    -0.254 N 
ATOM      3  C   UNL     1      35.292 -16.334 -23.310  0.00  0.00    +0.095 C 
ATOM      4  C   UNL     1      35.028 -17.553 -22.371  0.00  0.00    +0.123 C 
ATOM      5  C   UNL     1      34.689 -16.045 -24.701  0.00  0.00    +0.049 C 
ATOM      6  C   UNL     1      34.125 -16.603 -21.557  0.00  0.00    +0.233 C 
ATOM      7  C   UNL     1      33.551 -14.787 -23.073  0.00  0.00    +0.132 C 
ATOM      8  C   UNL     1      33.655 -14.976 -24.395  0.00  0.00    +0.031 C 
ATOM      9  C   UNL     1      34.133 -17.270 -25.408  0.00  0.00    +0.007 C 
ENDROOT
BRANCH   7  11
ATOM     10  O   UNL     1      32.799 -13.491 -21.227  0.00  0.00    -0.244 OA
ATOM     11  C   UNL     1      32.623 -13.918 -22.358  0.00  0.00    +0.352 C 
BRANCH  11  12
ATOM     12  O   UNL     1      31.546 -13.659 -23.134  0.00  0.00    -0.476 OA
ATOM     13  H   UNL     1      30.702 -13.979 -22.884  0.00  0.00    +0.295 HD
ENDBRANCH  11  12
ENDBRANCH   7  11
BRANCH   4  14
ATOM     14  C   UNL     1      36.122 -18.213 -21.569  0.00  0.00    +0.121 C 
ATOM     15  C   UNL     1      35.661 -19.549 -20.996  0.00  0.00    +0.032 C 
BRANCH  14  16
ATOM     16  O   UNL     1      37.259 -18.435 -22.405  0.00  0.00    -0.384 OA
ATOM     17  H   UNL     1      37.065 -19.153 -23.029  0.00  0.00    +0.210 HD
ENDBRANCH  14  16
ENDBRANCH   4  14
BRANCH   8  18
ATOM     18  S   UNL     1      32.764 -14.163 -25.620  0.00  0.00    -0.052 S 
BRANCH  18  21
ATOM     19  S   UNL     1      34.811 -12.143 -26.595  0.00  0.00    -0.068 S 
ATOM     20  N   UNL     1      33.247 -11.745 -24.575  0.00  0.00    -0.393 NA
ATOM     21  C   UNL     1      33.578 -12.598 -25.506  0.00  0.00    +0.187 C 
ATOM     22  C   UNL     1      34.036 -10.620 -24.722  0.00  0.00    +0.115 C 
ATOM     23  C   UNL     1      34.942 -10.650 -25.760  0.00  0.00    +0.123 C 
BRANCH  22  25
ATOM     24  N   UNL     1      34.411  -7.468 -22.726  0.00  0.00    +0.390 N 
ATOM     25  C   UNL     1      33.869  -9.520 -23.812  0.00  0.00    -0.024 C 
ATOM     26  C   UNL     1      33.203  -8.060 -22.116  0.00  0.00    -0.039 C 
ATOM     27  C   UNL     1      34.779  -8.332 -23.866  0.00  0.00    -0.052 C 
ATOM     28  C   UNL     1      32.979  -9.354 -22.828  0.00  0.00    -0.052 C 
ATOM     29  C   UNL     1      32.002  -7.129 -22.234  0.00  0.00    -0.019 C 
ATOM     30  H   UNL     1      35.171  -7.441 -22.047  0.00  0.00    -0.083 HD
ATOM     31  H   UNL     1      34.235  -6.511 -23.033  0.00  0.00    -0.083 HD
ENDBRANCH  22  25
ENDBRANCH  18  21
ENDBRANCH   8  18
TORSDOF 7
ENDMDL
MODEL 3
REMARK VINA RESULT:      -7.9     11.373     15.409
REMARK  Name = 10993211
REMARK  7 active torsions:
REMARK  status: ('A' for Active; 'I' for Inactive)
REMARK    1  A    between atoms: C_4  and  C_14
REMARK    2  A    between atoms: C_7  and  C_11
REMARK    3  A    between atoms: C_8  and  S_18
REMARK    4  A    between atoms: C_11  and  O_12
REMARK    5  A    between atoms: C_14  and  O_16
REMARK    6  A    between atoms: S_18  and  C_21
REMARK    7  A    between atoms: C_22  and  C_25
REMARK                            x       y       z     vdW  Elec       q    Type
REMARK                         _______ _______ _______ _____ _____    ______ ____
ROOT
ATOM      1  O   UNL     1      33.589  -7.714 -24.286  0.00  0.00    -0.274 OA
ATOM      2  N   UNL     1      33.623  -9.665 -22.962  0.00  0.00    -0.254 N 
ATOM      3  C   UNL     1      32.735  -9.736 -21.783  0.00  0.00    +0.095 C 
ATOM      4  C   UNL     1      32.373  -8.252 -22.104  0.00  0.00    +0.123 C 
ATOM      5  C   UNL     1      31.891 -11.005 -22.029  0.00  0.00    +0.049 C 
ATOM      6  C   UNL     1      33.310  -8.391 -23.322  0.00  0.00    +0.233 C 
ATOM      7  C   UNL     1      33.495 -10.783 -23.734  0.00  0.00    +0.132 C 
ATOM      8  C   UNL     1      32.555 -11.609 -23.255  0.00  0.00    +0.031 C 
ATOM      9  C   UNL     1      30.402 -10.745 -22.189  0.00  0.00    +0.007 C 
ENDROOT
BRANCH   7  11
ATOM     10  O   UNL     1      33.954 -11.551 -25.937  0.00  0.00    -0.244 OA
ATOM     11  C   UNL     1      34.304 -10.942 -24.938  0.00  0.00    +0.352 C 
BRANCH  11  12
ATOM     12  O   UNL     1      35.492 -10.317 -24.778  0.00  0.00    -0.476 OA
ATOM     13  H   UNL     1      35.915  -9.921 -25.514  0.00  0.00    +0.295 HD
ENDBRANCH  11  12
ENDBRANCH   7  11
BRANCH   4  14
ATOM     14  C   UNL     1      32.719  -7.113 -21.177  0.00  0.00    +0.121 C 
ATOM     15  C   UNL     1      31.593  -6.086 -21.116  0.00  0.00    +0.032 C 
BRANCH  14  16
ATOM     16  O   UNL     1      32.955  -7.620 -19.864  0.00  0.00    -0.384 OA
ATOM     17  H   UNL     1      32.848  -8.585 -19.866  0.00  0.00    +0.210 HD
ENDBRANCH  14  16
ENDBRANCH   4  14
BRANCH   8  18
ATOM     18  S   UNL     1      32.110 -13.139 -23.897  0.00  0.00    -0.052 S 
BRANCH  18  21
ATOM     19  S   UNL     1      32.747 -13.761 -20.994  0.00  0.00    -0.068 S 
ATOM     20  N   UNL     1      33.527 -15.220 -22.980  0.00  0.00    -0.393 NA
ATOM     21  C   UNL     1      32.861 -14.146 -22.652  0.00  0.00    +0.187 C 
ATOM     22  C   UNL     1      33.998 -15.805 -21.821  0.00  0.00    +0.115 C 
ATOM     23  C   UNL     1      33.678 -15.159 -20.645  0.00  0.00    +0.123 C 
BRANCH  22  25
ATOM     24  N   UNL     1      36.261 -18.603 -22.876  0.00  0.00    +0.390 N 
ATOM     25  C   UNL     1      34.771 -17.014 -21.906  0.00  0.00    -0.024 C 
ATOM     26  C   UNL     1      35.720 -19.125 -21.603  0.00  0.00    -0.039 C 
ATOM     27  C   UNL     1      35.747 -17.226 -23.022  0.00  0.00    -0.052 C 
ATOM     28  C   UNL     1      34.770 -18.085 -21.107  0.00  0.00    -0.052 C 
ATOM     29  C   UNL     1      36.830 -19.411 -20.598  0.00  0.00    -0.019 C 
ATOM     30  H   UNL     1      35.946 -19.180 -23.655  0.00  0.00    -0.083 HD
ATOM     31  H   UNL     1      37.281 -18.615 -22.872  0.00  0.00    -0.083 HD
ENDBRANCH  22  25
ENDBRANCH  18  21
ENDBRANCH   8  18
TORSDOF 7
ENDMDL
MODEL 4
REMARK VINA RESULT:      -7.6      7.704     11.876
REMARK  Name = 10993211
REMARK  7 active torsions:
REMARK  status: ('A' for Active; 'I' for Inactive)
REMARK    1  A    between atoms: C_4  and  C_14
REMARK    2  A    between atoms: C_7  and  C_11
REMARK    3  A    between atoms: C_8  and  S_18
REMARK    4  A    between atoms: C_11  and  O_12
REMARK    5  A    between atoms: C_14  and  O_16
REMARK    6  A    between atoms: S_18  and  C_21
REMARK    7  A    between atoms: C_22  and  C_25
REMARK                            x       y       z     vdW  Elec       q    Type
REMARK                         _______ _______ _______ _____ _____    ______ ____
ROOT
ATOM      1  O   UNL     1      32.242 -13.821 -24.314  0.00  0.00    -0.274 OA
ATOM      2  N   UNL     1      34.007 -15.069 -23.371  0.00  0.00    -0.254 N 
ATOM      3  C   UNL     1      34.005 -15.307 -21.913  0.00  0.00    +0.095 C 
ATOM      4  C   UNL     1      32.759 -14.367 -21.872  0.00  0.00    +0.123 C 
ATOM      5  C   UNL     1      34.052 -16.844 -21.787  0.00  0.00    +0.049 C 
ATOM      6  C   UNL     1      32.896 -14.284 -23.407  0.00  0.00    +0.233 C 
ATOM      7  C   UNL     1      34.200 -16.235 -24.053  0.00  0.00    +0.132 C 
ATOM      8  C   UNL     1      34.269 -17.285 -23.224  0.00  0.00    +0.031 C 
ATOM      9  C   UNL     1      32.829 -17.455 -21.123  0.00  0.00    +0.007 C 
ENDROOT
BRANCH   7  11
ATOM     10  O   UNL     1      33.319 -16.042 -26.253  0.00  0.00    -0.244 OA
ATOM     11  C   UNL     1      34.270 -16.233 -25.511  0.00  0.00    +0.352 C 
BRANCH  11  12
ATOM     12  O   UNL     1      35.539 -16.472 -25.909  0.00  0.00    -0.476 OA
ATOM     13  H   UNL     1      36.253 -16.043 -25.480  0.00  0.00    +0.295 HD
ENDBRANCH  11  12
ENDBRANCH   7  11
BRANCH   4  14
ATOM     14  C   UNL     1      32.772 -13.030 -21.172  0.00  0.00    +0.121 C 
ATOM     15  C   UNL     1      31.768 -12.067 -21.797  0.00  0.00    +0.032 C 
BRANCH  14  16
ATOM     16  O   UNL     1      32.446 -13.210 -19.794  0.00  0.00    -0.384 OA
ATOM     17  H   UNL     1      33.245 -13.465 -19.304  0.00  0.00    +0.210 HD
ENDBRANCH  14  16
ENDBRANCH   4  14
BRANCH   8  18
ATOM     18  S   UNL     1      34.548 -18.923 -23.664  0.00  0.00    -0.052 S 
BRANCH  18  21
ATOM     19  S   UNL     1      36.728 -18.881 -21.551  0.00  0.00    -0.068 S 
ATOM     20  N   UNL     1      34.601 -20.341 -21.392  0.00  0.00    -0.393 NA
ATOM     21  C   UNL     1      35.234 -19.468 -22.128  0.00  0.00    +0.187 C 
ATOM     22  C   UNL     1      35.358 -20.581 -20.262  0.00  0.00    +0.115 C 
ATOM     23  C   UNL     1      36.544 -19.882 -20.170  0.00  0.00    +0.123 C 
BRANCH  22  25
ATOM     24  N   UNL     1      34.957 -22.871 -17.320  0.00  0.00    +0.390 N 
ATOM     25  C   UNL     1      34.880 -21.514 -19.279  0.00  0.00    -0.024 C 
ATOM     26  C   UNL     1      33.701 -23.116 -18.058  0.00  0.00    -0.039 C 
ATOM     27  C   UNL     1      35.661 -21.784 -18.030  0.00  0.00    -0.052 C 
ATOM     28  C   UNL     1      33.773 -22.262 -19.282  0.00  0.00    -0.052 C 
ATOM     29  C   UNL     1      32.478 -22.791 -17.207  0.00  0.00    -0.019 C 
ATOM     30  H   UNL     1      35.530 -23.714 -17.311  0.00  0.00    -0.083 HD
ATOM     31  H   UNL     1      34.769 -22.614 -16.351  0.00  0.00    -0.083 HD
ENDBRANCH  22  25
ENDBRANCH  18  21
ENDBRANCH   8  18
TORSDOF 7
ENDMDL
MODEL 5
REMARK VINA RESULT:      -7.5      3.118      5.090
REMARK  Name = 10993211
REMARK  7 active torsions:
REMARK  status: ('A' for Active; 'I' for Inactive)
REMARK    1  A    between atoms: C_4  and  C_14
REMARK    2  A    between atoms: C_7  and  C_11
REMARK    3  A    between atoms: C_8  and  S_18
REMARK    4  A    between atoms: C_11  and  O_12
REMARK    5  A    between atoms: C_14  and  O_16
REMARK    6  A    between atoms: S_18  and  C_21
REMARK    7  A    between atoms: C_22  and  C_25
REMARK                            x       y       z     vdW  Elec       q    Type
REMARK                         _______ _______ _______ _____ _____    ______ ____
ROOT
ATOM      1  O   UNL     1      32.093 -24.480 -13.117  0.00  0.00    -0.274 OA
ATOM      2  N   UNL     1      33.344 -23.143 -14.603  0.00  0.00    -0.254 N 
ATOM      3  C   UNL     1      34.819 -23.203 -14.538  0.00  0.00    +0.095 C 
ATOM      4  C   UNL     1      34.617 -24.124 -13.294  0.00  0.00    +0.123 C 
ATOM      5  C   UNL     1      35.239 -23.600 -15.969  0.00  0.00    +0.049 C 
ATOM      6  C   UNL     1      33.104 -23.981 -13.559  0.00  0.00    +0.233 C 
ATOM      7  C   UNL     1      32.909 -23.299 -15.886  0.00  0.00    +0.132 C 
ATOM      8  C   UNL     1      33.926 -23.530 -16.728  0.00  0.00    +0.031 C 
ATOM      9  C   UNL     1      35.946 -24.942 -16.063  0.00  0.00    +0.007 C 
ENDROOT
BRANCH   7  11
ATOM     10  O   UNL     1      30.951 -22.383 -16.878  0.00  0.00    -0.244 OA
ATOM     11  C   UNL     1      31.483 -23.242 -16.192  0.00  0.00    +0.352 C 
BRANCH  11  12
ATOM     12  O   UNL     1      30.846 -24.279 -15.604  0.00  0.00    -0.476 OA
ATOM     13  H   UNL     1      31.302 -25.084 -15.456  0.00  0.00    +0.295 HD
ENDBRANCH  11  12
ENDBRANCH   7  11
BRANCH   4  14
ATOM     14  C   UNL     1      35.049 -23.721 -11.906  0.00  0.00    +0.121 C 
ATOM     15  C   UNL     1      35.498 -24.930 -11.092  0.00  0.00    +0.032 C 
BRANCH  14  16
ATOM     16  O   UNL     1      36.130 -22.793 -11.992  0.00  0.00    -0.384 OA
ATOM     17  H   UNL     1      36.959 -23.276 -12.141  0.00  0.00    +0.210 HD
ENDBRANCH  14  16
ENDBRANCH   4  14
BRANCH   8  18
ATOM     18  S   UNL     1      33.821 -23.738 -18.431  0.00  0.00    -0.052 S 
BRANCH  18  21
ATOM     19  S   UNL     1      36.254 -21.964 -18.040  0.00  0.00    -0.068 S 
ATOM     20  N   UNL     1      34.521 -21.630 -19.928  0.00  0.00    -0.393 NA
ATOM     21  C   UNL     1      34.837 -22.369 -18.899  0.00  0.00    +0.187 C 
ATOM     22  C   UNL     1      35.480 -20.644 -20.062  0.00  0.00    +0.115 C 
ATOM     23  C   UNL     1      36.498 -20.663 -19.131  0.00  0.00    +0.123 C 
BRANCH  22  25
ATOM     24  N   UNL     1      35.964 -17.810 -22.469  0.00  0.00    +0.390 N 
ATOM     25  C   UNL     1      35.364 -19.689 -21.129  0.00  0.00    -0.024 C 
ATOM     26  C   UNL     1      34.664 -18.354 -22.912  0.00  0.00    -0.039 C 
ATOM     27  C   UNL     1      36.463 -18.712 -21.410  0.00  0.00    -0.052 C 
ATOM     28  C   UNL     1      34.358 -19.486 -21.986  0.00  0.00    -0.052 C 
ATOM     29  C   UNL     1      34.711 -18.805 -24.367  0.00  0.00    -0.019 C 
ATOM     30  H   UNL     1      35.845 -16.868 -22.100  0.00  0.00    -0.083 HD
ATOM     31  H   UNL     1      36.623 -17.758 -23.246  0.00  0.00    -0.083 HD
ENDBRANCH  22  25
ENDBRANCH  18  21
ENDBRANCH   8  18
TORSDOF 7
ENDMDL
MODEL 6
REMARK VINA RESULT:      -7.3     10.448     13.840
REMARK  Name = 10993211
REMARK  7 active torsions:
REMARK  status: ('A' for Active; 'I' for Inactive)
REMARK    1  A    between atoms: C_4  and  C_14
REMARK    2  A    between atoms: C_7  and  C_11
REMARK    3  A    between atoms: C_8  and  S_18
REMARK    4  A    between atoms: C_11  and  O_12
REMARK    5  A    between atoms: C_14  and  O_16
REMARK    6  A    between atoms: S_18  and  C_21
REMARK    7  A    between atoms: C_22  and  C_25
REMARK                            x       y       z     vdW  Elec       q    Type
REMARK                         _______ _______ _______ _____ _____    ______ ____
ROOT
ATOM      1  O   UNL     1      35.490 -18.415 -23.803  0.00  0.00    -0.274 OA
ATOM      2  N   UNL     1      33.836 -16.808 -23.309  0.00  0.00    -0.254 N 
ATOM      3  C   UNL     1      33.744 -16.289 -21.929  0.00  0.00    +0.095 C 
ATOM      4  C   UNL     1      34.841 -17.342 -21.577  0.00  0.00    +0.123 C 
ATOM      5  C   UNL     1      33.897 -14.762 -22.094  0.00  0.00    +0.049 C 
ATOM      6  C   UNL     1      34.828 -17.709 -23.076  0.00  0.00    +0.233 C 
ATOM      7  C   UNL     1      33.864 -15.785 -24.211  0.00  0.00    +0.132 C 
ATOM      8  C   UNL     1      33.868 -14.591 -23.603  0.00  0.00    +0.031 C 
ATOM      9  C   UNL     1      35.129 -14.180 -21.421  0.00  0.00    +0.007 C 
ENDROOT
BRANCH   7  11
ATOM     10  O   UNL     1      33.075 -15.728 -26.453  0.00  0.00    -0.244 OA
ATOM     11  C   UNL     1      33.923 -16.066 -25.642  0.00  0.00    +0.352 C 
BRANCH  11  12
ATOM     12  O   UNL     1      35.051 -16.752 -25.929  0.00  0.00    -0.476 OA
ATOM     13  H   UNL     1      35.663 -16.951 -25.248  0.00  0.00    +0.295 HD
ENDBRANCH  11  12
ENDBRANCH   7  11
BRANCH   4  14
ATOM     14  C   UNL     1      34.584 -18.503 -20.648  0.00  0.00    +0.121 C 
ATOM     15  C   UNL     1      33.397 -19.338 -21.119  0.00  0.00    +0.032 C 
BRANCH  14  16
ATOM     16  O   UNL     1      35.743 -19.337 -20.593  0.00  0.00    -0.384 OA
ATOM     17  H   UNL     1      35.883 -19.634 -19.680  0.00  0.00    +0.210 HD
ENDBRANCH  14  16
ENDBRANCH   4  14
BRANCH   8  18
ATOM     18  S   UNL     1      33.854 -13.051 -24.365  0.00  0.00    -0.052 S 
BRANCH  18  21
ATOM     19  S   UNL     1      31.821 -13.039 -22.110  0.00  0.00    -0.068 S 
ATOM     20  N   UNL     1      32.912 -10.902 -23.073  0.00  0.00    -0.393 NA
ATOM     21  C   UNL     1      32.864 -12.203 -23.170  0.00  0.00    +0.187 C 
ATOM     22  C   UNL     1      32.046 -10.514 -22.069  0.00  0.00    +0.115 C 
ATOM     23  C   UNL     1      31.366 -11.530 -21.432  0.00  0.00    +0.123 C 
BRANCH  22  25
ATOM     24  N   UNL     1      31.945  -7.157 -20.399  0.00  0.00    +0.390 N 
ATOM     25  C   UNL     1      31.910  -9.117 -21.757  0.00  0.00    -0.024 C 
ATOM     26  C   UNL     1      31.443  -6.830 -21.750  0.00  0.00    -0.039 C 
ATOM     27  C   UNL     1      32.341  -8.580 -20.427  0.00  0.00    -0.052 C 
ATOM     28  C   UNL     1      31.414  -8.122 -22.499  0.00  0.00    -0.052 C 
ATOM     29  C   UNL     1      32.321  -5.791 -22.438  0.00  0.00    -0.019 C 
ATOM     30  H   UNL     1      31.212  -7.010 -19.706  0.00  0.00    -0.083 HD
ATOM     31  H   UNL     1      32.734  -6.562 -20.148  0.00  0.00    -0.083 HD
ENDBRANCH  22  25
ENDBRANCH  18  21
ENDBRANCH   8  18
TORSDOF 7
ENDMDL
MODEL 7
REMARK VINA RESULT:      -7.1      7.622     11.678
REMARK  Name = 10993211
REMARK  7 active torsions:
REMARK  status: ('A' for Active; 'I' for Inactive)
REMARK    1  A    between atoms: C_4  and  C_14
REMARK    2  A    between atoms: C_7  and  C_11
REMARK    3  A    between atoms: C_8  and  S_18
REMARK    4  A    between atoms: C_11  and  O_12
REMARK    5  A    between atoms: C_14  and  O_16
REMARK    6  A    between atoms: S_18  and  C_21
REMARK    7  A    between atoms: C_22  and  C_25
REMARK                            x       y       z     vdW  Elec       q    Type
REMARK                         _______ _______ _______ _____ _____    ______ ____
ROOT
ATOM      1  O   UNL     1      33.827 -12.996 -23.439  0.00  0.00    -0.274 OA
ATOM      2  N   UNL     1      33.450 -15.309 -23.175  0.00  0.00    -0.254 N 
ATOM      3  C   UNL     1      33.487 -16.173 -24.373  0.00  0.00    +0.095 C 
ATOM      4  C   UNL     1      33.642 -14.850 -25.187  0.00  0.00    +0.123 C 
ATOM      5  C   UNL     1      34.563 -17.227 -24.039  0.00  0.00    +0.049 C 
ATOM      6  C   UNL     1      33.635 -14.127 -23.824  0.00  0.00    +0.233 C 
ATOM      7  C   UNL     1      34.234 -15.821 -22.183  0.00  0.00    +0.132 C 
ATOM      8  C   UNL     1      34.874 -16.929 -22.582  0.00  0.00    +0.031 C 
ATOM      9  C   UNL     1      35.775 -17.196 -24.956  0.00  0.00    +0.007 C 
ENDROOT
BRANCH   7  11
ATOM     10  O   UNL     1      35.279 -14.487 -20.516  0.00  0.00    -0.244 OA
ATOM     11  C   UNL     1      34.323 -15.147 -20.892  0.00  0.00    +0.352 C 
BRANCH  11  12
ATOM     12  O   UNL     1      33.193 -15.362 -20.183  0.00  0.00    -0.476 OA
ATOM     13  H   UNL     1      32.370 -15.438 -20.625  0.00  0.00    +0.295 HD
ENDBRANCH  11  12
ENDBRANCH   7  11
BRANCH   4  14
ATOM     14  C   UNL     1      32.593 -14.364 -26.156  0.00  0.00    +0.121 C 
ATOM     15  C   UNL     1      33.159 -13.313 -27.106  0.00  0.00    +0.032 C 
BRANCH  14  16
ATOM     16  O   UNL     1      32.105 -15.465 -26.924  0.00  0.00    -0.384 OA
ATOM     17  H   UNL     1      31.332 -15.850 -26.480  0.00  0.00    +0.210 HD
ENDBRANCH  14  16
ENDBRANCH   4  14
BRANCH   8  18
ATOM     18  S   UNL     1      35.920 -17.908 -21.633  0.00  0.00    -0.052 S 
BRANCH  18  21
ATOM     19  S   UNL     1      33.118 -19.077 -21.671  0.00  0.00    -0.068 S 
ATOM     20  N   UNL     1      35.006 -19.920 -20.119  0.00  0.00    -0.393 NA
ATOM     21  C   UNL     1      34.706 -19.055 -21.050  0.00  0.00    +0.187 C 
ATOM     22  C   UNL     1      33.881 -20.680 -19.862  0.00  0.00    +0.115 C 
ATOM     23  C   UNL     1      32.760 -20.371 -20.603  0.00  0.00    +0.123 C 
BRANCH  22  25
ATOM     24  N   UNL     1      34.968 -23.219 -17.324  0.00  0.00    +0.390 N 
ATOM     25  C   UNL     1      33.945 -21.716 -18.867  0.00  0.00    -0.024 C 
ATOM     26  C   UNL     1      33.515 -23.477 -17.396  0.00  0.00    -0.039 C 
ATOM     27  C   UNL     1      35.232 -22.039 -18.173  0.00  0.00    -0.052 C 
ATOM     28  C   UNL     1      32.981 -22.525 -18.416  0.00  0.00    -0.052 C 
ATOM     29  C   UNL     1      32.846 -23.293 -16.038  0.00  0.00    -0.019 C 
ATOM     30  H   UNL     1      35.486 -24.025 -17.673  0.00  0.00    -0.083 HD
ATOM     31  H   UNL     1      35.264 -23.052 -16.362  0.00  0.00    -0.083 HD
ENDBRANCH  22  25
ENDBRANCH  18  21
ENDBRANCH   8  18
TORSDOF 7
ENDMDL
MODEL 8
REMARK VINA RESULT:      -7.0      6.883     11.104
REMARK  Name = 10993211
REMARK  7 active torsions:
REMARK  status: ('A' for Active; 'I' for Inactive)
REMARK    1  A    between atoms: C_4  and  C_14
REMARK    2  A    between atoms: C_7  and  C_11
REMARK    3  A    between atoms: C_8  and  S_18
REMARK    4  A    between atoms: C_11  and  O_12
REMARK    5  A    between atoms: C_14  and  O_16
REMARK    6  A    between atoms: S_18  and  C_21
REMARK    7  A    between atoms: C_22  and  C_25
REMARK                            x       y       z     vdW  Elec       q    Type
REMARK                         _______ _______ _______ _____ _____    ______ ____
ROOT
ATOM      1  O   UNL     1      33.727 -16.091 -25.557  0.00  0.00    -0.274 OA
ATOM      2  N   UNL     1      34.696 -16.906 -23.568  0.00  0.00    -0.254 N 
ATOM      3  C   UNL     1      34.532 -16.122 -22.327  0.00  0.00    +0.095 C 
ATOM      4  C   UNL     1      33.848 -15.046 -23.229  0.00  0.00    +0.123 C 
ATOM      5  C   UNL     1      33.870 -17.112 -21.345  0.00  0.00    +0.049 C 
ATOM      6  C   UNL     1      34.064 -16.031 -24.396  0.00  0.00    +0.233 C 
ATOM      7  C   UNL     1      34.364 -18.214 -23.363  0.00  0.00    +0.132 C 
ATOM      8  C   UNL     1      33.918 -18.420 -22.116  0.00  0.00    +0.031 C 
ATOM      9  C   UNL     1      32.480 -16.705 -20.888  0.00  0.00    +0.007 C 
ENDROOT
BRANCH   7  11
ATOM     10  O   UNL     1      35.296 -20.092 -24.485  0.00  0.00    -0.244 OA
ATOM     11  C   UNL     1      34.482 -19.182 -24.448  0.00  0.00    +0.352 C 
BRANCH  11  12
ATOM     12  O   UNL     1      33.557 -18.920 -25.399  0.00  0.00    -0.476 OA
ATOM     13  H   UNL     1      33.045 -18.137 -25.349  0.00  0.00    +0.295 HD
ENDBRANCH  11  12
ENDBRANCH   7  11
BRANCH   4  14
ATOM     14  C   UNL     1      34.440 -13.676 -23.450  0.00  0.00    +0.121 C 
ATOM     15  C   UNL     1      33.546 -12.824 -24.344  0.00  0.00    +0.032 C 
BRANCH  14  16
ATOM     16  O   UNL     1      34.602 -13.016 -22.194  0.00  0.00    -0.384 OA
ATOM     17  H   UNL     1      33.994 -12.261 -22.145  0.00  0.00    +0.210 HD
ENDBRANCH  14  16
ENDBRANCH   4  14
BRANCH   8  18
ATOM     18  S   UNL     1      33.439 -19.922 -21.433  0.00  0.00    -0.052 S 
BRANCH  18  21
ATOM     19  S   UNL     1      36.433 -19.655 -21.002  0.00  0.00    -0.068 S 
ATOM     20  N   UNL     1      34.859 -20.934 -19.400  0.00  0.00    -0.393 NA
ATOM     21  C   UNL     1      34.910 -20.239 -20.503  0.00  0.00    +0.187 C 
ATOM     22  C   UNL     1      36.140 -21.024 -18.888  0.00  0.00    +0.115 C 
ATOM     23  C   UNL     1      37.126 -20.393 -19.618  0.00  0.00    +0.123 C 
BRANCH  22  25
ATOM     24  N   UNL     1      35.837 -23.196 -15.847  0.00  0.00    +0.390 N 
ATOM     25  C   UNL     1      36.361 -21.746 -17.666  0.00  0.00    -0.024 C 
ATOM     26  C   UNL     1      37.170 -22.591 -15.646  0.00  0.00    -0.039 C 
ATOM     27  C   UNL     1      35.363 -22.747 -17.172  0.00  0.00    -0.052 C 
ATOM     28  C   UNL     1      37.379 -21.671 -16.804  0.00  0.00    -0.052 C 
ATOM     29  C   UNL     1      38.259 -23.654 -15.556  0.00  0.00    -0.019 C 
ATOM     30  H   UNL     1      35.195 -22.882 -15.119  0.00  0.00    -0.083 HD
ATOM     31  H   UNL     1      35.885 -24.214 -15.800  0.00  0.00    -0.083 HD
ENDBRANCH  22  25
ENDBRANCH  18  21
ENDBRANCH   8  18
TORSDOF 7
ENDMDL
MODEL 9
REMARK VINA RESULT:      -6.8     15.300     19.177
REMARK  Name = 10993211
REMARK  7 active torsions:
REMARK  status: ('A' for Active; 'I' for Inactive)
REMARK    1  A    between atoms: C_4  and  C_14
REMARK    2  A    between atoms: C_7  and  C_11
REMARK    3  A    between atoms: C_8  and  S_18
REMARK    4  A    between atoms: C_11  and  O_12
REMARK    5  A    between atoms: C_14  and  O_16
REMARK    6  A    between atoms: S_18  and  C_21
REMARK    7  A    between atoms: C_22  and  C_25
REMARK                            x       y       z     vdW  Elec       q    Type
REMARK                         _______ _______ _______ _____ _____    ______ ____
ROOT
ATOM      1  O   UNL     1      31.558  -3.291 -24.035  0.00  0.00    -0.274 OA
ATOM      2  N   UNL     1      31.527  -5.649 -23.985  0.00  0.00    -0.254 N 
ATOM      3  C   UNL     1      32.428  -6.388 -24.893  0.00  0.00    +0.095 C 
ATOM      4  C   UNL     1      32.795  -4.991 -25.487  0.00  0.00    +0.123 C 
ATOM      5  C   UNL     1      33.262  -7.278 -23.947  0.00  0.00    +0.049 C 
ATOM      6  C   UNL     1      31.844  -4.401 -24.425  0.00  0.00    +0.233 C 
ATOM      7  C   UNL     1      31.640  -6.112 -22.706  0.00  0.00    +0.132 C 
ATOM      8  C   UNL     1      32.580  -7.061 -22.607  0.00  0.00    +0.031 C 
ATOM      9  C   UNL     1      34.750  -6.971 -23.949  0.00  0.00    +0.007 C 
ENDROOT
BRANCH   7  11
ATOM     10  O   UNL     1      29.670  -5.151 -21.785  0.00  0.00    -0.244 OA
ATOM     11  C   UNL     1      30.817  -5.546 -21.643  0.00  0.00    +0.352 C 
BRANCH  11  12
ATOM     12  O   UNL     1      31.513  -5.526 -20.485  0.00  0.00    -0.476 OA
ATOM     13  H   UNL     1      31.073  -5.351 -19.677  0.00  0.00    +0.295 HD
ENDBRANCH  11  12
ENDBRANCH   7  11
BRANCH   4  14
ATOM     14  C   UNL     1      32.466  -4.600 -26.906  0.00  0.00    +0.121 C 
ATOM     15  C   UNL     1      32.460  -3.085 -27.076  0.00  0.00    +0.032 C 
BRANCH  14  16
ATOM     16  O   UNL     1      33.434  -5.162 -27.794  0.00  0.00    -0.384 OA
ATOM     17  H   UNL     1      34.232  -4.609 -27.792  0.00  0.00    +0.210 HD
ENDBRANCH  14  16
ENDBRANCH   4  14
BRANCH   8  18
ATOM     18  S   UNL     1      33.009  -7.936 -21.191  0.00  0.00    -0.052 S 
BRANCH  18  21
ATOM     19  S   UNL     1      31.171 -10.344 -20.983  0.00  0.00    -0.068 S 
ATOM     20  N   UNL     1      33.072 -10.134 -22.722  0.00  0.00    -0.393 NA
ATOM     21  C   UNL     1      32.474  -9.534 -21.729  0.00  0.00    +0.187 C 
ATOM     22  C   UNL     1      32.453 -11.352 -22.924  0.00  0.00    +0.115 C 
ATOM     23  C   UNL     1      31.403 -11.643 -22.079  0.00  0.00    +0.123 C 
BRANCH  22  25
ATOM     24  N   UNL     1      33.442 -14.281 -25.047  0.00  0.00    +0.390 N 
ATOM     25  C   UNL     1      32.927 -12.217 -23.970  0.00  0.00    -0.024 C 
ATOM     26  C   UNL     1      33.902 -13.148 -25.876  0.00  0.00    -0.039 C 
ATOM     27  C   UNL     1      32.732 -13.700 -23.889  0.00  0.00    -0.052 C 
ATOM     28  C   UNL     1      33.579 -11.915 -25.097  0.00  0.00    -0.052 C 
ATOM     29  C   UNL     1      33.233 -13.148 -27.246  0.00  0.00    -0.019 C 
ATOM     30  H   UNL     1      34.240 -14.831 -24.729  0.00  0.00    -0.083 HD
ATOM     31  H   UNL     1      32.831 -14.900 -25.579  0.00  0.00    -0.083 HD
ENDBRANCH  22  25
ENDBRANCH  18  21
ENDBRANCH   8  18
TORSDOF 7
ENDMDL
