MODEL 1
REMARK VINA RESULT:      -8.0      0.000      0.000
REMARK  Name = 2480
REMARK  13 active torsions:
REMARK  status: ('A' for Active; 'I' for Inactive)
REMARK    1  A    between atoms: C_1  and  O_2
REMARK    2  A    between atoms: C_1  and  C_14
REMARK    3  A    between atoms: O_2  and  C_4
REMARK    4  A    between atoms: C_4  and  C_5
REMARK    5  A    between atoms: C_10  and  N_11
REMARK    6  A    between atoms: C_14  and  C_15
REMARK    7  A    between atoms: C_15  and  N_16
REMARK    8  A    between atoms: N_16  and  C_18
REMARK    9  A    between atoms: N_16  and  C_22
REMARK   10  A    between atoms: C_18  and  C_19
REMARK   11  A    between atoms: C_19  and  C_20
REMARK   12  A    between atoms: C_22  and  C_23
REMARK   13  A    between atoms: C_23  and  C_24
REMARK                            x       y       z     vdW  Elec       q    Type
REMARK                         _______ _______ _______ _____ _____    ______ ____
ROOT
ATOM      1  C   UNL     1      34.837 -18.561 -24.172  0.00  0.00    +0.207 C 
ENDROOT
BRANCH   1   2
ATOM      2  O   UNL     1      34.469 -18.409 -22.807  0.00  0.00    -0.446 OA
BRANCH   2   4
ATOM      3  O   UNL     1      36.542 -18.535 -21.813  0.00  0.00    -0.245 OA
ATOM      4  C   UNL     1      35.368 -18.863 -21.890  0.00  0.00    +0.341 C 
BRANCH   4   5
ATOM      5  C   UNL     1      34.733 -19.837 -20.967  0.00  0.00    +0.076 C 
ATOM      6  C   UNL     1      35.528 -20.773 -20.336  0.00  0.00    +0.008 C 
ATOM      7  C   UNL     1      33.369 -19.778 -20.770  0.00  0.00    +0.008 C 
ATOM      8  C   UNL     1      34.931 -21.689 -19.469  0.00  0.00    +0.014 C 
ATOM      9  C   UNL     1      32.772 -20.694 -19.904  0.00  0.00    +0.014 C 
ATOM     10  C   UNL     1      33.553 -21.649 -19.253  0.00  0.00    +0.042 C 
BRANCH  10  11
ATOM     11  N   UNL     1      32.950 -22.575 -18.377  0.00  0.00    -0.357 N 
ATOM     12  H   UNL     1      32.873 -22.366 -17.417  0.00  0.00    +0.142 HD
ATOM     13  H   UNL     1      32.604 -23.429 -18.724  0.00  0.00    +0.142 HD
ENDBRANCH  10  11
ENDBRANCH   4   5
ENDBRANCH   2   4
ENDBRANCH   1   2
BRANCH   1  14
ATOM     14  C   UNL     1      34.515 -17.272 -24.915  0.00  0.00    +0.025 C 
BRANCH  14  15
ATOM     15  C   UNL     1      35.076 -16.052 -24.192  0.00  0.00    -0.074 C 
BRANCH  15  16
ATOM     16  N   UNL     1      34.012 -15.361 -23.461  0.00  0.00    +0.387 N 
ATOM     17  H   UNL     1      33.325 -16.051 -23.158  0.00  0.00    -0.080 HD
BRANCH  16  18
ATOM     18  C   UNL     1      33.340 -14.398 -24.324  0.00  0.00    -0.077 C 
BRANCH  18  19
ATOM     19  C   UNL     1      33.742 -12.973 -23.944  0.00  0.00    -0.023 C 
BRANCH  19  20
ATOM     20  C   UNL     1      33.813 -12.071 -25.177  0.00  0.00    -0.002 C 
ATOM     21  C   UNL     1      34.473 -10.740 -24.855  0.00  0.00    -0.000 C 
ENDBRANCH  19  20
ENDBRANCH  18  19
ENDBRANCH  16  18
BRANCH  16  22
ATOM     22  C   UNL     1      34.559 -14.698 -22.276  0.00  0.00    -0.077 C 
BRANCH  22  23
ATOM     23  C   UNL     1      34.157 -15.456 -21.012  0.00  0.00    -0.023 C 
BRANCH  23  24
ATOM     24  C   UNL     1      32.694 -15.193 -20.652  0.00  0.00    -0.002 C 
ATOM     25  C   UNL     1      32.392 -13.704 -20.596  0.00  0.00    -0.000 C 
ENDBRANCH  23  24
ENDBRANCH  22  23
ENDBRANCH  16  22
ENDBRANCH  15  16
ENDBRANCH  14  15
ENDBRANCH   1  14
TORSDOF 13
ENDMDL
MODEL 2
REMARK VINA RESULT:      -8.0      0.844      3.193
REMARK  Name = 2480
REMARK  13 active torsions:
REMARK  status: ('A' for Active; 'I' for Inactive)
REMARK    1  A    between atoms: C_1  and  O_2
REMARK    2  A    between atoms: C_1  and  C_14
REMARK    3  A    between atoms: O_2  and  C_4
REMARK    4  A    between atoms: C_4  and  C_5
REMARK    5  A    between atoms: C_10  and  N_11
REMARK    6  A    between atoms: C_14  and  C_15
REMARK    7  A    between atoms: C_15  and  N_16
REMARK    8  A    between atoms: N_16  and  C_18
REMARK    9  A    between atoms: N_16  and  C_22
REMARK   10  A    between atoms: C_18  and  C_19
REMARK   11  A    between atoms: C_19  and  C_20
REMARK   12  A    between atoms: C_22  and  C_23
REMARK   13  A    between atoms: C_23  and  C_24
REMARK                            x       y       z     vdW  Elec       q    Type
REMARK                         _______ _______ _______ _____ _____    ______ ____
ROOT
ATOM      1  C   UNL     1      34.893 -17.964 -24.362  0.00  0.00    +0.207 C 
ENDROOT
BRANCH   1   2
ATOM      2  O   UNL     1      34.755 -17.767 -22.961  0.00  0.00    -0.446 OA
BRANCH   2   4
ATOM      3  O   UNL     1      36.837 -18.339 -22.160  0.00  0.00    -0.245 OA
ATOM      4  C   UNL     1      35.621 -18.460 -22.171  0.00  0.00    +0.341 C 
BRANCH   4   5
ATOM      5  C   UNL     1      34.890 -19.413 -21.297  0.00  0.00    +0.076 C 
ATOM      6  C   UNL     1      33.517 -19.308 -21.198  0.00  0.00    +0.008 C 
ATOM      7  C   UNL     1      35.606 -20.372 -20.611  0.00  0.00    +0.008 C 
ATOM      8  C   UNL     1      32.831 -20.203 -20.377  0.00  0.00    +0.014 C 
ATOM      9  C   UNL     1      34.919 -21.267 -19.790  0.00  0.00    +0.014 C 
ATOM     10  C   UNL     1      33.532 -21.182 -19.673  0.00  0.00    +0.042 C 
BRANCH  10  11
ATOM     11  N   UNL     1      32.838 -22.087 -18.843  0.00  0.00    -0.357 N 
ATOM     12  H   UNL     1      32.915 -23.056 -18.999  0.00  0.00    +0.142 HD
ATOM     13  H   UNL     1      32.277 -21.750 -18.108  0.00  0.00    +0.142 HD
ENDBRANCH  10  11
ENDBRANCH   4   5
ENDBRANCH   2   4
ENDBRANCH   1   2
BRANCH   1  14
ATOM     14  C   UNL     1      34.788 -16.616 -25.062  0.00  0.00    +0.025 C 
BRANCH  14  15
ATOM     15  C   UNL     1      33.689 -15.752 -24.452  0.00  0.00    -0.074 C 
BRANCH  15  16
ATOM     16  N   UNL     1      34.227 -14.447 -24.062  0.00  0.00    +0.387 N 
ATOM     17  H   UNL     1      35.220 -14.423 -24.292  0.00  0.00    -0.080 HD
BRANCH  16  18
ATOM     18  C   UNL     1      34.087 -14.244 -22.625  0.00  0.00    -0.077 C 
BRANCH  18  19
ATOM     19  C   UNL     1      32.801 -14.898 -22.119  0.00  0.00    -0.023 C 
BRANCH  19  20
ATOM     20  C   UNL     1      33.014 -15.546 -20.750  0.00  0.00    -0.002 C 
ATOM     21  C   UNL     1      34.466 -15.461 -20.313  0.00  0.00    -0.000 C 
ENDBRANCH  19  20
ENDBRANCH  18  19
ENDBRANCH  16  18
BRANCH  16  22
ATOM     22  C   UNL     1      33.552 -13.379 -24.802  0.00  0.00    -0.077 C 
BRANCH  22  23
ATOM     23  C   UNL     1      33.783 -12.033 -24.117  0.00  0.00    -0.023 C 
BRANCH  23  24
ATOM     24  C   UNL     1      34.352 -11.006 -25.096  0.00  0.00    -0.002 C 
ATOM     25  C   UNL     1      34.841  -9.759 -24.374  0.00  0.00    -0.000 C 
ENDBRANCH  23  24
ENDBRANCH  22  23
ENDBRANCH  16  22
ENDBRANCH  15  16
ENDBRANCH  14  15
ENDBRANCH   1  14
TORSDOF 13
ENDMDL
MODEL 3
REMARK VINA RESULT:      -7.8      1.313      2.298
REMARK  Name = 2480
REMARK  13 active torsions:
REMARK  status: ('A' for Active; 'I' for Inactive)
REMARK    1  A    between atoms: C_1  and  O_2
REMARK    2  A    between atoms: C_1  and  C_14
REMARK    3  A    between atoms: O_2  and  C_4
REMARK    4  A    between atoms: C_4  and  C_5
REMARK    5  A    between atoms: C_10  and  N_11
REMARK    6  A    between atoms: C_14  and  C_15
REMARK    7  A    between atoms: C_15  and  N_16
REMARK    8  A    between atoms: N_16  and  C_18
REMARK    9  A    between atoms: N_16  and  C_22
REMARK   10  A    between atoms: C_18  and  C_19
REMARK   11  A    between atoms: C_19  and  C_20
REMARK   12  A    between atoms: C_22  and  C_23
REMARK   13  A    between atoms: C_23  and  C_24
REMARK                            x       y       z     vdW  Elec       q    Type
REMARK                         _______ _______ _______ _____ _____    ______ ____
ROOT
ATOM      1  C   UNL     1      34.778 -16.401 -23.152  0.00  0.00    +0.207 C 
ENDROOT
BRANCH   1   2
ATOM      2  O   UNL     1      34.684 -17.144 -21.944  0.00  0.00    -0.446 OA
BRANCH   2   4
ATOM      3  O   UNL     1      36.608 -18.348 -22.330  0.00  0.00    -0.245 OA
ATOM      4  C   UNL     1      35.490 -18.237 -21.849  0.00  0.00    +0.341 C 
BRANCH   4   5
ATOM      5  C   UNL     1      34.828 -19.314 -21.070  0.00  0.00    +0.076 C 
ATOM      6  C   UNL     1      33.450 -19.331 -20.995  0.00  0.00    +0.008 C 
ATOM      7  C   UNL     1      35.611 -20.262 -20.444  0.00  0.00    +0.008 C 
ATOM      8  C   UNL     1      32.828 -20.343 -20.262  0.00  0.00    +0.014 C 
ATOM      9  C   UNL     1      34.990 -21.273 -19.712  0.00  0.00    +0.014 C 
ATOM     10  C   UNL     1      33.598 -21.314 -19.621  0.00  0.00    +0.042 C 
BRANCH  10  11
ATOM     11  N   UNL     1      32.969 -22.336 -18.880  0.00  0.00    -0.357 N 
ATOM     12  H   UNL     1      32.269 -22.110 -18.226  0.00  0.00    +0.142 HD
ATOM     13  H   UNL     1      33.231 -23.275 -19.016  0.00  0.00    +0.142 HD
ENDBRANCH  10  11
ENDBRANCH   4   5
ENDBRANCH   2   4
ENDBRANCH   1   2
BRANCH   1  14
ATOM     14  C   UNL     1      34.355 -14.963 -22.880  0.00  0.00    +0.025 C 
BRANCH  14  15
ATOM     15  C   UNL     1      33.452 -14.426 -23.985  0.00  0.00    -0.074 C 
BRANCH  15  16
ATOM     16  N   UNL     1      32.742 -13.231 -23.524  0.00  0.00    +0.387 N 
ATOM     17  H   UNL     1      31.901 -13.116 -24.088  0.00  0.00    -0.080 HD
BRANCH  16  18
ATOM     18  C   UNL     1      33.572 -12.044 -23.694  0.00  0.00    -0.077 C 
BRANCH  18  19
ATOM     19  C   UNL     1      33.934 -11.857 -25.167  0.00  0.00    -0.023 C 
BRANCH  19  20
ATOM     20  C   UNL     1      34.833 -10.635 -25.364  0.00  0.00    -0.002 C 
ATOM     21  C   UNL     1      34.710  -9.662 -24.203  0.00  0.00    -0.000 C 
ENDBRANCH  19  20
ENDBRANCH  18  19
ENDBRANCH  16  18
BRANCH  16  22
ATOM     22  C   UNL     1      32.345 -13.386 -22.123  0.00  0.00    -0.077 C 
BRANCH  22  23
ATOM     23  C   UNL     1      31.646 -12.121 -21.628  0.00  0.00    -0.023 C 
BRANCH  23  24
ATOM     24  C   UNL     1      31.828 -11.944 -20.120  0.00  0.00    -0.002 C 
ATOM     25  C   UNL     1      31.111 -10.701 -19.614  0.00  0.00    -0.000 C 
ENDBRANCH  23  24
ENDBRANCH  22  23
ENDBRANCH  16  22
ENDBRANCH  15  16
ENDBRANCH  14  15
ENDBRANCH   1  14
TORSDOF 13
ENDMDL
MODEL 4
REMARK VINA RESULT:      -7.8      1.439      3.378
REMARK  Name = 2480
REMARK  13 active torsions:
REMARK  status: ('A' for Active; 'I' for Inactive)
REMARK    1  A    between atoms: C_1  and  O_2
REMARK    2  A    between atoms: C_1  and  C_14
REMARK    3  A    between atoms: O_2  and  C_4
REMARK    4  A    between atoms: C_4  and  C_5
REMARK    5  A    between atoms: C_10  and  N_11
REMARK    6  A    between atoms: C_14  and  C_15
REMARK    7  A    between atoms: C_15  and  N_16
REMARK    8  A    between atoms: N_16  and  C_18
REMARK    9  A    between atoms: N_16  and  C_22
REMARK   10  A    between atoms: C_18  and  C_19
REMARK   11  A    between atoms: C_19  and  C_20
REMARK   12  A    between atoms: C_22  and  C_23
REMARK   13  A    between atoms: C_23  and  C_24
REMARK                            x       y       z     vdW  Elec       q    Type
REMARK                         _______ _______ _______ _____ _____    ______ ____
ROOT
ATOM      1  C   UNL     1      34.832 -16.207 -20.845  0.00  0.00    +0.207 C 
ENDROOT
BRANCH   1   2
ATOM      2  O   UNL     1      34.500 -17.250 -21.752  0.00  0.00    -0.446 OA
BRANCH   2   4
ATOM      3  O   UNL     1      36.415 -18.395 -22.319  0.00  0.00    -0.245 OA
ATOM      4  C   UNL     1      35.332 -18.327 -21.757  0.00  0.00    +0.341 C 
BRANCH   4   5
ATOM      5  C   UNL     1      34.749 -19.448 -20.976  0.00  0.00    +0.076 C 
ATOM      6  C   UNL     1      33.377 -19.531 -20.853  0.00  0.00    +0.008 C 
ATOM      7  C   UNL     1      35.597 -20.369 -20.398  0.00  0.00    +0.008 C 
ATOM      8  C   UNL     1      32.829 -20.583 -20.119  0.00  0.00    +0.014 C 
ATOM      9  C   UNL     1      35.049 -21.422 -19.663  0.00  0.00    +0.014 C 
ATOM     10  C   UNL     1      33.665 -21.528 -19.525  0.00  0.00    +0.042 C 
BRANCH  10  11
ATOM     11  N   UNL     1      33.112 -22.592 -18.782  0.00  0.00    -0.357 N 
ATOM     12  H   UNL     1      32.847 -22.452 -17.844  0.00  0.00    +0.142 HD
ATOM     13  H   UNL     1      32.989 -23.475 -19.201  0.00  0.00    +0.142 HD
ENDBRANCH  10  11
ENDBRANCH   4   5
ENDBRANCH   2   4
ENDBRANCH   1   2
BRANCH   1  14
ATOM     14  C   UNL     1      34.056 -14.955 -21.229  0.00  0.00    +0.025 C 
BRANCH  14  15
ATOM     15  C   UNL     1      34.436 -14.463 -22.621  0.00  0.00    -0.074 C 
BRANCH  15  16
ATOM     16  N   UNL     1      33.600 -13.324 -23.003  0.00  0.00    +0.387 N 
ATOM     17  H   UNL     1      34.062 -12.466 -22.704  0.00  0.00    -0.080 HD
BRANCH  16  18
ATOM     18  C   UNL     1      32.302 -13.396 -22.343  0.00  0.00    -0.077 C 
BRANCH  18  19
ATOM     19  C   UNL     1      31.822 -11.996 -21.960  0.00  0.00    -0.023 C 
BRANCH  19  20
ATOM     20  C   UNL     1      31.560 -11.894 -20.457  0.00  0.00    -0.002 C 
ATOM     21  C   UNL     1      31.457 -10.446 -20.007  0.00  0.00    -0.000 C 
ENDBRANCH  19  20
ENDBRANCH  18  19
ENDBRANCH  16  18
BRANCH  16  22
ATOM     22  C   UNL     1      33.436 -13.281 -24.458  0.00  0.00    -0.077 C 
BRANCH  22  23
ATOM     23  C   UNL     1      33.239 -14.690 -25.012  0.00  0.00    -0.023 C 
BRANCH  23  24
ATOM     24  C   UNL     1      33.032 -14.665 -26.526  0.00  0.00    -0.002 C 
ATOM     25  C   UNL     1      33.228 -13.267 -27.093  0.00  0.00    -0.000 C 
ENDBRANCH  23  24
ENDBRANCH  22  23
ENDBRANCH  16  22
ENDBRANCH  15  16
ENDBRANCH  14  15
ENDBRANCH   1  14
TORSDOF 13
ENDMDL
MODEL 5
REMARK VINA RESULT:      -7.8      1.450      3.479
REMARK  Name = 2480
REMARK  13 active torsions:
REMARK  status: ('A' for Active; 'I' for Inactive)
REMARK    1  A    between atoms: C_1  and  O_2
REMARK    2  A    between atoms: C_1  and  C_14
REMARK    3  A    between atoms: O_2  and  C_4
REMARK    4  A    between atoms: C_4  and  C_5
REMARK    5  A    between atoms: C_10  and  N_11
REMARK    6  A    between atoms: C_14  and  C_15
REMARK    7  A    between atoms: C_15  and  N_16
REMARK    8  A    between atoms: N_16  and  C_18
REMARK    9  A    between atoms: N_16  and  C_22
REMARK   10  A    between atoms: C_18  and  C_19
REMARK   11  A    between atoms: C_19  and  C_20
REMARK   12  A    between atoms: C_22  and  C_23
REMARK   13  A    between atoms: C_23  and  C_24
REMARK                            x       y       z     vdW  Elec       q    Type
REMARK                         _______ _______ _______ _____ _____    ______ ____
ROOT
ATOM      1  C   UNL     1      34.782 -16.097 -21.142  0.00  0.00    +0.207 C 
ENDROOT
BRANCH   1   2
ATOM      2  O   UNL     1      34.534 -17.235 -21.957  0.00  0.00    -0.446 OA
BRANCH   2   4
ATOM      3  O   UNL     1      36.547 -18.303 -22.287  0.00  0.00    -0.245 OA
ATOM      4  C   UNL     1      35.414 -18.266 -21.830  0.00  0.00    +0.341 C 
BRANCH   4   5
ATOM      5  C   UNL     1      34.815 -19.377 -21.048  0.00  0.00    +0.076 C 
ATOM      6  C   UNL     1      35.651 -20.302 -20.456  0.00  0.00    +0.008 C 
ATOM      7  C   UNL     1      33.442 -19.451 -20.939  0.00  0.00    +0.008 C 
ATOM      8  C   UNL     1      35.089 -21.346 -19.722  0.00  0.00    +0.014 C 
ATOM      9  C   UNL     1      32.879 -20.495 -20.204  0.00  0.00    +0.014 C 
ATOM     10  C   UNL     1      33.703 -21.443 -19.596  0.00  0.00    +0.042 C 
BRANCH  10  11
ATOM     11  N   UNL     1      33.133 -22.499 -18.854  0.00  0.00    -0.357 N 
ATOM     12  H   UNL     1      33.593 -22.840 -18.052  0.00  0.00    +0.142 HD
ATOM     13  H   UNL     1      32.277 -22.894 -19.137  0.00  0.00    +0.142 HD
ENDBRANCH  10  11
ENDBRANCH   4   5
ENDBRANCH   2   4
ENDBRANCH   1   2
BRANCH   1  14
ATOM     14  C   UNL     1      33.462 -15.388 -20.872  0.00  0.00    +0.025 C 
BRANCH  14  15
ATOM     15  C   UNL     1      32.832 -14.864 -22.158  0.00  0.00    -0.074 C 
BRANCH  15  16
ATOM     16  N   UNL     1      33.174 -13.455 -22.353  0.00  0.00    +0.387 N 
ATOM     17  H   UNL     1      33.880 -13.193 -21.666  0.00  0.00    -0.080 HD
BRANCH  16  18
ATOM     18  C   UNL     1      32.004 -12.610 -22.149  0.00  0.00    -0.077 C 
BRANCH  18  19
ATOM     19  C   UNL     1      31.747 -12.412 -20.655  0.00  0.00    -0.023 C 
BRANCH  19  20
ATOM     20  C   UNL     1      31.224 -11.003 -20.367  0.00  0.00    -0.002 C 
ATOM     21  C   UNL     1      31.538 -10.574 -18.943  0.00  0.00    -0.000 C 
ENDBRANCH  19  20
ENDBRANCH  18  19
ENDBRANCH  16  18
BRANCH  16  22
ATOM     22  C   UNL     1      33.731 -13.248 -23.692  0.00  0.00    -0.077 C 
BRANCH  22  23
ATOM     23  C   UNL     1      33.756 -11.759 -24.032  0.00  0.00    -0.023 C 
BRANCH  23  24
ATOM     24  C   UNL     1      34.178 -11.531 -25.483  0.00  0.00    -0.002 C 
ATOM     25  C   UNL     1      35.240 -10.448 -25.592  0.00  0.00    -0.000 C 
ENDBRANCH  23  24
ENDBRANCH  22  23
ENDBRANCH  16  22
ENDBRANCH  15  16
ENDBRANCH  14  15
ENDBRANCH   1  14
TORSDOF 13
ENDMDL
MODEL 6
REMARK VINA RESULT:      -7.7      0.972      3.579
REMARK  Name = 2480
REMARK  13 active torsions:
REMARK  status: ('A' for Active; 'I' for Inactive)
REMARK    1  A    between atoms: C_1  and  O_2
REMARK    2  A    between atoms: C_1  and  C_14
REMARK    3  A    between atoms: O_2  and  C_4
REMARK    4  A    between atoms: C_4  and  C_5
REMARK    5  A    between atoms: C_10  and  N_11
REMARK    6  A    between atoms: C_14  and  C_15
REMARK    7  A    between atoms: C_15  and  N_16
REMARK    8  A    between atoms: N_16  and  C_18
REMARK    9  A    between atoms: N_16  and  C_22
REMARK   10  A    between atoms: C_18  and  C_19
REMARK   11  A    between atoms: C_19  and  C_20
REMARK   12  A    between atoms: C_22  and  C_23
REMARK   13  A    between atoms: C_23  and  C_24
REMARK                            x       y       z     vdW  Elec       q    Type
REMARK                         _______ _______ _______ _____ _____    ______ ____
ROOT
ATOM      1  C   UNL     1      34.457 -16.086 -20.601  0.00  0.00    +0.207 C 
ENDROOT
BRANCH   1   2
ATOM      2  O   UNL     1      34.160 -17.186 -21.450  0.00  0.00    -0.446 OA
BRANCH   2   4
ATOM      3  O   UNL     1      36.194 -18.036 -22.116  0.00  0.00    -0.245 OA
ATOM      4  C   UNL     1      35.121 -18.147 -21.543  0.00  0.00    +0.341 C 
BRANCH   4   5
ATOM      5  C   UNL     1      34.695 -19.387 -20.845  0.00  0.00    +0.076 C 
ATOM      6  C   UNL     1      33.347 -19.630 -20.681  0.00  0.00    +0.008 C 
ATOM      7  C   UNL     1      35.661 -20.256 -20.381  0.00  0.00    +0.008 C 
ATOM      8  C   UNL     1      32.947 -20.794 -20.024  0.00  0.00    +0.014 C 
ATOM      9  C   UNL     1      35.262 -21.420 -19.725  0.00  0.00    +0.014 C 
ATOM     10  C   UNL     1      33.904 -21.689 -19.547  0.00  0.00    +0.042 C 
BRANCH  10  11
ATOM     11  N   UNL     1      33.501 -22.867 -18.883  0.00  0.00    -0.357 N 
ATOM     12  H   UNL     1      32.552 -23.131 -18.884  0.00  0.00    +0.142 HD
ATOM     13  H   UNL     1      34.167 -23.424 -18.419  0.00  0.00    +0.142 HD
ENDBRANCH  10  11
ENDBRANCH   4   5
ENDBRANCH   2   4
ENDBRANCH   1   2
BRANCH   1  14
ATOM     14  C   UNL     1      34.399 -14.803 -21.419  0.00  0.00    +0.025 C 
BRANCH  14  15
ATOM     15  C   UNL     1      32.980 -14.502 -21.891  0.00  0.00    -0.074 C 
BRANCH  15  16
ATOM     16  N   UNL     1      32.991 -14.069 -23.289  0.00  0.00    +0.387 N 
ATOM     17  H   UNL     1      32.142 -14.407 -23.741  0.00  0.00    -0.080 HD
BRANCH  16  18
ATOM     18  C   UNL     1      34.138 -14.633 -23.992  0.00  0.00    -0.077 C 
BRANCH  18  19
ATOM     19  C   UNL     1      33.685 -15.741 -24.942  0.00  0.00    -0.023 C 
BRANCH  19  20
ATOM     20  C   UNL     1      34.806 -16.753 -25.185  0.00  0.00    -0.002 C 
ATOM     21  C   UNL     1      34.300 -18.182 -25.075  0.00  0.00    -0.000 C 
ENDBRANCH  19  20
ENDBRANCH  18  19
ENDBRANCH  16  18
BRANCH  16  22
ATOM     22  C   UNL     1      33.008 -12.607 -23.367  0.00  0.00    -0.077 C 
BRANCH  22  23
ATOM     23  C   UNL     1      33.794 -12.150 -24.595  0.00  0.00    -0.023 C 
BRANCH  23  24
ATOM     24  C   UNL     1      34.250 -10.698 -24.450  0.00  0.00    -0.002 C 
ATOM     25  C   UNL     1      35.330 -10.349 -25.462  0.00  0.00    -0.000 C 
ENDBRANCH  23  24
ENDBRANCH  22  23
ENDBRANCH  16  22
ENDBRANCH  15  16
ENDBRANCH  14  15
ENDBRANCH   1  14
TORSDOF 13
ENDMDL
MODEL 7
REMARK VINA RESULT:      -7.6      1.512      2.521
REMARK  Name = 2480
REMARK  13 active torsions:
REMARK  status: ('A' for Active; 'I' for Inactive)
REMARK    1  A    between atoms: C_1  and  O_2
REMARK    2  A    between atoms: C_1  and  C_14
REMARK    3  A    between atoms: O_2  and  C_4
REMARK    4  A    between atoms: C_4  and  C_5
REMARK    5  A    between atoms: C_10  and  N_11
REMARK    6  A    between atoms: C_14  and  C_15
REMARK    7  A    between atoms: C_15  and  N_16
REMARK    8  A    between atoms: N_16  and  C_18
REMARK    9  A    between atoms: N_16  and  C_22
REMARK   10  A    between atoms: C_18  and  C_19
REMARK   11  A    between atoms: C_19  and  C_20
REMARK   12  A    between atoms: C_22  and  C_23
REMARK   13  A    between atoms: C_23  and  C_24
REMARK                            x       y       z     vdW  Elec       q    Type
REMARK                         _______ _______ _______ _____ _____    ______ ____
ROOT
ATOM      1  C   UNL     1      34.741 -16.353 -20.726  0.00  0.00    +0.207 C 
ENDROOT
BRANCH   1   2
ATOM      2  O   UNL     1      34.154 -17.221 -21.687  0.00  0.00    -0.446 OA
BRANCH   2   4
ATOM      3  O   UNL     1      35.690 -18.422 -22.911  0.00  0.00    -0.245 OA
ATOM      4  C   UNL     1      34.872 -18.332 -22.008  0.00  0.00    +0.341 C 
BRANCH   4   5
ATOM      5  C   UNL     1      34.531 -19.460 -21.104  0.00  0.00    +0.076 C 
ATOM      6  C   UNL     1      35.550 -20.239 -20.597  0.00  0.00    +0.008 C 
ATOM      7  C   UNL     1      33.205 -19.694 -20.803  0.00  0.00    +0.008 C 
ATOM      8  C   UNL     1      35.229 -21.299 -19.748  0.00  0.00    +0.014 C 
ATOM      9  C   UNL     1      32.884 -20.754 -19.954  0.00  0.00    +0.014 C 
ATOM     10  C   UNL     1      33.897 -21.557 -19.427  0.00  0.00    +0.042 C 
BRANCH  10  11
ATOM     11  N   UNL     1      33.572 -22.628 -18.569  0.00  0.00    -0.357 N 
ATOM     12  H   UNL     1      34.027 -22.719 -17.701  0.00  0.00    +0.142 HD
ATOM     13  H   UNL     1      32.890 -23.285 -18.838  0.00  0.00    +0.142 HD
ENDBRANCH  10  11
ENDBRANCH   4   5
ENDBRANCH   2   4
ENDBRANCH   1   2
BRANCH   1  14
ATOM     14  C   UNL     1      34.522 -14.912 -21.166  0.00  0.00    +0.025 C 
BRANCH  14  15
ATOM     15  C   UNL     1      33.039 -14.561 -21.220  0.00  0.00    -0.074 C 
BRANCH  15  16
ATOM     16  N   UNL     1      32.711 -13.942 -22.505  0.00  0.00    +0.387 N 
ATOM     17  H   UNL     1      32.069 -14.554 -23.007  0.00  0.00    -0.080 HD
BRANCH  16  18
ATOM     18  C   UNL     1      33.911 -13.776 -23.316  0.00  0.00    -0.077 C 
BRANCH  18  19
ATOM     19  C   UNL     1      33.586 -13.004 -24.594  0.00  0.00    -0.023 C 
BRANCH  19  20
ATOM     20  C   UNL     1      33.137 -13.948 -25.711  0.00  0.00    -0.002 C 
ATOM     21  C   UNL     1      33.257 -13.292 -27.076  0.00  0.00    -0.000 C 
ENDBRANCH  19  20
ENDBRANCH  18  19
ENDBRANCH  16  18
BRANCH  16  22
ATOM     22  C   UNL     1      32.051 -12.652 -22.293  0.00  0.00    -0.077 C 
BRANCH  22  23
ATOM     23  C   UNL     1      31.871 -12.388 -20.799  0.00  0.00    -0.023 C 
BRANCH  23  24
ATOM     24  C   UNL     1      30.998 -11.156 -20.558  0.00  0.00    -0.002 C 
ATOM     25  C   UNL     1      31.178 -10.613 -19.148  0.00  0.00    -0.000 C 
ENDBRANCH  23  24
ENDBRANCH  22  23
ENDBRANCH  16  22
ENDBRANCH  15  16
ENDBRANCH  14  15
ENDBRANCH   1  14
TORSDOF 13
ENDMDL
MODEL 8
REMARK VINA RESULT:      -7.6      2.160      7.102
REMARK  Name = 2480
REMARK  13 active torsions:
REMARK  status: ('A' for Active; 'I' for Inactive)
REMARK    1  A    between atoms: C_1  and  O_2
REMARK    2  A    between atoms: C_1  and  C_14
REMARK    3  A    between atoms: O_2  and  C_4
REMARK    4  A    between atoms: C_4  and  C_5
REMARK    5  A    between atoms: C_10  and  N_11
REMARK    6  A    between atoms: C_14  and  C_15
REMARK    7  A    between atoms: C_15  and  N_16
REMARK    8  A    between atoms: N_16  and  C_18
REMARK    9  A    between atoms: N_16  and  C_22
REMARK   10  A    between atoms: C_18  and  C_19
REMARK   11  A    between atoms: C_19  and  C_20
REMARK   12  A    between atoms: C_22  and  C_23
REMARK   13  A    between atoms: C_23  and  C_24
REMARK                            x       y       z     vdW  Elec       q    Type
REMARK                         _______ _______ _______ _____ _____    ______ ____
ROOT
ATOM      1  C   UNL     1      34.161 -17.655 -25.259  0.00  0.00    +0.207 C 
ENDROOT
BRANCH   1   2
ATOM      2  O   UNL     1      34.420 -16.387 -25.846  0.00  0.00    -0.446 OA
BRANCH   2   4
ATOM      3  O   UNL     1      32.349 -15.975 -26.763  0.00  0.00    -0.245 OA
ATOM      4  C   UNL     1      33.329 -15.622 -26.126  0.00  0.00    +0.341 C 
BRANCH   4   5
ATOM      5  C   UNL     1      33.477 -14.262 -25.548  0.00  0.00    +0.076 C 
ATOM      6  C   UNL     1      33.528 -13.177 -26.400  0.00  0.00    +0.008 C 
ATOM      7  C   UNL     1      33.560 -14.125 -24.178  0.00  0.00    +0.008 C 
ATOM      8  C   UNL     1      33.668 -11.900 -25.858  0.00  0.00    +0.014 C 
ATOM      9  C   UNL     1      33.700 -12.847 -23.635  0.00  0.00    +0.014 C 
ATOM     10  C   UNL     1      33.754 -11.735 -24.475  0.00  0.00    +0.042 C 
BRANCH  10  11
ATOM     11  N   UNL     1      33.895 -10.443 -23.926  0.00  0.00    -0.357 N 
ATOM     12  H   UNL     1      33.276 -10.137 -23.225  0.00  0.00    +0.142 HD
ATOM     13  H   UNL     1      34.613  -9.849 -24.244  0.00  0.00    +0.142 HD
ENDBRANCH  10  11
ENDBRANCH   4   5
ENDBRANCH   2   4
ENDBRANCH   1   2
BRANCH   1  14
ATOM     14  C   UNL     1      35.113 -17.860 -24.088  0.00  0.00    +0.025 C 
BRANCH  14  15
ATOM     15  C   UNL     1      34.631 -18.970 -23.161  0.00  0.00    -0.074 C 
BRANCH  15  16
ATOM     16  N   UNL     1      34.415 -18.447 -21.811  0.00  0.00    +0.387 N 
ATOM     17  H   UNL     1      33.469 -18.072 -21.755  0.00  0.00    -0.080 HD
BRANCH  16  18
ATOM     18  C   UNL     1      35.351 -17.366 -21.525  0.00  0.00    -0.077 C 
BRANCH  18  19
ATOM     19  C   UNL     1      34.692 -16.317 -20.629  0.00  0.00    -0.023 C 
BRANCH  19  20
ATOM     20  C   UNL     1      33.264 -16.019 -21.086  0.00  0.00    -0.002 C 
ATOM     21  C   UNL     1      32.751 -14.715 -20.497  0.00  0.00    -0.000 C 
ENDBRANCH  19  20
ENDBRANCH  18  19
ENDBRANCH  16  18
BRANCH  16  22
ATOM     22  C   UNL     1      34.549 -19.519 -20.823  0.00  0.00    -0.077 C 
BRANCH  22  23
ATOM     23  C   UNL     1      33.207 -20.219 -20.615  0.00  0.00    -0.023 C 
BRANCH  23  24
ATOM     24  C   UNL     1      33.280 -21.223 -19.464  0.00  0.00    -0.002 C 
ATOM     25  C   UNL     1      34.663 -21.847 -19.356  0.00  0.00    -0.000 C 
ENDBRANCH  23  24
ENDBRANCH  22  23
ENDBRANCH  16  22
ENDBRANCH  15  16
ENDBRANCH  14  15
ENDBRANCH   1  14
TORSDOF 13
ENDMDL
MODEL 9
REMARK VINA RESULT:      -7.5      2.831      4.488
REMARK  Name = 2480
REMARK  13 active torsions:
REMARK  status: ('A' for Active; 'I' for Inactive)
REMARK    1  A    between atoms: C_1  and  O_2
REMARK    2  A    between atoms: C_1  and  C_14
REMARK    3  A    between atoms: O_2  and  C_4
REMARK    4  A    between atoms: C_4  and  C_5
REMARK    5  A    between atoms: C_10  and  N_11
REMARK    6  A    between atoms: C_14  and  C_15
REMARK    7  A    between atoms: C_15  and  N_16
REMARK    8  A    between atoms: N_16  and  C_18
REMARK    9  A    between atoms: N_16  and  C_22
REMARK   10  A    between atoms: C_18  and  C_19
REMARK   11  A    between atoms: C_19  and  C_20
REMARK   12  A    between atoms: C_22  and  C_23
REMARK   13  A    between atoms: C_23  and  C_24
REMARK                            x       y       z     vdW  Elec       q    Type
REMARK                         _______ _______ _______ _____ _____    ______ ____
ROOT
ATOM      1  C   UNL     1      33.229 -13.882 -25.035  0.00  0.00    +0.207 C 
ENDROOT
BRANCH   1   2
ATOM      2  O   UNL     1      33.379 -14.999 -24.170  0.00  0.00    -0.446 OA
BRANCH   2   4
ATOM      3  O   UNL     1      34.353 -16.253 -25.836  0.00  0.00    -0.245 OA
ATOM      4  C   UNL     1      34.103 -16.043 -24.659  0.00  0.00    +0.341 C 
BRANCH   4   5
ATOM      5  C   UNL     1      34.567 -16.926 -23.558  0.00  0.00    +0.076 C 
ATOM      6  C   UNL     1      34.838 -18.250 -23.835  0.00  0.00    +0.008 C 
ATOM      7  C   UNL     1      34.710 -16.394 -22.293  0.00  0.00    +0.008 C 
ATOM      8  C   UNL     1      35.273 -19.079 -22.801  0.00  0.00    +0.014 C 
ATOM      9  C   UNL     1      35.145 -17.223 -21.259  0.00  0.00    +0.014 C 
ATOM     10  C   UNL     1      35.426 -18.566 -21.513  0.00  0.00    +0.042 C 
BRANCH  10  11
ATOM     11  N   UNL     1      35.866 -19.404 -20.467  0.00  0.00    -0.357 N 
ATOM     12  H   UNL     1      36.615 -19.123 -19.894  0.00  0.00    +0.142 HD
ATOM     13  H   UNL     1      35.423 -20.269 -20.310  0.00  0.00    +0.142 HD
ENDBRANCH  10  11
ENDBRANCH   4   5
ENDBRANCH   2   4
ENDBRANCH   1   2
BRANCH   1  14
ATOM     14  C   UNL     1      33.787 -12.645 -24.343  0.00  0.00    +0.025 C 
BRANCH  14  15
ATOM     15  C   UNL     1      32.893 -12.195 -23.193  0.00  0.00    -0.074 C 
BRANCH  15  16
ATOM     16  N   UNL     1      32.537 -10.784 -23.349  0.00  0.00    +0.387 N 
ATOM     17  H   UNL     1      31.901 -10.694 -24.141  0.00  0.00    -0.080 HD
BRANCH  16  18
ATOM     18  C   UNL     1      33.723  -9.983 -23.625  0.00  0.00    -0.077 C 
BRANCH  18  19
ATOM     19  C   UNL     1      33.505  -8.538 -23.176  0.00  0.00    -0.023 C 
BRANCH  19  20
ATOM     20  C   UNL     1      34.706  -7.661 -23.535  0.00  0.00    -0.002 C 
ATOM     21  C   UNL     1      34.379  -6.709 -24.673  0.00  0.00    -0.000 C 
ENDBRANCH  19  20
ENDBRANCH  18  19
ENDBRANCH  16  18
BRANCH  16  22
ATOM     22  C   UNL     1      31.855 -10.296 -22.148  0.00  0.00    -0.077 C 
BRANCH  22  23
ATOM     23  C   UNL     1      31.287 -11.468 -21.349  0.00  0.00    -0.023 C 
BRANCH  23  24
ATOM     24  C   UNL     1      31.395 -11.214 -19.845  0.00  0.00    -0.002 C 
ATOM     25  C   UNL     1      31.882  -9.803 -19.551  0.00  0.00    -0.000 C 
ENDBRANCH  23  24
ENDBRANCH  22  23
ENDBRANCH  16  22
ENDBRANCH  15  16
ENDBRANCH  14  15
ENDBRANCH   1  14
TORSDOF 13
ENDMDL
