MODEL 1
REMARK VINA RESULT:     -10.4      0.000      0.000
REMARK  Name = 9547901
REMARK  4 active torsions:
REMARK  status: ('A' for Active; 'I' for Inactive)
REMARK    1  A    between atoms: N_3  and  C_17
REMARK    2  A    between atoms: C_6  and  C_11
REMARK    3  A    between atoms: C_18  and  O_23
REMARK    4  A    between atoms: C_21  and  O_25
REMARK                            x       y       z     vdW  Elec       q    Type
REMARK                         _______ _______ _______ _____ _____    ______ ____
ROOT
ATOM      1  O   UNL     1      34.717 -24.474 -16.321  0.00  0.00    -0.252 OA
ATOM      2  O   UNL     1      33.663 -23.611 -18.744  0.00  0.00    -0.270 OA
ATOM      3  N   UNL     1      36.105 -22.861 -15.324  0.00  0.00    -0.265 N 
ATOM      4  N   UNL     1      35.089 -22.420 -17.341  0.00  0.00    -0.236 N 
ATOM      5  C   UNL     1      35.255 -23.370 -16.313  0.00  0.00    +0.310 C 
ATOM      6  C   UNL     1      34.309 -22.579 -18.500  0.00  0.00    +0.253 C 
ATOM      7  H   UNL     1      36.453 -21.953 -15.476  0.00  0.00    +0.157 HD
ATOM      8  H   UNL     1      35.566 -21.564 -17.238  0.00  0.00    +0.159 HD
ENDROOT
BRANCH   6  11
ATOM      9 CL   UNL     1      36.974 -21.548 -19.636  0.00  0.00    -0.082 Cl
ATOM     10  F   UNL     1      33.972 -18.230 -21.990  0.00  0.00    -0.204 F 
ATOM     11  C   UNL     1      34.258 -21.445 -19.415  0.00  0.00    +0.064 C 
ATOM     12  C   UNL     1      35.409 -20.904 -19.985  0.00  0.00    +0.064 C 
ATOM     13  C   UNL     1      33.009 -20.902 -19.715  0.00  0.00    +0.008 C 
ATOM     14  C   UNL     1      35.313 -19.817 -20.855  0.00  0.00    +0.041 C 
ATOM     15  C   UNL     1      32.912 -19.815 -20.585  0.00  0.00    +0.030 C 
ATOM     16  C   UNL     1      34.065 -19.273 -21.155  0.00  0.00    +0.141 C 
ENDBRANCH   6  11
BRANCH   3  17
ATOM     17  C   UNL     1      36.524 -23.496 -14.132  0.00  0.00    +0.089 C 
ATOM     18  C   UNL     1      37.791 -24.055 -14.052  0.00  0.00    +0.152 C 
ATOM     19  C   UNL     1      35.647 -23.547 -13.059  0.00  0.00    +0.054 C 
ATOM     20  C   UNL     1      38.191 -24.677 -12.869  0.00  0.00    +0.041 C 
ATOM     21  C   UNL     1      36.047 -24.169 -11.877  0.00  0.00    +0.135 C 
ATOM     22  C   UNL     1      37.318 -24.735 -11.782  0.00  0.00    +0.040 C 
BRANCH  18  23
ATOM     23  O   UNL     1      38.658 -24.008 -15.102  0.00  0.00    -0.470 OA
ATOM     24  C   UNL     1      39.684 -24.998 -15.138  0.00  0.00    +0.253 C 
ENDBRANCH  18  23
BRANCH  21  25
ATOM     25  O   UNL     1      35.196 -24.226 -10.816  0.00  0.00    -0.505 OA
ATOM     26  H   UNL     1      35.288 -24.906 -10.178  0.00  0.00    +0.292 HD
ENDBRANCH  21  25
ENDBRANCH   3  17
TORSDOF 4
ENDMDL
MODEL 2
REMARK VINA RESULT:     -10.3      3.940      5.257
REMARK  Name = 9547901
REMARK  4 active torsions:
REMARK  status: ('A' for Active; 'I' for Inactive)
REMARK    1  A    between atoms: N_3  and  C_17
REMARK    2  A    between atoms: C_6  and  C_11
REMARK    3  A    between atoms: C_18  and  O_23
REMARK    4  A    between atoms: C_21  and  O_25
REMARK                            x       y       z     vdW  Elec       q    Type
REMARK                         _______ _______ _______ _____ _____    ______ ____
ROOT
ATOM      1  O   UNL     1      33.426 -23.999 -17.791  0.00  0.00    -0.252 OA
ATOM      2  O   UNL     1      35.015 -22.727 -19.685  0.00  0.00    -0.270 OA
ATOM      3  N   UNL     1      31.693 -22.620 -17.007  0.00  0.00    -0.265 N 
ATOM      4  N   UNL     1      33.167 -21.831 -18.587  0.00  0.00    -0.236 N 
ATOM      5  C   UNL     1      32.813 -22.934 -17.784  0.00  0.00    +0.310 C 
ATOM      6  C   UNL     1      34.241 -21.774 -19.494  0.00  0.00    +0.253 C 
ATOM      7  H   UNL     1      31.324 -21.715 -17.123  0.00  0.00    +0.157 HD
ATOM      8  H   UNL     1      32.611 -21.023 -18.505  0.00  0.00    +0.159 HD
ENDROOT
BRANCH   6  11
ATOM      9 CL   UNL     1      37.105 -20.783 -20.014  0.00  0.00    -0.082 Cl
ATOM     10  F   UNL     1      34.705 -17.014 -22.380  0.00  0.00    -0.204 F 
ATOM     11  C   UNL     1      34.399 -20.536 -20.245  0.00  0.00    +0.064 C 
ATOM     12  C   UNL     1      35.654 -20.002 -20.534  0.00  0.00    +0.064 C 
ATOM     13  C   UNL     1      33.246 -19.880 -20.678  0.00  0.00    +0.008 C 
ATOM     14  C   UNL     1      35.758 -18.812 -21.255  0.00  0.00    +0.041 C 
ATOM     15  C   UNL     1      33.350 -18.691 -21.399  0.00  0.00    +0.030 C 
ATOM     16  C   UNL     1      34.606 -18.157 -21.688  0.00  0.00    +0.141 C 
ENDBRANCH   6  11
BRANCH   3  17
ATOM     17  C   UNL     1      31.026 -23.448 -16.073  0.00  0.00    +0.089 C 
ATOM     18  C   UNL     1      29.666 -23.682 -16.203  0.00  0.00    +0.152 C 
ATOM     19  C   UNL     1      31.758 -24.011 -15.039  0.00  0.00    +0.054 C 
ATOM     20  C   UNL     1      29.022 -24.502 -15.275  0.00  0.00    +0.041 C 
ATOM     21  C   UNL     1      31.115 -24.830 -14.112  0.00  0.00    +0.135 C 
ATOM     22  C   UNL     1      29.746 -25.075 -14.229  0.00  0.00    +0.040 C 
BRANCH  18  23
ATOM     23  O   UNL     1      28.941 -23.132 -17.217  0.00  0.00    -0.470 OA
ATOM     24  C   UNL     1      27.713 -22.498 -16.864  0.00  0.00    +0.253 C 
ENDBRANCH  18  23
BRANCH  21  25
ATOM     25  O   UNL     1      31.820 -25.389 -13.092  0.00  0.00    -0.505 OA
ATOM     26  H   UNL     1      31.834 -24.977 -12.251  0.00  0.00    +0.292 HD
ENDBRANCH  21  25
ENDBRANCH   3  17
TORSDOF 4
ENDMDL
MODEL 3
REMARK VINA RESULT:     -10.1     10.589     13.505
REMARK  Name = 9547901
REMARK  4 active torsions:
REMARK  status: ('A' for Active; 'I' for Inactive)
REMARK    1  A    between atoms: N_3  and  C_17
REMARK    2  A    between atoms: C_6  and  C_11
REMARK    3  A    between atoms: C_18  and  O_23
REMARK    4  A    between atoms: C_21  and  O_25
REMARK                            x       y       z     vdW  Elec       q    Type
REMARK                         _______ _______ _______ _____ _____    ______ ____
ROOT
ATOM      1  O   UNL     1      31.803 -13.909 -22.160  0.00  0.00    -0.252 OA
ATOM      2  O   UNL     1      30.742 -11.577 -21.081  0.00  0.00    -0.270 OA
ATOM      3  N   UNL     1      33.582 -13.484 -23.634  0.00  0.00    -0.265 N 
ATOM      4  N   UNL     1      32.510 -11.738 -22.588  0.00  0.00    -0.236 N 
ATOM      5  C   UNL     1      32.562 -13.138 -22.741  0.00  0.00    +0.310 C 
ATOM      6  C   UNL     1      31.612 -11.024 -21.774  0.00  0.00    +0.253 C 
ATOM      7  H   UNL     1      34.098 -12.737 -24.014  0.00  0.00    +0.157 HD
ATOM      8  H   UNL     1      33.164 -11.209 -23.100  0.00  0.00    +0.159 HD
ENDROOT
BRANCH   6  11
ATOM      9 CL   UNL     1      32.327  -9.723 -19.080  0.00  0.00    -0.082 Cl
ATOM     10  F   UNL     1      32.160  -5.465 -21.801  0.00  0.00    -0.204 F 
ATOM     11  C   UNL     1      31.764  -9.575 -21.745  0.00  0.00    +0.064 C 
ATOM     12  C   UNL     1      32.087  -8.889 -20.574  0.00  0.00    +0.064 C 
ATOM     13  C   UNL     1      31.576  -8.873 -22.935  0.00  0.00    +0.008 C 
ATOM     14  C   UNL     1      32.221  -7.501 -20.593  0.00  0.00    +0.041 C 
ATOM     15  C   UNL     1      31.710  -7.484 -22.954  0.00  0.00    +0.030 C 
ATOM     16  C   UNL     1      32.032  -6.799 -21.783  0.00  0.00    +0.141 C 
ENDBRANCH   6  11
BRANCH   3  17
ATOM     17  C   UNL     1      33.961 -14.780 -24.057  0.00  0.00    +0.089 C 
ATOM     18  C   UNL     1      33.491 -15.280 -25.262  0.00  0.00    +0.152 C 
ATOM     19  C   UNL     1      34.801 -15.527 -23.247  0.00  0.00    +0.054 C 
ATOM     20  C   UNL     1      33.873 -16.560 -25.666  0.00  0.00    +0.041 C 
ATOM     21  C   UNL     1      35.184 -16.805 -23.651  0.00  0.00    +0.135 C 
ATOM     22  C   UNL     1      34.719 -17.322 -24.860  0.00  0.00    +0.040 C 
BRANCH  18  23
ATOM     23  O   UNL     1      32.664 -14.551 -26.063  0.00  0.00    -0.470 OA
ATOM     24  C   UNL     1      33.282 -13.728 -27.051  0.00  0.00    +0.253 C 
ENDBRANCH  18  23
BRANCH  21  25
ATOM     25  O   UNL     1      36.008 -17.550 -22.865  0.00  0.00    -0.505 OA
ATOM     26  H   UNL     1      36.854 -17.801 -23.180  0.00  0.00    +0.292 HD
ENDBRANCH  21  25
ENDBRANCH   3  17
TORSDOF 4
ENDMDL
MODEL 4
REMARK VINA RESULT:      -9.9      1.306      2.318
REMARK  Name = 9547901
REMARK  4 active torsions:
REMARK  status: ('A' for Active; 'I' for Inactive)
REMARK    1  A    between atoms: N_3  and  C_17
REMARK    2  A    between atoms: C_6  and  C_11
REMARK    3  A    between atoms: C_18  and  O_23
REMARK    4  A    between atoms: C_21  and  O_25
REMARK                            x       y       z     vdW  Elec       q    Type
REMARK                         _______ _______ _______ _____ _____    ______ ____
ROOT
ATOM      1  O   UNL     1      34.543 -24.360 -16.629  0.00  0.00    -0.252 OA
ATOM      2  O   UNL     1      33.834 -23.517 -19.182  0.00  0.00    -0.270 OA
ATOM      3  N   UNL     1      35.494 -22.635 -15.349  0.00  0.00    -0.265 N 
ATOM      4  N   UNL     1      34.808 -22.225 -17.507  0.00  0.00    -0.236 N 
ATOM      5  C   UNL     1      34.914 -23.197 -16.492  0.00  0.00    +0.310 C 
ATOM      6  C   UNL     1      34.278 -22.424 -18.795  0.00  0.00    +0.253 C 
ATOM      7  H   UNL     1      35.736 -21.683 -15.410  0.00  0.00    +0.157 HD
ATOM      8  H   UNL     1      35.136 -21.322 -17.295  0.00  0.00    +0.159 HD
ENDROOT
BRANCH   6  11
ATOM      9 CL   UNL     1      36.952 -21.391 -19.909  0.00  0.00    -0.082 Cl
ATOM     10  F   UNL     1      33.984 -17.960 -22.141  0.00  0.00    -0.204 F 
ATOM     11  C   UNL     1      34.238 -21.261 -19.672  0.00  0.00    +0.064 C 
ATOM     12  C   UNL     1      35.394 -20.716 -20.230  0.00  0.00    +0.064 C 
ATOM     13  C   UNL     1      32.995 -20.691 -19.949  0.00  0.00    +0.008 C 
ATOM     14  C   UNL     1      35.309 -19.601 -21.064  0.00  0.00    +0.041 C 
ATOM     15  C   UNL     1      32.910 -19.576 -20.783  0.00  0.00    +0.030 C 
ATOM     16  C   UNL     1      34.067 -19.031 -21.340  0.00  0.00    +0.141 C 
ENDBRANCH   6  11
BRANCH   3  17
ATOM     17  C   UNL     1      35.774 -23.271 -14.117  0.00  0.00    +0.089 C 
ATOM     18  C   UNL     1      34.737 -23.760 -13.338  0.00  0.00    +0.152 C 
ATOM     19  C   UNL     1      37.095 -23.391 -13.714  0.00  0.00    +0.054 C 
ATOM     20  C   UNL     1      35.029 -24.386 -12.126  0.00  0.00    +0.041 C 
ATOM     21  C   UNL     1      37.387 -24.016 -12.503  0.00  0.00    +0.135 C 
ATOM     22  C   UNL     1      36.354 -24.513 -11.708  0.00  0.00    +0.040 C 
BRANCH  18  23
ATOM     23  O   UNL     1      33.437 -23.645 -13.728  0.00  0.00    -0.470 OA
ATOM     24  C   UNL     1      32.648 -24.833 -13.710  0.00  0.00    +0.253 C 
ENDBRANCH  18  23
BRANCH  21  25
ATOM     25  O   UNL     1      38.679 -24.141 -12.094  0.00  0.00    -0.505 OA
ATOM     26  H   UNL     1      38.912 -23.938 -11.210  0.00  0.00    +0.292 HD
ENDBRANCH  21  25
ENDBRANCH   3  17
TORSDOF 4
ENDMDL
MODEL 5
REMARK VINA RESULT:      -9.8      1.652      2.023
REMARK  Name = 9547901
REMARK  4 active torsions:
REMARK  status: ('A' for Active; 'I' for Inactive)
REMARK    1  A    between atoms: N_3  and  C_17
REMARK    2  A    between atoms: C_6  and  C_11
REMARK    3  A    between atoms: C_18  and  O_23
REMARK    4  A    between atoms: C_21  and  O_25
REMARK                            x       y       z     vdW  Elec       q    Type
REMARK                         _______ _______ _______ _____ _____    ______ ____
ROOT
ATOM      1  O   UNL     1      34.945 -23.978 -16.301  0.00  0.00    -0.252 OA
ATOM      2  O   UNL     1      34.117 -22.900 -18.726  0.00  0.00    -0.270 OA
ATOM      3  N   UNL     1      36.831 -22.880 -15.432  0.00  0.00    -0.265 N 
ATOM      4  N   UNL     1      35.921 -22.198 -17.432  0.00  0.00    -0.236 N 
ATOM      5  C   UNL     1      35.815 -23.113 -16.365  0.00  0.00    +0.310 C 
ATOM      6  C   UNL     1      35.077 -22.131 -18.555  0.00  0.00    +0.253 C 
ATOM      7  H   UNL     1      37.450 -22.144 -15.640  0.00  0.00    +0.157 HD
ATOM      8  H   UNL     1      36.656 -21.545 -17.387  0.00  0.00    +0.159 HD
ENDROOT
BRANCH   6  11
ATOM      9 CL   UNL     1      32.674 -20.757 -19.895  0.00  0.00    -0.082 Cl
ATOM     10  F   UNL     1      36.289 -18.114 -22.243  0.00  0.00    -0.204 F 
ATOM     11  C   UNL     1      35.357 -21.077 -19.522  0.00  0.00    +0.064 C 
ATOM     12  C   UNL     1      34.338 -20.392 -20.184  0.00  0.00    +0.064 C 
ATOM     13  C   UNL     1      36.691 -20.760 -19.778  0.00  0.00    +0.008 C 
ATOM     14  C   UNL     1      34.653 -19.391 -21.103  0.00  0.00    +0.041 C 
ATOM     15  C   UNL     1      37.005 -19.759 -20.698  0.00  0.00    +0.030 C 
ATOM     16  C   UNL     1      35.986 -19.075 -21.360  0.00  0.00    +0.141 C 
ENDBRANCH   6  11
BRANCH   3  17
ATOM     17  C   UNL     1      37.076 -23.576 -14.225  0.00  0.00    +0.089 C 
ATOM     18  C   UNL     1      37.379 -24.929 -14.254  0.00  0.00    +0.152 C 
ATOM     19  C   UNL     1      37.004 -22.880 -13.028  0.00  0.00    +0.054 C 
ATOM     20  C   UNL     1      37.618 -25.602 -13.055  0.00  0.00    +0.041 C 
ATOM     21  C   UNL     1      37.243 -23.553 -11.830  0.00  0.00    +0.135 C 
ATOM     22  C   UNL     1      37.549 -24.914 -11.843  0.00  0.00    +0.040 C 
BRANCH  18  23
ATOM     23  O   UNL     1      37.451 -25.618 -15.427  0.00  0.00    -0.470 OA
ATOM     24  C   UNL     1      36.839 -26.906 -15.459  0.00  0.00    +0.253 C 
ENDBRANCH  18  23
BRANCH  21  25
ATOM     25  O   UNL     1      37.176 -22.883 -10.647  0.00  0.00    -0.505 OA
ATOM     26  H   UNL     1      36.666 -22.101 -10.580  0.00  0.00    +0.292 HD
ENDBRANCH  21  25
ENDBRANCH   3  17
TORSDOF 4
ENDMDL
MODEL 6
REMARK VINA RESULT:      -9.7      8.889     12.334
REMARK  Name = 9547901
REMARK  4 active torsions:
REMARK  status: ('A' for Active; 'I' for Inactive)
REMARK    1  A    between atoms: N_3  and  C_17
REMARK    2  A    between atoms: C_6  and  C_11
REMARK    3  A    between atoms: C_18  and  O_23
REMARK    4  A    between atoms: C_21  and  O_25
REMARK                            x       y       z     vdW  Elec       q    Type
REMARK                         _______ _______ _______ _____ _____    ______ ____
ROOT
ATOM      1  O   UNL     1      32.418 -14.481 -22.654  0.00  0.00    -0.252 OA
ATOM      2  O   UNL     1      31.764 -11.779 -22.668  0.00  0.00    -0.270 OA
ATOM      3  N   UNL     1      34.610 -14.874 -23.406  0.00  0.00    -0.265 N 
ATOM      4  N   UNL     1      33.793 -12.725 -23.308  0.00  0.00    -0.236 N 
ATOM      5  C   UNL     1      33.501 -14.085 -23.078  0.00  0.00    +0.310 C 
ATOM      6  C   UNL     1      32.922 -11.642 -23.095  0.00  0.00    +0.253 C 
ATOM      7  H   UNL     1      35.402 -14.393 -23.735  0.00  0.00    +0.157 HD
ATOM      8  H   UNL     1      34.692 -12.514 -23.650  0.00  0.00    +0.159 HD
ENDROOT
BRANCH   6  11
ATOM      9 CL   UNL     1      31.773  -9.290 -21.481  0.00  0.00    -0.082 Cl
ATOM     10  F   UNL     1      35.034  -6.602 -24.256  0.00  0.00    -0.204 F 
ATOM     11  C   UNL     1      33.452 -10.312 -23.372  0.00  0.00    +0.064 C 
ATOM     12  C   UNL     1      32.998  -9.181 -22.694  0.00  0.00    +0.064 C 
ATOM     13  C   UNL     1      34.441 -10.191 -24.348  0.00  0.00    +0.008 C 
ATOM     14  C   UNL     1      33.532  -7.927 -22.993  0.00  0.00    +0.041 C 
ATOM     15  C   UNL     1      34.975  -8.937 -24.646  0.00  0.00    +0.030 C 
ATOM     16  C   UNL     1      34.521  -7.805 -23.968  0.00  0.00    +0.141 C 
ENDBRANCH   6  11
BRANCH   3  17
ATOM     17  C   UNL     1      34.727 -16.281 -23.320  0.00  0.00    +0.089 C 
ATOM     18  C   UNL     1      34.697 -17.051 -24.472  0.00  0.00    +0.152 C 
ATOM     19  C   UNL     1      34.869 -16.863 -22.069  0.00  0.00    +0.054 C 
ATOM     20  C   UNL     1      34.814 -18.438 -24.372  0.00  0.00    +0.041 C 
ATOM     21  C   UNL     1      34.987 -18.249 -21.969  0.00  0.00    +0.135 C 
ATOM     22  C   UNL     1      34.958 -19.037 -23.120  0.00  0.00    +0.040 C 
BRANCH  18  23
ATOM     23  O   UNL     1      34.556 -16.485 -25.704  0.00  0.00    -0.470 OA
ATOM     24  C   UNL     1      33.244 -16.077 -26.083  0.00  0.00    +0.253 C 
ENDBRANCH  18  23
BRANCH  21  25
ATOM     25  O   UNL     1      35.128 -18.834 -20.749  0.00  0.00    -0.505 OA
ATOM     26  H   UNL     1      35.304 -18.308 -19.994  0.00  0.00    +0.292 HD
ENDBRANCH  21  25
ENDBRANCH   3  17
TORSDOF 4
ENDMDL
MODEL 7
REMARK VINA RESULT:      -9.7      4.439      9.424
REMARK  Name = 9547901
REMARK  4 active torsions:
REMARK  status: ('A' for Active; 'I' for Inactive)
REMARK    1  A    between atoms: N_3  and  C_17
REMARK    2  A    between atoms: C_6  and  C_11
REMARK    3  A    between atoms: C_18  and  O_23
REMARK    4  A    between atoms: C_21  and  O_25
REMARK                            x       y       z     vdW  Elec       q    Type
REMARK                         _______ _______ _______ _____ _____    ______ ____
ROOT
ATOM      1  O   UNL     1      33.178 -20.045 -21.597  0.00  0.00    -0.252 OA
ATOM      2  O   UNL     1      33.263 -22.118 -19.746  0.00  0.00    -0.270 OA
ATOM      3  N   UNL     1      34.887 -18.469 -21.253  0.00  0.00    -0.265 N 
ATOM      4  N   UNL     1      34.713 -20.299 -19.870  0.00  0.00    -0.236 N 
ATOM      5  C   UNL     1      34.159 -19.633 -20.983  0.00  0.00    +0.310 C 
ATOM      6  C   UNL     1      34.247 -21.500 -19.305  0.00  0.00    +0.253 C 
ATOM      7  H   UNL     1      35.648 -18.285 -20.658  0.00  0.00    +0.157 HD
ATOM      8  H   UNL     1      35.499 -19.884 -19.449  0.00  0.00    +0.159 HD
ENDROOT
BRANCH   6  11
ATOM      9 CL   UNL     1      32.710 -23.174 -17.234  0.00  0.00    -0.082 Cl
ATOM     10  F   UNL     1      37.245 -23.449 -15.014  0.00  0.00    -0.204 F 
ATOM     11  C   UNL     1      34.998 -22.026 -18.173  0.00  0.00    +0.064 C 
ATOM     12  C   UNL     1      34.395 -22.796 -17.180  0.00  0.00    +0.064 C 
ATOM     13  C   UNL     1      36.361 -21.736 -18.100  0.00  0.00    +0.008 C 
ATOM     14  C   UNL     1      35.154 -23.277 -16.113  0.00  0.00    +0.041 C 
ATOM     15  C   UNL     1      37.120 -22.217 -17.033  0.00  0.00    +0.030 C 
ATOM     16  C   UNL     1      36.516 -22.988 -16.039  0.00  0.00    +0.141 C 
ENDBRANCH   6  11
BRANCH   3  17
ATOM     17  C   UNL     1      34.658 -17.524 -22.281  0.00  0.00    +0.089 C 
ATOM     18  C   UNL     1      34.238 -16.241 -21.963  0.00  0.00    +0.152 C 
ATOM     19  C   UNL     1      34.861 -17.908 -23.598  0.00  0.00    +0.054 C 
ATOM     20  C   UNL     1      34.017 -15.320 -22.987  0.00  0.00    +0.041 C 
ATOM     21  C   UNL     1      34.640 -16.988 -24.621  0.00  0.00    +0.135 C 
ATOM     22  C   UNL     1      34.218 -15.693 -24.316  0.00  0.00    +0.040 C 
BRANCH  18  23
ATOM     23  O   UNL     1      34.037 -15.857 -20.671  0.00  0.00    -0.470 OA
ATOM     24  C   UNL     1      32.902 -15.033 -20.410  0.00  0.00    +0.253 C 
ENDBRANCH  18  23
BRANCH  21  25
ATOM     25  O   UNL     1      34.835 -17.351 -25.918  0.00  0.00    -0.505 OA
ATOM     26  H   UNL     1      35.660 -17.189 -26.331  0.00  0.00    +0.292 HD
ENDBRANCH  21  25
ENDBRANCH   3  17
TORSDOF 4
ENDMDL
MODEL 8
REMARK VINA RESULT:      -9.7      4.471      9.376
REMARK  Name = 9547901
REMARK  4 active torsions:
REMARK  status: ('A' for Active; 'I' for Inactive)
REMARK    1  A    between atoms: N_3  and  C_17
REMARK    2  A    between atoms: C_6  and  C_11
REMARK    3  A    between atoms: C_18  and  O_23
REMARK    4  A    between atoms: C_21  and  O_25
REMARK                            x       y       z     vdW  Elec       q    Type
REMARK                         _______ _______ _______ _____ _____    ______ ____
ROOT
ATOM      1  O   UNL     1      36.557 -19.386 -21.502  0.00  0.00    -0.252 OA
ATOM      2  O   UNL     1      36.933 -21.500 -19.736  0.00  0.00    -0.270 OA
ATOM      3  N   UNL     1      34.413 -18.442 -21.324  0.00  0.00    -0.265 N 
ATOM      4  N   UNL     1      35.009 -20.211 -19.979  0.00  0.00    -0.236 N 
ATOM      5  C   UNL     1      35.439 -19.336 -20.997  0.00  0.00    +0.310 C 
ATOM      6  C   UNL     1      35.766 -21.244 -19.398  0.00  0.00    +0.253 C 
ATOM      7  H   UNL     1      33.574 -18.543 -20.821  0.00  0.00    +0.157 HD
ATOM      8  H   UNL     1      34.092 -20.088 -19.643  0.00  0.00    +0.159 HD
ENDROOT
BRANCH   6  11
ATOM      9 CL   UNL     1      37.353 -21.660 -16.797  0.00  0.00    -0.082 Cl
ATOM     10  F   UNL     1      33.199 -24.181 -15.399  0.00  0.00    -0.204 F 
ATOM     11  C   UNL     1      35.126 -22.005 -18.332  0.00  0.00    +0.064 C 
ATOM     12  C   UNL     1      35.760 -22.249 -17.115  0.00  0.00    +0.064 C 
ATOM     13  C   UNL     1      33.840 -22.496 -18.559  0.00  0.00    +0.008 C 
ATOM     14  C   UNL     1      35.110 -22.984 -16.124  0.00  0.00    +0.041 C 
ATOM     15  C   UNL     1      33.189 -23.230 -17.568  0.00  0.00    +0.030 C 
ATOM     16  C   UNL     1      33.825 -23.475 -16.350  0.00  0.00    +0.141 C 
ENDBRANCH   6  11
BRANCH   3  17
ATOM     17  C   UNL     1      34.439 -17.410 -22.291  0.00  0.00    +0.089 C 
ATOM     18  C   UNL     1      34.255 -16.092 -21.903  0.00  0.00    +0.152 C 
ATOM     19  C   UNL     1      34.649 -17.746 -23.620  0.00  0.00    +0.054 C 
ATOM     20  C   UNL     1      34.284 -15.084 -22.868  0.00  0.00    +0.041 C 
ATOM     21  C   UNL     1      34.678 -16.740 -24.584  0.00  0.00    +0.135 C 
ATOM     22  C   UNL     1      34.495 -15.408 -24.209  0.00  0.00    +0.040 C 
BRANCH  18  23
ATOM     23  O   UNL     1      34.048 -15.754 -20.599  0.00  0.00    -0.470 OA
ATOM     24  C   UNL     1      32.856 -15.033 -20.299  0.00  0.00    +0.253 C 
ENDBRANCH  18  23
BRANCH  21  25
ATOM     25  O   UNL     1      34.883 -17.055 -25.892  0.00  0.00    -0.505 OA
ATOM     26  H   UNL     1      34.169 -17.354 -26.419  0.00  0.00    +0.292 HD
ENDBRANCH  21  25
ENDBRANCH   3  17
TORSDOF 4
ENDMDL
MODEL 9
REMARK VINA RESULT:      -9.5      8.691     11.883
REMARK  Name = 9547901
REMARK  4 active torsions:
REMARK  status: ('A' for Active; 'I' for Inactive)
REMARK    1  A    between atoms: N_3  and  C_17
REMARK    2  A    between atoms: C_6  and  C_11
REMARK    3  A    between atoms: C_18  and  O_23
REMARK    4  A    between atoms: C_21  and  O_25
REMARK                            x       y       z     vdW  Elec       q    Type
REMARK                         _______ _______ _______ _____ _____    ______ ____
ROOT
ATOM      1  O   UNL     1      33.775 -15.044 -25.064  0.00  0.00    -0.252 OA
ATOM      2  O   UNL     1      33.315 -12.407 -25.812  0.00  0.00    -0.270 OA
ATOM      3  N   UNL     1      34.640 -15.218 -22.886  0.00  0.00    -0.265 N 
ATOM      4  N   UNL     1      34.159 -13.150 -23.773  0.00  0.00    -0.236 N 
ATOM      5  C   UNL     1      34.154 -14.540 -24.010  0.00  0.00    +0.310 C 
ATOM      6  C   UNL     1      33.743 -12.153 -24.674  0.00  0.00    +0.253 C 
ATOM      7  H   UNL     1      34.904 -14.657 -22.122  0.00  0.00    +0.157 HD
ATOM      8  H   UNL     1      34.483 -12.849 -22.894  0.00  0.00    +0.159 HD
ENDROOT
BRANCH   6  11
ATOM      9 CL   UNL     1      35.901 -10.328 -25.886  0.00  0.00    -0.082 Cl
ATOM     10  F   UNL     1      33.872  -6.904 -22.769  0.00  0.00    -0.204 F 
ATOM     11  C   UNL     1      33.805 -10.776 -24.201  0.00  0.00    +0.064 C 
ATOM     12  C   UNL     1      34.746  -9.869 -24.687  0.00  0.00    +0.064 C 
ATOM     13  C   UNL     1      32.885 -10.375 -23.231  0.00  0.00    +0.008 C 
ATOM     14  C   UNL     1      34.768  -8.561 -24.204  0.00  0.00    +0.041 C 
ATOM     15  C   UNL     1      32.908  -9.067 -22.748  0.00  0.00    +0.030 C 
ATOM     16  C   UNL     1      33.850  -8.160 -23.234  0.00  0.00    +0.141 C 
ENDBRANCH   6  11
BRANCH   3  17
ATOM     17  C   UNL     1      34.796 -16.614 -22.717  0.00  0.00    +0.089 C 
ATOM     18  C   UNL     1      35.006 -17.139 -21.451  0.00  0.00    +0.152 C 
ATOM     19  C   UNL     1      34.736 -17.432 -23.834  0.00  0.00    +0.054 C 
ATOM     20  C   UNL     1      35.158 -18.518 -21.300  0.00  0.00    +0.041 C 
ATOM     21  C   UNL     1      34.887 -18.810 -23.683  0.00  0.00    +0.135 C 
ATOM     22  C   UNL     1      35.099 -19.353 -22.416  0.00  0.00    +0.040 C 
BRANCH  18  23
ATOM     23  O   UNL     1      35.067 -16.341 -20.348  0.00  0.00    -0.470 OA
ATOM     24  C   UNL     1      34.023 -15.383 -20.185  0.00  0.00    +0.253 C 
ENDBRANCH  18  23
BRANCH  21  25
ATOM     25  O   UNL     1      34.830 -19.625 -24.771  0.00  0.00    -0.505 OA
ATOM     26  H   UNL     1      35.444 -20.326 -24.864  0.00  0.00    +0.292 HD
ENDBRANCH  21  25
ENDBRANCH   3  17
TORSDOF 4
ENDMDL
