MODEL 1
REMARK VINA RESULT:      -6.9      0.000      0.000
REMARK  Name = 158397
REMARK  5 active torsions:
REMARK  status: ('A' for Active; 'I' for Inactive)
REMARK    1  A    between atoms: C_1  and  C_5
REMARK    2  A    between atoms: C_1  and  CA_10
REMARK    3  A    between atoms: CA_10  and  N_11
REMARK    4  A    between atoms: CA_10  and  C_16
REMARK    5  A    between atoms: C_16  and  O_17
REMARK                            x       y       z     vdW  Elec       q    Type
REMARK                         _______ _______ _______ _____ _____    ______ ____
ROOT
ATOM      1  C   UNL     1      38.151 -26.009 -13.538  0.00  0.00    +0.023 C 
ENDROOT
BRANCH   1   5
ATOM      2  O   UNL     1      34.808 -24.306 -13.358  0.00  0.00    -0.381 OA
ATOM      3  O   UNL     1      36.161 -26.469 -15.722  0.00  0.00    -0.265 OA
ATOM      4  N   UNL     1      34.728 -25.041 -14.560  0.00  0.00    -0.184 N 
ATOM      5  C   UNL     1      36.790 -25.443 -13.661  0.00  0.00    +0.067 A 
ATOM      6  C   UNL     1      36.081 -24.612 -12.895  0.00  0.00    +0.151 A 
ATOM      7  C   UNL     1      35.890 -25.738 -14.784  0.00  0.00    +0.284 A 
ATOM      8  C   UNL     1      36.474 -23.972 -11.611  0.00  0.00    +0.075 C 
ATOM      9  H   UNL     1      33.945 -25.053 -15.156  0.00  0.00    +0.211 HD
ENDBRANCH   1   5
BRANCH   1  10
ATOM     10  CA  UNL     1      39.222 -25.144 -14.230  0.00  0.00    +0.040 C 
BRANCH  10  11
ATOM     11  N   UNL     1      38.658 -24.448 -15.386  0.00  0.00    +0.389 N 
ATOM     12  H1  UNL     1      38.465 -25.122 -16.127  0.00  0.00    -0.088 HD
ATOM     13  H2  UNL     1      39.325 -23.753 -15.722  0.00  0.00    -0.088 HD
ATOM     14  H3  UNL     1      37.792 -23.984 -15.113  0.00  0.00    -0.088 HD
ENDBRANCH  10  11
BRANCH  10  16
ATOM     15  OXT UNL     1      41.184 -26.584 -14.059  0.00  0.00    -0.253 OA
ATOM     16  C   UNL     1      40.388 -25.966 -14.754  0.00  0.00    +0.293 C 
BRANCH  16  17
ATOM     17  O   UNL     1      40.455 -25.949 -16.112  0.00  0.00    -0.482 OA
ATOM     18  H   UNL     1      41.185 -25.546 -16.539  0.00  0.00    +0.295 HD
ENDBRANCH  16  17
ENDBRANCH  10  16
ENDBRANCH   1  10
TORSDOF 5
ENDMDL
MODEL 2
REMARK VINA RESULT:      -6.9      2.225      2.773
REMARK  Name = 158397
REMARK  5 active torsions:
REMARK  status: ('A' for Active; 'I' for Inactive)
REMARK    1  A    between atoms: C_1  and  C_5
REMARK    2  A    between atoms: C_1  and  CA_10
REMARK    3  A    between atoms: CA_10  and  N_11
REMARK    4  A    between atoms: CA_10  and  C_16
REMARK    5  A    between atoms: C_16  and  O_17
REMARK                            x       y       z     vdW  Elec       q    Type
REMARK                         _______ _______ _______ _____ _____    ______ ____
ROOT
ATOM      1  C   UNL     1      37.836 -24.029 -14.449  0.00  0.00    +0.023 C 
ENDROOT
BRANCH   1   5
ATOM      2  O   UNL     1      35.411 -23.847 -11.587  0.00  0.00    -0.381 OA
ATOM      3  O   UNL     1      38.854 -23.378 -11.713  0.00  0.00    -0.265 OA
ATOM      4  N   UNL     1      36.649 -23.556 -10.975  0.00  0.00    -0.184 N 
ATOM      5  C   UNL     1      37.060 -23.908 -13.195  0.00  0.00    +0.067 A 
ATOM      6  C   UNL     1      35.763 -24.043 -12.916  0.00  0.00    +0.151 A 
ATOM      7  C   UNL     1      37.666 -23.581 -11.898  0.00  0.00    +0.284 A 
ATOM      8  C   UNL     1      34.645 -24.374 -13.840  0.00  0.00    +0.075 C 
ATOM      9  H   UNL     1      36.766 -23.363 -10.017  0.00  0.00    +0.211 HD
ENDBRANCH   1   5
BRANCH   1  10
ATOM     10  CA  UNL     1      38.514 -25.405 -14.600  0.00  0.00    +0.040 C 
BRANCH  10  11
ATOM     11  N   UNL     1      38.397 -26.178 -13.365  0.00  0.00    +0.389 N 
ATOM     12  H1  UNL     1      38.150 -25.556 -12.595  0.00  0.00    -0.088 HD
ATOM     13  H2  UNL     1      39.287 -26.633 -13.163  0.00  0.00    -0.088 HD
ATOM     14  H3  UNL     1      37.671 -26.887 -13.476  0.00  0.00    -0.088 HD
ENDBRANCH  10  11
BRANCH  10  16
ATOM     15  OXT UNL     1      40.819 -24.717 -14.191  0.00  0.00    -0.253 OA
ATOM     16  C   UNL     1      40.000 -25.294 -14.895  0.00  0.00    +0.293 C 
BRANCH  16  17
ATOM     17  O   UNL     1      40.340 -25.926 -16.050  0.00  0.00    -0.482 OA
ATOM     18  H   UNL     1      39.687 -26.385 -16.542  0.00  0.00    +0.295 HD
ENDBRANCH  16  17
ENDBRANCH  10  16
ENDBRANCH   1  10
TORSDOF 5
ENDMDL
MODEL 3
REMARK VINA RESULT:      -6.7      2.095      4.841
REMARK  Name = 158397
REMARK  5 active torsions:
REMARK  status: ('A' for Active; 'I' for Inactive)
REMARK    1  A    between atoms: C_1  and  C_5
REMARK    2  A    between atoms: C_1  and  CA_10
REMARK    3  A    between atoms: CA_10  and  N_11
REMARK    4  A    between atoms: CA_10  and  C_16
REMARK    5  A    between atoms: C_16  and  O_17
REMARK                            x       y       z     vdW  Elec       q    Type
REMARK                         _______ _______ _______ _____ _____    ______ ____
ROOT
ATOM      1  C   UNL     1      36.621 -23.995 -13.637  0.00  0.00    +0.023 C 
ENDROOT
BRANCH   1   5
ATOM      2  O   UNL     1      38.819 -26.895 -14.566  0.00  0.00    -0.381 OA
ATOM      3  O   UNL     1      39.406 -24.120 -12.553  0.00  0.00    -0.265 OA
ATOM      4  N   UNL     1      39.649 -26.122 -13.726  0.00  0.00    -0.184 N 
ATOM      5  C   UNL     1      37.642 -25.038 -13.874  0.00  0.00    +0.067 A 
ATOM      6  C   UNL     1      37.640 -26.162 -14.593  0.00  0.00    +0.151 A 
ATOM      7  C   UNL     1      38.988 -25.000 -13.287  0.00  0.00    +0.284 A 
ATOM      8  C   UNL     1      36.541 -26.733 -15.417  0.00  0.00    +0.075 C 
ATOM      9  H   UNL     1      40.575 -26.355 -13.488  0.00  0.00    +0.211 HD
ENDBRANCH   1   5
BRANCH   1  10
ATOM     10  CA  UNL     1      35.519 -24.450 -12.661  0.00  0.00    +0.040 C 
BRANCH  10  11
ATOM     11  N   UNL     1      34.304 -23.660 -12.847  0.00  0.00    +0.389 N 
ATOM     12  H1  UNL     1      33.565 -24.255 -13.222  0.00  0.00    -0.088 HD
ATOM     13  H2  UNL     1      34.490 -22.897 -13.499  0.00  0.00    -0.088 HD
ATOM     14  H3  UNL     1      34.008 -23.275 -11.950  0.00  0.00    -0.088 HD
ENDBRANCH  10  11
BRANCH  10  16
ATOM     15  OXT UNL     1      36.744 -23.473 -10.790  0.00  0.00    -0.253 OA
ATOM     16  C   UNL     1      35.921 -24.279 -11.206  0.00  0.00    +0.293 C 
BRANCH  16  17
ATOM     17  O   UNL     1      35.250 -25.132 -10.387  0.00  0.00    -0.482 OA
ATOM     18  H   UNL     1      34.932 -24.832  -9.558  0.00  0.00    +0.295 HD
ENDBRANCH  16  17
ENDBRANCH  10  16
ENDBRANCH   1  10
TORSDOF 5
ENDMDL
MODEL 4
REMARK VINA RESULT:      -6.7      1.962      4.096
REMARK  Name = 158397
REMARK  5 active torsions:
REMARK  status: ('A' for Active; 'I' for Inactive)
REMARK    1  A    between atoms: C_1  and  C_5
REMARK    2  A    between atoms: C_1  and  CA_10
REMARK    3  A    between atoms: CA_10  and  N_11
REMARK    4  A    between atoms: CA_10  and  C_16
REMARK    5  A    between atoms: C_16  and  O_17
REMARK                            x       y       z     vdW  Elec       q    Type
REMARK                         _______ _______ _______ _____ _____    ______ ____
ROOT
ATOM      1  C   UNL     1      37.196 -23.474 -13.821  0.00  0.00    +0.023 C 
ENDROOT
BRANCH   1   5
ATOM      2  O   UNL     1      37.859 -27.046 -14.775  0.00  0.00    -0.381 OA
ATOM      3  O   UNL     1      34.979 -25.108 -14.987  0.00  0.00    -0.265 OA
ATOM      4  N   UNL     1      36.500 -26.872 -15.113  0.00  0.00    -0.184 N 
ATOM      5  C   UNL     1      37.242 -24.885 -14.261  0.00  0.00    +0.067 A 
ATOM      6  C   UNL     1      38.213 -25.801 -14.273  0.00  0.00    +0.151 A 
ATOM      7  C   UNL     1      36.085 -25.595 -14.823  0.00  0.00    +0.284 A 
ATOM      8  C   UNL     1      39.623 -25.662 -13.820  0.00  0.00    +0.075 C 
ATOM      9  H   UNL     1      35.927 -27.572 -15.502  0.00  0.00    +0.211 HD
ENDBRANCH   1   5
BRANCH   1  10
ATOM     10  CA  UNL     1      36.920 -23.328 -12.312  0.00  0.00    +0.040 C 
BRANCH  10  11
ATOM     11  N   UNL     1      38.074 -23.767 -11.529  0.00  0.00    +0.389 N 
ATOM     12  H1  UNL     1      38.929 -23.401 -11.949  0.00  0.00    -0.088 HD
ATOM     13  H2  UNL     1      38.110 -24.787 -11.518  0.00  0.00    -0.088 HD
ATOM     14  H3  UNL     1      37.988 -23.420 -10.574  0.00  0.00    -0.088 HD
ENDBRANCH  10  11
BRANCH  10  16
ATOM     15  OXT UNL     1      35.829 -25.187 -11.169  0.00  0.00    -0.253 OA
ATOM     16  C   UNL     1      35.745 -24.173 -11.850  0.00  0.00    +0.293 C 
BRANCH  16  17
ATOM     17  O   UNL     1      34.555 -23.670 -12.276  0.00  0.00    -0.482 OA
ATOM     18  H   UNL     1      34.126 -24.049 -13.018  0.00  0.00    +0.295 HD
ENDBRANCH  16  17
ENDBRANCH  10  16
ENDBRANCH   1  10
TORSDOF 5
ENDMDL
MODEL 5
REMARK VINA RESULT:      -6.6      5.600      6.351
REMARK  Name = 158397
REMARK  5 active torsions:
REMARK  status: ('A' for Active; 'I' for Inactive)
REMARK    1  A    between atoms: C_1  and  C_5
REMARK    2  A    between atoms: C_1  and  CA_10
REMARK    3  A    between atoms: CA_10  and  N_11
REMARK    4  A    between atoms: CA_10  and  C_16
REMARK    5  A    between atoms: C_16  and  O_17
REMARK                            x       y       z     vdW  Elec       q    Type
REMARK                         _______ _______ _______ _____ _____    ______ ____
ROOT
ATOM      1  C   UNL     1      36.397 -21.911 -18.644  0.00  0.00    +0.023 C 
ENDROOT
BRANCH   1   5
ATOM      2  O   UNL     1      33.045 -21.059 -20.109  0.00  0.00    -0.381 OA
ATOM      3  O   UNL     1      33.996 -23.486 -17.807  0.00  0.00    -0.265 OA
ATOM      4  N   UNL     1      32.752 -22.135 -19.245  0.00  0.00    -0.184 N 
ATOM      5  C   UNL     1      34.998 -21.743 -19.093  0.00  0.00    +0.067 A 
ATOM      6  C   UNL     1      34.415 -20.900 -19.949  0.00  0.00    +0.151 A 
ATOM      7  C   UNL     1      33.888 -22.578 -18.614  0.00  0.00    +0.284 A 
ATOM      8  C   UNL     1      35.040 -19.815 -20.750  0.00  0.00    +0.075 C 
ATOM      9  H   UNL     1      31.853 -22.516 -19.112  0.00  0.00    +0.211 HD
ENDBRANCH   1   5
BRANCH   1  10
ATOM     10  CA  UNL     1      36.598 -21.529 -17.165  0.00  0.00    +0.040 C 
BRANCH  10  11
ATOM     11  N   UNL     1      37.589 -20.462 -17.035  0.00  0.00    +0.389 N 
ATOM     12  H1  UNL     1      37.374 -19.896 -16.214  0.00  0.00    -0.088 HD
ATOM     13  H2  UNL     1      37.567 -19.875 -17.868  0.00  0.00    -0.088 HD
ATOM     14  H3  UNL     1      38.517 -20.872 -16.932  0.00  0.00    -0.088 HD
ENDBRANCH  10  11
BRANCH  10  16
ATOM     15  OXT UNL     1      38.257 -22.821 -15.927  0.00  0.00    -0.253 OA
ATOM     16  C   UNL     1      37.107 -22.689 -16.326  0.00  0.00    +0.293 C 
BRANCH  16  17
ATOM     17  O   UNL     1      36.126 -23.590 -16.050  0.00  0.00    -0.482 OA
ATOM     18  H   UNL     1      35.374 -23.647 -16.607  0.00  0.00    +0.295 HD
ENDBRANCH  16  17
ENDBRANCH  10  16
ENDBRANCH   1  10
TORSDOF 5
ENDMDL
MODEL 6
REMARK VINA RESULT:      -6.4      6.022      8.883
REMARK  Name = 158397
REMARK  5 active torsions:
REMARK  status: ('A' for Active; 'I' for Inactive)
REMARK    1  A    between atoms: C_1  and  C_5
REMARK    2  A    between atoms: C_1  and  CA_10
REMARK    3  A    between atoms: CA_10  and  N_11
REMARK    4  A    between atoms: CA_10  and  C_16
REMARK    5  A    between atoms: C_16  and  O_17
REMARK                            x       y       z     vdW  Elec       q    Type
REMARK                         _______ _______ _______ _____ _____    ______ ____
ROOT
ATOM      1  C   UNL     1      30.093 -23.924 -15.935  0.00  0.00    +0.023 C 
ENDROOT
BRANCH   1   5
ATOM      2  O   UNL     1      33.629 -23.140 -14.943  0.00  0.00    -0.381 OA
ATOM      3  O   UNL     1      30.804 -23.817 -13.032  0.00  0.00    -0.265 OA
ATOM      4  N   UNL     1      32.980 -23.310 -13.702  0.00  0.00    -0.184 N 
ATOM      5  C   UNL     1      31.413 -23.636 -15.332  0.00  0.00    +0.067 A 
ATOM      6  C   UNL     1      32.607 -23.354 -15.857  0.00  0.00    +0.151 A 
ATOM      7  C   UNL     1      31.652 -23.609 -13.883  0.00  0.00    +0.284 A 
ATOM      8  C   UNL     1      32.985 -23.241 -17.291  0.00  0.00    +0.075 C 
ATOM      9  H   UNL     1      33.421 -23.226 -12.825  0.00  0.00    +0.211 HD
ENDBRANCH   1   5
BRANCH   1  10
ATOM     10  CA  UNL     1      29.268 -22.651 -16.199  0.00  0.00    +0.040 C 
BRANCH  10  11
ATOM     11  N   UNL     1      28.747 -22.101 -14.949  0.00  0.00    +0.389 N 
ATOM     12  H1  UNL     1      28.293 -21.207 -15.133  0.00  0.00    -0.088 HD
ATOM     13  H2  UNL     1      29.516 -21.964 -14.292  0.00  0.00    -0.088 HD
ATOM     14  H3  UNL     1      28.071 -22.751 -14.548  0.00  0.00    -0.088 HD
ENDBRANCH  10  11
BRANCH  10  16
ATOM     15  OXT UNL     1      27.742 -24.000 -17.542  0.00  0.00    -0.253 OA
ATOM     16  C   UNL     1      28.061 -22.910 -17.086  0.00  0.00    +0.293 C 
BRANCH  16  17
ATOM     17  O   UNL     1      27.348 -21.776 -17.323  0.00  0.00    -0.482 OA
ATOM     18  H   UNL     1      26.670 -21.777 -17.970  0.00  0.00    +0.295 HD
ENDBRANCH  16  17
ENDBRANCH  10  16
ENDBRANCH   1  10
TORSDOF 5
ENDMDL
MODEL 7
REMARK VINA RESULT:      -6.4     13.572     14.448
REMARK  Name = 158397
REMARK  5 active torsions:
REMARK  status: ('A' for Active; 'I' for Inactive)
REMARK    1  A    between atoms: C_1  and  C_5
REMARK    2  A    between atoms: C_1  and  CA_10
REMARK    3  A    between atoms: CA_10  and  N_11
REMARK    4  A    between atoms: CA_10  and  C_16
REMARK    5  A    between atoms: C_16  and  O_17
REMARK                            x       y       z     vdW  Elec       q    Type
REMARK                         _______ _______ _______ _____ _____    ______ ____
ROOT
ATOM      1  C   UNL     1      34.586 -15.223 -23.093  0.00  0.00    +0.023 C 
ENDROOT
BRANCH   1   5
ATOM      2  O   UNL     1      33.106 -15.952 -26.467  0.00  0.00    -0.381 OA
ATOM      3  O   UNL     1      32.894 -13.147 -24.424  0.00  0.00    -0.265 OA
ATOM      4  N   UNL     1      32.644 -14.648 -26.191  0.00  0.00    -0.184 N 
ATOM      5  C   UNL     1      33.914 -15.304 -24.409  0.00  0.00    +0.067 A 
ATOM      6  C   UNL     1      33.857 -16.258 -25.340  0.00  0.00    +0.151 A 
ATOM      7  C   UNL     1      33.102 -14.217 -24.970  0.00  0.00    +0.284 A 
ATOM      8  C   UNL     1      34.493 -17.602 -25.330  0.00  0.00    +0.075 C 
ATOM      9  H   UNL     1      32.071 -14.120 -26.793  0.00  0.00    +0.211 HD
ENDBRANCH   1   5
BRANCH   1  10
ATOM     10  CA  UNL     1      33.884 -16.068 -22.013  0.00  0.00    +0.040 C 
BRANCH  10  11
ATOM     11  N   UNL     1      32.747 -15.345 -21.447  0.00  0.00    +0.389 N 
ATOM     12  H1  UNL     1      32.432 -14.635 -22.109  0.00  0.00    -0.088 HD
ATOM     13  H2  UNL     1      33.028 -14.898 -20.575  0.00  0.00    -0.088 HD
ATOM     14  H3  UNL     1      31.986 -15.999 -21.264  0.00  0.00    -0.088 HD
ENDBRANCH  10  11
BRANCH  10  16
ATOM     15  OXT UNL     1      35.332 -17.487 -20.655  0.00  0.00    -0.253 OA
ATOM     16  C   UNL     1      34.800 -16.402 -20.847  0.00  0.00    +0.293 C 
BRANCH  16  17
ATOM     17  O   UNL     1      34.977 -15.339 -20.016  0.00  0.00    -0.482 OA
ATOM     18  H   UNL     1      34.813 -15.431 -19.098  0.00  0.00    +0.295 HD
ENDBRANCH  16  17
ENDBRANCH  10  16
ENDBRANCH   1  10
TORSDOF 5
ENDMDL
MODEL 8
REMARK VINA RESULT:      -6.4     13.527     14.602
REMARK  Name = 158397
REMARK  5 active torsions:
REMARK  status: ('A' for Active; 'I' for Inactive)
REMARK    1  A    between atoms: C_1  and  C_5
REMARK    2  A    between atoms: C_1  and  CA_10
REMARK    3  A    between atoms: CA_10  and  N_11
REMARK    4  A    between atoms: CA_10  and  C_16
REMARK    5  A    between atoms: C_16  and  O_17
REMARK                            x       y       z     vdW  Elec       q    Type
REMARK                         _______ _______ _______ _____ _____    ______ ____
ROOT
ATOM      1  C   UNL     1      33.981 -14.312 -23.182  0.00  0.00    +0.023 C 
ENDROOT
BRANCH   1   5
ATOM      2  O   UNL     1      34.088 -16.839 -25.958  0.00  0.00    -0.381 OA
ATOM      3  O   UNL     1      35.469 -16.873 -22.766  0.00  0.00    -0.265 OA
ATOM      4  N   UNL     1      34.840 -17.456 -24.936  0.00  0.00    -0.184 N 
ATOM      5  C   UNL     1      34.146 -15.431 -24.134  0.00  0.00    +0.067 A 
ATOM      6  C   UNL     1      33.717 -15.632 -25.382  0.00  0.00    +0.151 A 
ATOM      7  C   UNL     1      34.903 -16.652 -23.824  0.00  0.00    +0.284 A 
ATOM      8  C   UNL     1      32.894 -14.733 -26.234  0.00  0.00    +0.075 C 
ATOM      9  H   UNL     1      35.262 -18.342 -25.010  0.00  0.00    +0.211 HD
ENDBRANCH   1   5
BRANCH   1  10
ATOM     10  CA  UNL     1      32.793 -14.515 -22.223  0.00  0.00    +0.040 C 
BRANCH  10  11
ATOM     11  N   UNL     1      31.976 -13.305 -22.146  0.00  0.00    +0.389 N 
ATOM     12  H1  UNL     1      32.580 -12.484 -22.184  0.00  0.00    -0.088 HD
ATOM     13  H2  UNL     1      31.454 -13.303 -21.269  0.00  0.00    -0.088 HD
ATOM     14  H3  UNL     1      31.324 -13.285 -22.929  0.00  0.00    -0.088 HD
ENDBRANCH  10  11
BRANCH  10  16
ATOM     15  OXT UNL     1      32.483 -15.032 -19.859  0.00  0.00    -0.253 OA
ATOM     16  C   UNL     1      33.235 -14.824 -20.802  0.00  0.00    +0.293 C 
BRANCH  16  17
ATOM     17  O   UNL     1      34.589 -14.851 -20.683  0.00  0.00    -0.482 OA
ATOM     18  H   UNL     1      34.985 -14.810 -19.835  0.00  0.00    +0.295 HD
ENDBRANCH  16  17
ENDBRANCH  10  16
ENDBRANCH   1  10
TORSDOF 5
ENDMDL
MODEL 9
REMARK VINA RESULT:      -6.4      9.780     10.935
REMARK  Name = 158397
REMARK  5 active torsions:
REMARK  status: ('A' for Active; 'I' for Inactive)
REMARK    1  A    between atoms: C_1  and  C_5
REMARK    2  A    between atoms: C_1  and  CA_10
REMARK    3  A    between atoms: CA_10  and  N_11
REMARK    4  A    between atoms: CA_10  and  C_16
REMARK    5  A    between atoms: C_16  and  O_17
REMARK                            x       y       z     vdW  Elec       q    Type
REMARK                         _______ _______ _______ _____ _____    ______ ____
ROOT
ATOM      1  C   UNL     1      35.197 -19.357 -20.898  0.00  0.00    +0.023 C 
ENDROOT
BRANCH   1   5
ATOM      2  O   UNL     1      34.764 -16.869 -23.678  0.00  0.00    -0.381 OA
ATOM      3  O   UNL     1      35.097 -16.441 -20.242  0.00  0.00    -0.265 OA
ATOM      4  N   UNL     1      34.837 -16.054 -22.528  0.00  0.00    -0.184 N 
ATOM      5  C   UNL     1      35.035 -18.221 -21.831  0.00  0.00    +0.067 A 
ATOM      6  C   UNL     1      34.892 -18.149 -23.156  0.00  0.00    +0.151 A 
ATOM      7  C   UNL     1      34.999 -16.818 -21.398  0.00  0.00    +0.284 A 
ATOM      8  C   UNL     1      34.852 -19.259 -24.145  0.00  0.00    +0.075 C 
ATOM      9  H   UNL     1      34.779 -15.071 -22.536  0.00  0.00    +0.211 HD
ENDBRANCH   1   5
BRANCH   1  10
ATOM     10  CA  UNL     1      33.949 -20.259 -20.834  0.00  0.00    +0.040 C 
BRANCH  10  11
ATOM     11  N   UNL     1      32.751 -19.468 -20.562  0.00  0.00    +0.389 N 
ATOM     12  H1  UNL     1      33.022 -18.549 -20.210  0.00  0.00    -0.088 HD
ATOM     13  H2  UNL     1      32.180 -19.945 -19.864  0.00  0.00    -0.088 HD
ATOM     14  H3  UNL     1      32.214 -19.358 -21.422  0.00  0.00    -0.088 HD
ENDBRANCH  10  11
BRANCH  10  16
ATOM     15  OXT UNL     1      35.051 -21.591 -19.112  0.00  0.00    -0.253 OA
ATOM     16  C   UNL     1      34.035 -21.298 -19.728  0.00  0.00    +0.293 C 
BRANCH  16  17
ATOM     17  O   UNL     1      32.831 -21.881 -19.481  0.00  0.00    -0.482 OA
ATOM     18  H   UNL     1      32.578 -22.075 -18.600  0.00  0.00    +0.295 HD
ENDBRANCH  16  17
ENDBRANCH  10  16
ENDBRANCH   1  10
TORSDOF 5
ENDMDL
