MODEL 1
REMARK VINA RESULT:     -12.3      0.000      0.000
REMARK  Name = 71245288
REMARK  5 active torsions:
REMARK  status: ('A' for Active; 'I' for Inactive)
REMARK    1  A    between atoms: C_3  and  C_9
REMARK    2  A    between atoms: C_6  and  N_14
REMARK    3  A    between atoms: C_15  and  C_18
REMARK    4  A    between atoms: C_22  and  C_30
REMARK    5  A    between atoms: N_27  and  C_32
REMARK                            x       y       z     vdW  Elec       q    Type
REMARK                         _______ _______ _______ _____ _____    ______ ____
ROOT
ATOM      1  O   UNL     1      32.683 -14.685 -20.061  0.00  0.00    -0.270 OA
ATOM      2  N   UNL     1      32.838 -13.340 -21.978  0.00  0.00    -0.259 N 
ATOM      3  C   UNL     1      33.012 -14.524 -21.247  0.00  0.00    +0.253 C 
ATOM      4  H   UNL     1      33.150 -13.364 -22.911  0.00  0.00    +0.157 HD
ATOM      5  N   UNL     1      32.205 -11.091 -22.429  0.00  0.00    -0.388 NA
ATOM      6  C   UNL     1      31.660  -9.942 -21.973  0.00  0.00    +0.166 C 
ATOM      7  C   UNL     1      32.275 -12.114 -21.548  0.00  0.00    +0.167 C 
ATOM      8  C   UNL     1      31.182  -9.768 -20.684  0.00  0.00    +0.031 C 
ATOM      9  C   UNL     1      31.825 -12.042 -20.239  0.00  0.00    +0.101 C 
ATOM     10  C   UNL     1      31.269 -10.842 -19.807  0.00  0.00    -0.015 C 
ENDROOT
BRANCH   3  15
ATOM     11  F   UNL     1      33.197 -14.555 -24.049  0.00  0.00    -0.204 F 
ATOM     12  C   UNL     1      34.667 -17.806 -21.969  0.00  0.00    +0.046 C 
ATOM     13  C   UNL     1      34.736 -17.776 -23.362  0.00  0.00    -0.006 C 
ATOM     14  C   UNL     1      34.100 -16.737 -21.275  0.00  0.00    +0.021 C 
ATOM     15  C   UNL     1      33.602 -15.637 -21.973  0.00  0.00    +0.082 C 
ATOM     16  C   UNL     1      34.238 -16.677 -24.060  0.00  0.00    +0.027 C 
ATOM     17  C   UNL     1      35.336 -18.905 -24.136  0.00  0.00    +0.032 C 
ATOM     18  C   UNL     1      33.671 -15.607 -23.366  0.00  0.00    +0.144 C 
BRANCH  12  20
ATOM     19  N   UNL     1      36.593 -20.188 -20.169  0.00  0.00    -0.255 NA
ATOM     20  N   UNL     1      35.155 -18.888 -21.256  0.00  0.00    -0.282 N 
ATOM     21  C   UNL     1      35.351 -20.771 -20.189  0.00  0.00    +0.053 C 
ATOM     22  C   UNL     1      34.442 -19.984 -20.857  0.00  0.00    +0.134 C 
ATOM     23  C   UNL     1      36.441 -19.056 -20.820  0.00  0.00    +0.219 C 
BRANCH  21  24
ATOM     24  C   UNL     1      35.029 -22.119 -19.550  0.00  0.00    +0.037 C 
ATOM     25  C   UNL     1      33.686 -22.309 -18.908  0.00  0.00    +0.006 C 
ATOM     26  C   UNL     1      34.917 -22.199 -18.056  0.00  0.00    +0.006 C 
ENDBRANCH  21  24
ENDBRANCH  12  20
ENDBRANCH   3  15
BRANCH   6  30
ATOM     27  N   UNL     1      32.701  -8.335 -23.540  0.00  0.00    -0.252 N 
ATOM     28  N   UNL     1      30.519  -8.287 -23.386  0.00  0.00    -0.129 NA
ATOM     29  N   UNL     1      30.913  -7.329 -24.298  0.00  0.00    -0.128 NA
ATOM     30  C   UNL     1      31.605  -8.878 -22.942  0.00  0.00    +0.188 C 
ATOM     31  C   UNL     1      32.223  -7.373 -24.378  0.00  0.00    +0.192 C 
BRANCH  27  32
ATOM     32  C   UNL     1      34.088  -8.686 -23.346  0.00  0.00    +0.080 C 
ATOM     33  C   UNL     1      34.558  -9.713 -24.379  0.00  0.00    +0.022 C 
ATOM     34  C   UNL     1      34.989  -7.449 -23.359  0.00  0.00    +0.022 C 
ENDBRANCH  27  32
ENDBRANCH   6  30
TORSDOF 5
ENDMDL
MODEL 2
REMARK VINA RESULT:     -12.0      1.638     10.802
REMARK  Name = 71245288
REMARK  5 active torsions:
REMARK  status: ('A' for Active; 'I' for Inactive)
REMARK    1  A    between atoms: C_3  and  C_9
REMARK    2  A    between atoms: C_6  and  N_14
REMARK    3  A    between atoms: C_15  and  C_18
REMARK    4  A    between atoms: C_22  and  C_30
REMARK    5  A    between atoms: N_27  and  C_32
REMARK                            x       y       z     vdW  Elec       q    Type
REMARK                         _______ _______ _______ _____ _____    ______ ____
ROOT
ATOM      1  O   UNL     1      33.070 -14.280 -24.212  0.00  0.00    -0.270 OA
ATOM      2  N   UNL     1      33.787 -15.222 -22.186  0.00  0.00    -0.259 N 
ATOM      3  C   UNL     1      33.217 -14.217 -22.982  0.00  0.00    +0.253 C 
ATOM      4  H   UNL     1      33.837 -15.027 -21.223  0.00  0.00    +0.157 HD
ATOM      5  N   UNL     1      34.810 -17.300 -21.644  0.00  0.00    -0.388 NA
ATOM      6  C   UNL     1      35.289 -18.488 -22.075  0.00  0.00    +0.166 C 
ATOM      7  C   UNL     1      34.302 -16.478 -22.588  0.00  0.00    +0.167 C 
ATOM      8  C   UNL     1      35.283 -18.891 -23.401  0.00  0.00    +0.031 C 
ATOM      9  C   UNL     1      34.249 -16.788 -23.938  0.00  0.00    +0.101 C 
ATOM     10  C   UNL     1      34.752 -18.019 -24.344  0.00  0.00    -0.015 C 
ENDROOT
BRANCH   3  15
ATOM     11  F   UNL     1      32.185 -14.344 -20.373  0.00  0.00    -0.204 F 
ATOM     12  C   UNL     1      32.361 -10.652 -22.216  0.00  0.00    +0.046 C 
ATOM     13  C   UNL     1      31.856 -10.765 -20.920  0.00  0.00    -0.006 C 
ATOM     14  C   UNL     1      32.808 -11.787 -22.892  0.00  0.00    +0.021 C 
ATOM     15  C   UNL     1      32.750 -13.036 -22.274  0.00  0.00    +0.082 C 
ATOM     16  C   UNL     1      31.798 -12.014 -20.302  0.00  0.00    +0.027 C 
ATOM     17  C   UNL     1      31.368  -9.569 -20.167  0.00  0.00    +0.032 C 
ATOM     18  C   UNL     1      32.245 -13.149 -20.979  0.00  0.00    +0.144 C 
BRANCH  12  20
ATOM     19  N   UNL     1      33.302  -7.609 -23.789  0.00  0.00    -0.255 NA
ATOM     20  N   UNL     1      32.427  -9.422 -22.848  0.00  0.00    -0.282 N 
ATOM     21  C   UNL     1      31.932  -7.538 -23.812  0.00  0.00    +0.053 C 
ATOM     22  C   UNL     1      31.367  -8.650 -23.234  0.00  0.00    +0.134 C 
ATOM     23  C   UNL     1      33.568  -8.755 -23.203  0.00  0.00    +0.219 C 
BRANCH  21  24
ATOM     24  C   UNL     1      31.146  -6.372 -24.403  0.00  0.00    +0.037 C 
ATOM     25  C   UNL     1      31.902  -5.185 -24.924  0.00  0.00    +0.006 C 
ATOM     26  C   UNL     1      31.111  -5.073 -23.653  0.00  0.00    +0.006 C 
ENDBRANCH  21  24
ENDBRANCH  12  20
ENDBRANCH   3  15
BRANCH   6  30
ATOM     27  N   UNL     1      35.106 -20.300 -20.402  0.00  0.00    -0.252 N 
ATOM     28  N   UNL     1      37.045 -19.301 -20.562  0.00  0.00    -0.129 NA
ATOM     29  N   UNL     1      37.135 -20.274 -19.587  0.00  0.00    -0.128 NA
ATOM     30  C   UNL     1      35.821 -19.333 -21.038  0.00  0.00    +0.188 C 
ATOM     31  C   UNL     1      35.964 -20.862 -19.505  0.00  0.00    +0.192 C 
BRANCH  27  32
ATOM     32  C   UNL     1      33.728 -20.675 -20.614  0.00  0.00    +0.080 C 
ATOM     33  C   UNL     1      33.271 -21.733 -19.607  0.00  0.00    +0.022 C 
ATOM     34  C   UNL     1      32.803 -19.457 -20.583  0.00  0.00    +0.022 C 
ENDBRANCH  27  32
ENDBRANCH   6  30
TORSDOF 5
ENDMDL
MODEL 3
REMARK VINA RESULT:     -11.8      5.011     12.456
REMARK  Name = 71245288
REMARK  5 active torsions:
REMARK  status: ('A' for Active; 'I' for Inactive)
REMARK    1  A    between atoms: C_3  and  C_9
REMARK    2  A    between atoms: C_6  and  N_14
REMARK    3  A    between atoms: C_15  and  C_18
REMARK    4  A    between atoms: C_22  and  C_30
REMARK    5  A    between atoms: N_27  and  C_32
REMARK                            x       y       z     vdW  Elec       q    Type
REMARK                         _______ _______ _______ _____ _____    ______ ____
ROOT
ATOM      1  O   UNL     1      32.901 -21.793 -19.458  0.00  0.00    -0.270 OA
ATOM      2  N   UNL     1      34.541 -22.142 -17.816  0.00  0.00    -0.259 N 
ATOM      3  C   UNL     1      34.058 -21.644 -19.035  0.00  0.00    +0.253 C 
ATOM      4  H   UNL     1      35.484 -21.944 -17.616  0.00  0.00    +0.157 HD
ATOM      5  N   UNL     1      34.517 -23.276 -15.725  0.00  0.00    -0.388 NA
ATOM      6  C   UNL     1      33.816 -23.992 -14.818  0.00  0.00    +0.166 C 
ATOM      7  C   UNL     1      33.849 -22.895 -16.836  0.00  0.00    +0.167 C 
ATOM      8  C   UNL     1      32.484 -24.344 -14.970  0.00  0.00    +0.031 C 
ATOM      9  C   UNL     1      32.519 -23.195 -17.082  0.00  0.00    +0.101 C 
ATOM     10  C   UNL     1      31.830 -23.934 -16.126  0.00  0.00    -0.015 C 
ENDROOT
BRANCH   3  15
ATOM     11  F   UNL     1      36.836 -21.918 -18.726  0.00  0.00    -0.204 F 
ATOM     12  C   UNL     1      35.449 -19.230 -21.539  0.00  0.00    +0.046 C 
ATOM     13  C   UNL     1      36.821 -19.401 -21.349  0.00  0.00    -0.006 C 
ATOM     14  C   UNL     1      34.542 -19.967 -20.778  0.00  0.00    +0.021 C 
ATOM     15  C   UNL     1      35.007 -20.876 -19.827  0.00  0.00    +0.082 C 
ATOM     16  C   UNL     1      37.285 -20.309 -20.398  0.00  0.00    +0.027 C 
ATOM     17  C   UNL     1      37.820 -18.626 -22.147  0.00  0.00    +0.032 C 
ATOM     18  C   UNL     1      36.378 -21.047 -19.637  0.00  0.00    +0.144 C 
BRANCH  12  20
ATOM     19  N   UNL     1      34.258 -17.543 -24.429  0.00  0.00    -0.255 NA
ATOM     20  N   UNL     1      34.968 -18.333 -22.477  0.00  0.00    -0.282 N 
ATOM     21  C   UNL     1      34.227 -16.553 -23.479  0.00  0.00    +0.053 C 
ATOM     22  C   UNL     1      34.663 -17.019 -22.261  0.00  0.00    +0.134 C 
ATOM     23  C   UNL     1      34.708 -18.602 -23.793  0.00  0.00    +0.219 C 
BRANCH  21  24
ATOM     24  C   UNL     1      33.768 -15.123 -23.749  0.00  0.00    +0.037 C 
ATOM     25  C   UNL     1      34.245 -14.030 -22.838  0.00  0.00    +0.006 C 
ATOM     26  C   UNL     1      32.814 -14.479 -22.787  0.00  0.00    +0.006 C 
ENDBRANCH  21  24
ENDBRANCH  12  20
ENDBRANCH   3  15
BRANCH   6  30
ATOM     27  N   UNL     1      35.816 -24.908 -13.688  0.00  0.00    -0.252 N 
ATOM     28  N   UNL     1      34.161 -24.278 -12.403  0.00  0.00    -0.129 NA
ATOM     29  N   UNL     1      35.178 -24.756 -11.601  0.00  0.00    -0.128 NA
ATOM     30  C   UNL     1      34.563 -24.378 -13.650  0.00  0.00    +0.188 C 
ATOM     31  C   UNL     1      36.161 -25.129 -12.388  0.00  0.00    +0.192 C 
BRANCH  27  32
ATOM     32  C   UNL     1      36.631 -25.187 -14.845  0.00  0.00    +0.080 C 
ATOM     33  C   UNL     1      37.983 -24.473 -14.767  0.00  0.00    +0.022 C 
ATOM     34  C   UNL     1      36.821 -26.691 -15.051  0.00  0.00    +0.022 C 
ENDBRANCH  27  32
ENDBRANCH   6  30
TORSDOF 5
ENDMDL
MODEL 4
REMARK VINA RESULT:     -11.5      1.182      1.918
REMARK  Name = 71245288
REMARK  5 active torsions:
REMARK  status: ('A' for Active; 'I' for Inactive)
REMARK    1  A    between atoms: C_3  and  C_9
REMARK    2  A    between atoms: C_6  and  N_14
REMARK    3  A    between atoms: C_15  and  C_18
REMARK    4  A    between atoms: C_22  and  C_30
REMARK    5  A    between atoms: N_27  and  C_32
REMARK                            x       y       z     vdW  Elec       q    Type
REMARK                         _______ _______ _______ _____ _____    ______ ____
ROOT
ATOM      1  O   UNL     1      31.968 -14.604 -21.464  0.00  0.00    -0.270 OA
ATOM      2  N   UNL     1      33.235 -13.200 -22.852  0.00  0.00    -0.259 N 
ATOM      3  C   UNL     1      32.840 -14.440 -22.331  0.00  0.00    +0.253 C 
ATOM      4  H   UNL     1      33.942 -13.229 -23.537  0.00  0.00    +0.157 HD
ATOM      5  N   UNL     1      33.281 -10.841 -23.154  0.00  0.00    -0.388 NA
ATOM      6  C   UNL     1      32.789  -9.631 -22.805  0.00  0.00    +0.166 C 
ATOM      7  C   UNL     1      32.752 -11.910 -22.521  0.00  0.00    +0.167 C 
ATOM      8  C   UNL     1      31.795  -9.443 -21.858  0.00  0.00    +0.031 C 
ATOM      9  C   UNL     1      31.757 -11.829 -21.561  0.00  0.00    +0.101 C 
ATOM     10  C   UNL     1      31.275 -10.567 -21.228  0.00  0.00    -0.015 C 
ENDROOT
BRANCH   3  15
ATOM     11  F   UNL     1      33.175 -14.788 -25.098  0.00  0.00    -0.204 F 
ATOM     12  C   UNL     1      34.642 -17.715 -22.580  0.00  0.00    +0.046 C 
ATOM     13  C   UNL     1      34.785 -17.843 -23.962  0.00  0.00    -0.006 C 
ATOM     14  C   UNL     1      34.002 -16.597 -22.045  0.00  0.00    +0.021 C 
ATOM     15  C   UNL     1      33.506 -15.605 -22.892  0.00  0.00    +0.082 C 
ATOM     16  C   UNL     1      34.287 -16.853 -24.809  0.00  0.00    +0.027 C 
ATOM     17  C   UNL     1      35.463 -19.029 -24.569  0.00  0.00    +0.032 C 
ATOM     18  C   UNL     1      33.648 -15.734 -24.274  0.00  0.00    +0.144 C 
BRANCH  12  20
ATOM     19  N   UNL     1      36.500 -19.727 -20.319  0.00  0.00    -0.255 NA
ATOM     20  N   UNL     1      35.128 -18.687 -21.722  0.00  0.00    -0.282 N 
ATOM     21  C   UNL     1      35.366 -20.476 -20.512  0.00  0.00    +0.053 C 
ATOM     22  C   UNL     1      34.500 -19.852 -21.378  0.00  0.00    +0.134 C 
ATOM     23  C   UNL     1      36.325 -18.657 -21.061  0.00  0.00    +0.219 C 
BRANCH  21  24
ATOM     24  C   UNL     1      35.109 -21.825 -19.848  0.00  0.00    +0.037 C 
ATOM     25  C   UNL     1      33.947 -21.954 -18.907  0.00  0.00    +0.006 C 
ATOM     26  C   UNL     1      35.349 -21.959 -18.373  0.00  0.00    +0.006 C 
ENDBRANCH  21  24
ENDBRANCH  12  20
ENDBRANCH   3  15
BRANCH   6  30
ATOM     27  N   UNL     1      32.768  -7.313 -23.668  0.00  0.00    -0.252 N 
ATOM     28  N   UNL     1      34.565  -8.496 -24.066  0.00  0.00    -0.129 NA
ATOM     29  N   UNL     1      34.737  -7.243 -24.619  0.00  0.00    -0.128 NA
ATOM     30  C   UNL     1      33.379  -8.519 -23.502  0.00  0.00    +0.188 C 
ATOM     31  C   UNL     1      33.650  -6.548 -24.369  0.00  0.00    +0.192 C 
BRANCH  27  32
ATOM     32  C   UNL     1      31.463  -6.905 -23.207  0.00  0.00    +0.080 C 
ATOM     33  C   UNL     1      31.560  -5.949 -22.016  0.00  0.00    +0.022 C 
ATOM     34  C   UNL     1      30.636  -6.286 -24.336  0.00  0.00    +0.022 C 
ENDBRANCH  27  32
ENDBRANCH   6  30
TORSDOF 5
ENDMDL
MODEL 5
REMARK VINA RESULT:     -11.0      3.340      6.651
REMARK  Name = 71245288
REMARK  5 active torsions:
REMARK  status: ('A' for Active; 'I' for Inactive)
REMARK    1  A    between atoms: C_3  and  C_9
REMARK    2  A    between atoms: C_6  and  N_14
REMARK    3  A    between atoms: C_15  and  C_18
REMARK    4  A    between atoms: C_22  and  C_30
REMARK    5  A    between atoms: N_27  and  C_32
REMARK                            x       y       z     vdW  Elec       q    Type
REMARK                         _______ _______ _______ _____ _____    ______ ____
ROOT
ATOM      1  O   UNL     1      35.971 -20.604 -21.423  0.00  0.00    -0.270 OA
ATOM      2  N   UNL     1      34.460 -18.996 -20.624  0.00  0.00    -0.259 N 
ATOM      3  C   UNL     1      35.109 -20.239 -20.608  0.00  0.00    +0.253 C 
ATOM      4  H   UNL     1      33.798 -18.850 -19.911  0.00  0.00    +0.157 HD
ATOM      5  N   UNL     1      33.894 -16.805 -21.359  0.00  0.00    -0.388 NA
ATOM      6  C   UNL     1      34.093 -15.809 -22.251  0.00  0.00    +0.166 C 
ATOM      7  C   UNL     1      34.632 -17.924 -21.533  0.00  0.00    +0.167 C 
ATOM      8  C   UNL     1      34.991 -15.879 -23.304  0.00  0.00    +0.031 C 
ATOM      9  C   UNL     1      35.556 -18.092 -22.552  0.00  0.00    +0.101 C 
ATOM     10  C   UNL     1      35.733 -17.046 -23.451  0.00  0.00    -0.015 C 
ENDROOT
BRANCH   3  15
ATOM     11  F   UNL     1      32.504 -21.248 -20.323  0.00  0.00    -0.204 F 
ATOM     12  C   UNL     1      35.340 -22.377 -17.541  0.00  0.00    +0.046 C 
ATOM     13  C   UNL     1      34.032 -22.852 -17.441  0.00  0.00    -0.006 C 
ATOM     14  C   UNL     1      35.693 -21.518 -18.582  0.00  0.00    +0.021 C 
ATOM     15  C   UNL     1      34.738 -21.134 -19.524  0.00  0.00    +0.082 C 
ATOM     16  C   UNL     1      33.078 -22.468 -18.382  0.00  0.00    +0.027 C 
ATOM     17  C   UNL     1      33.621 -23.772 -16.337  0.00  0.00    +0.032 C 
ATOM     18  C   UNL     1      33.431 -21.610 -19.423  0.00  0.00    +0.144 C 
BRANCH  12  20
ATOM     19  N   UNL     1      38.219 -22.737 -15.492  0.00  0.00    -0.255 NA
ATOM     20  N   UNL     1      36.303 -22.745 -16.616  0.00  0.00    -0.282 N 
ATOM     21  C   UNL     1      37.397 -23.728 -15.017  0.00  0.00    +0.053 C 
ATOM     22  C   UNL     1      36.203 -23.752 -15.698  0.00  0.00    +0.134 C 
ATOM     23  C   UNL     1      37.531 -22.164 -16.454  0.00  0.00    +0.219 C 
BRANCH  21  24
ATOM     24  C   UNL     1      37.767 -24.675 -13.879  0.00  0.00    +0.037 C 
ATOM     25  C   UNL     1      39.131 -25.301 -13.880  0.00  0.00    +0.006 C 
ATOM     26  C   UNL     1      37.920 -26.136 -14.180  0.00  0.00    +0.006 C 
ENDBRANCH  21  24
ENDBRANCH  12  20
ENDBRANCH   3  15
BRANCH   6  30
ATOM     27  N   UNL     1      33.095 -13.660 -22.960  0.00  0.00    -0.252 N 
ATOM     28  N   UNL     1      32.633 -14.339 -20.932  0.00  0.00    -0.129 NA
ATOM     29  N   UNL     1      31.995 -13.134 -21.144  0.00  0.00    -0.128 NA
ATOM     30  C   UNL     1      33.288 -14.636 -22.031  0.00  0.00    +0.188 C 
ATOM     31  C   UNL     1      32.282 -12.743 -22.364  0.00  0.00    +0.192 C 
BRANCH  27  32
ATOM     32  C   UNL     1      33.625 -13.587 -24.300  0.00  0.00    +0.080 C 
ATOM     33  C   UNL     1      32.708 -14.285 -25.307  0.00  0.00    +0.022 C 
ATOM     34  C   UNL     1      33.896 -12.141 -24.720  0.00  0.00    +0.022 C 
ENDBRANCH  27  32
ENDBRANCH   6  30
TORSDOF 5
ENDMDL
MODEL 6
REMARK VINA RESULT:     -10.6      4.851      8.770
REMARK  Name = 71245288
REMARK  5 active torsions:
REMARK  status: ('A' for Active; 'I' for Inactive)
REMARK    1  A    between atoms: C_3  and  C_9
REMARK    2  A    between atoms: C_6  and  N_14
REMARK    3  A    between atoms: C_15  and  C_18
REMARK    4  A    between atoms: C_22  and  C_30
REMARK    5  A    between atoms: N_27  and  C_32
REMARK                            x       y       z     vdW  Elec       q    Type
REMARK                         _______ _______ _______ _____ _____    ______ ____
ROOT
ATOM      1  O   UNL     1      36.826 -21.539 -18.497  0.00  0.00    -0.270 OA
ATOM      2  N   UNL     1      35.092 -20.701 -19.839  0.00  0.00    -0.259 N 
ATOM      3  C   UNL     1      35.621 -21.454 -18.780  0.00  0.00    +0.253 C 
ATOM      4  H   UNL     1      34.113 -20.732 -19.939  0.00  0.00    +0.157 HD
ATOM      5  N   UNL     1      35.066 -19.257 -21.729  0.00  0.00    -0.388 NA
ATOM      6  C   UNL     1      35.768 -18.508 -22.608  0.00  0.00    +0.166 C 
ATOM      7  C   UNL     1      35.782 -19.903 -20.783  0.00  0.00    +0.167 C 
ATOM      8  C   UNL     1      37.147 -18.375 -22.585  0.00  0.00    +0.031 C 
ATOM      9  C   UNL     1      37.162 -19.835 -20.674  0.00  0.00    +0.101 C 
ATOM     10  C   UNL     1      37.850 -19.054 -21.597  0.00  0.00    -0.015 C 
ENDROOT
BRANCH   3  15
ATOM     11  F   UNL     1      32.963 -21.847 -19.598  0.00  0.00    -0.204 F 
ATOM     12  C   UNL     1      34.103 -23.335 -15.918  0.00  0.00    +0.046 C 
ATOM     13  C   UNL     1      32.793 -23.505 -16.368  0.00  0.00    -0.006 C 
ATOM     14  C   UNL     1      35.031 -22.660 -16.711  0.00  0.00    +0.021 C 
ATOM     15  C   UNL     1      34.650 -22.157 -17.955  0.00  0.00    +0.082 C 
ATOM     16  C   UNL     1      32.412 -23.001 -17.610  0.00  0.00    +0.027 C 
ATOM     17  C   UNL     1      31.774 -24.222 -15.542  0.00  0.00    +0.032 C 
ATOM     18  C   UNL     1      33.341 -22.327 -18.404  0.00  0.00    +0.144 C 
BRANCH  12  20
ATOM     19  N   UNL     1      34.416 -24.365 -12.533  0.00  0.00    -0.255 NA
ATOM     20  N   UNL     1      34.502 -23.828 -14.687  0.00  0.00    -0.282 N 
ATOM     21  C   UNL     1      35.629 -24.728 -13.062  0.00  0.00    +0.053 C 
ATOM     22  C   UNL     1      35.706 -24.405 -14.396  0.00  0.00    +0.134 C 
ATOM     23  C   UNL     1      33.761 -23.826 -13.537  0.00  0.00    +0.219 C 
BRANCH  21  24
ATOM     24  C   UNL     1      36.742 -25.402 -12.265  0.00  0.00    +0.037 C 
ATOM     25  C   UNL     1      37.972 -24.609 -11.933  0.00  0.00    +0.006 C 
ATOM     26  C   UNL     1      38.039 -25.707 -12.955  0.00  0.00    +0.006 C 
ENDBRANCH  21  24
ENDBRANCH  12  20
ENDBRANCH   3  15
BRANCH   6  30
ATOM     27  N   UNL     1      34.450 -16.587 -23.441  0.00  0.00    -0.252 N 
ATOM     28  N   UNL     1      34.627 -18.313 -24.774  0.00  0.00    -0.129 NA
ATOM     29  N   UNL     1      33.863 -17.351 -25.405  0.00  0.00    -0.128 NA
ATOM     30  C   UNL     1      34.968 -17.837 -23.599  0.00  0.00    +0.188 C 
ATOM     31  C   UNL     1      33.769 -16.324 -24.591  0.00  0.00    +0.192 C 
BRANCH  27  32
ATOM     32  C   UNL     1      34.581 -15.705 -22.306  0.00  0.00    +0.080 C 
ATOM     33  C   UNL     1      34.389 -14.240 -22.707  0.00  0.00    +0.022 C 
ATOM     34  C   UNL     1      33.622 -16.092 -21.179  0.00  0.00    +0.022 C 
ENDBRANCH  27  32
ENDBRANCH   6  30
TORSDOF 5
ENDMDL
MODEL 7
REMARK VINA RESULT:     -10.3      3.151     11.723
REMARK  Name = 71245288
REMARK  5 active torsions:
REMARK  status: ('A' for Active; 'I' for Inactive)
REMARK    1  A    between atoms: C_3  and  C_9
REMARK    2  A    between atoms: C_6  and  N_14
REMARK    3  A    between atoms: C_15  and  C_18
REMARK    4  A    between atoms: C_22  and  C_30
REMARK    5  A    between atoms: N_27  and  C_32
REMARK                            x       y       z     vdW  Elec       q    Type
REMARK                         _______ _______ _______ _____ _____    ______ ____
ROOT
ATOM      1  O   UNL     1      32.362 -20.502 -20.712  0.00  0.00    -0.270 OA
ATOM      2  N   UNL     1      34.495 -20.484 -19.735  0.00  0.00    -0.259 N 
ATOM      3  C   UNL     1      33.506 -20.031 -20.620  0.00  0.00    +0.253 C 
ATOM      4  H   UNL     1      35.357 -20.010 -19.778  0.00  0.00    +0.157 HD
ATOM      5  N   UNL     1      35.502 -21.804 -18.031  0.00  0.00    -0.388 NA
ATOM      6  C   UNL     1      35.380 -22.815 -17.143  0.00  0.00    +0.166 C 
ATOM      7  C   UNL     1      34.417 -21.535 -18.789  0.00  0.00    +0.167 C 
ATOM      8  C   UNL     1      34.227 -23.566 -16.977  0.00  0.00    +0.031 C 
ATOM      9  C   UNL     1      33.219 -22.226 -18.700  0.00  0.00    +0.101 C 
ATOM     10  C   UNL     1      33.130 -23.260 -17.774  0.00  0.00    -0.015 C 
ENDROOT
BRANCH   3  15
ATOM     11  F   UNL     1      35.210 -20.310 -22.835  0.00  0.00    -0.204 F 
ATOM     12  C   UNL     1      33.733 -16.549 -21.983  0.00  0.00    +0.046 C 
ATOM     13  C   UNL     1      34.583 -16.738 -23.073  0.00  0.00    -0.006 C 
ATOM     14  C   UNL     1      33.380 -17.632 -21.177  0.00  0.00    +0.021 C 
ATOM     15  C   UNL     1      33.877 -18.904 -21.462  0.00  0.00    +0.082 C 
ATOM     16  C   UNL     1      35.080 -18.009 -23.357  0.00  0.00    +0.027 C 
ATOM     17  C   UNL     1      34.982 -15.599 -23.956  0.00  0.00    +0.032 C 
ATOM     18  C   UNL     1      34.726 -19.092 -22.551  0.00  0.00    +0.144 C 
BRANCH  12  20
ATOM     19  N   UNL     1      32.671 -13.507 -20.488  0.00  0.00    -0.255 NA
ATOM     20  N   UNL     1      33.229 -15.295 -21.683  0.00  0.00    -0.282 N 
ATOM     21  C   UNL     1      32.317 -13.326 -21.802  0.00  0.00    +0.053 C 
ATOM     22  C   UNL     1      32.653 -14.421 -22.562  0.00  0.00    +0.134 C 
ATOM     23  C   UNL     1      33.217 -14.702 -20.451  0.00  0.00    +0.219 C 
BRANCH  21  24
ATOM     24  C   UNL     1      31.640 -12.069 -22.339  0.00  0.00    +0.037 C 
ATOM     25  C   UNL     1      32.116 -10.731 -21.854  0.00  0.00    +0.006 C 
ATOM     26  C   UNL     1      30.783 -11.260 -21.411  0.00  0.00    +0.006 C 
ENDBRANCH  21  24
ENDBRANCH  12  20
ENDBRANCH   3  15
BRANCH   6  30
ATOM     27  N   UNL     1      36.644 -24.040 -15.405  0.00  0.00    -0.252 N 
ATOM     28  N   UNL     1      37.699 -22.423 -16.435  0.00  0.00    -0.129 NA
ATOM     29  N   UNL     1      38.557 -22.984 -15.509  0.00  0.00    -0.128 NA
ATOM     30  C   UNL     1      36.558 -23.069 -16.356  0.00  0.00    +0.188 C 
ATOM     31  C   UNL     1      37.908 -23.951 -14.903  0.00  0.00    +0.192 C 
BRANCH  27  32
ATOM     32  C   UNL     1      35.628 -24.979 -14.996  0.00  0.00    +0.080 C 
ATOM     33  C   UNL     1      36.132 -26.423 -15.073  0.00  0.00    +0.022 C 
ATOM     34  C   UNL     1      35.098 -24.661 -13.596  0.00  0.00    +0.022 C 
ENDBRANCH  27  32
ENDBRANCH   6  30
TORSDOF 5
ENDMDL
MODEL 8
REMARK VINA RESULT:     -10.1      4.371      8.077
REMARK  Name = 71245288
REMARK  5 active torsions:
REMARK  status: ('A' for Active; 'I' for Inactive)
REMARK    1  A    between atoms: C_3  and  C_9
REMARK    2  A    between atoms: C_6  and  N_14
REMARK    3  A    between atoms: C_15  and  C_18
REMARK    4  A    between atoms: C_22  and  C_30
REMARK    5  A    between atoms: N_27  and  C_32
REMARK                            x       y       z     vdW  Elec       q    Type
REMARK                         _______ _______ _______ _____ _____    ______ ____
ROOT
ATOM      1  O   UNL     1      36.308 -21.734 -19.885  0.00  0.00    -0.270 OA
ATOM      2  N   UNL     1      34.623 -20.101 -19.933  0.00  0.00    -0.259 N 
ATOM      3  C   UNL     1      35.221 -21.287 -19.484  0.00  0.00    +0.253 C 
ATOM      4  H   UNL     1      33.757 -19.876 -19.522  0.00  0.00    +0.157 HD
ATOM      5  N   UNL     1      34.352 -18.096 -21.184  0.00  0.00    -0.388 NA
ATOM      6  C   UNL     1      34.848 -17.251 -22.115  0.00  0.00    +0.166 C 
ATOM      7  C   UNL     1      35.100 -19.186 -20.902  0.00  0.00    +0.167 C 
ATOM      8  C   UNL     1      36.052 -17.444 -22.774  0.00  0.00    +0.031 C 
ATOM      9  C   UNL     1      36.316 -19.469 -21.504  0.00  0.00    +0.101 C 
ATOM     10  C   UNL     1      36.794 -18.576 -22.458  0.00  0.00    -0.015 C 
ENDROOT
BRANCH   3  15
ATOM     11  F   UNL     1      32.424 -21.537 -19.508  0.00  0.00    -0.204 F 
ATOM     12  C   UNL     1      34.506 -23.305 -16.410  0.00  0.00    +0.046 C 
ATOM     13  C   UNL     1      33.115 -23.401 -16.465  0.00  0.00    -0.006 C 
ATOM     14  C   UNL     1      35.197 -22.610 -17.402  0.00  0.00    +0.021 C 
ATOM     15  C   UNL     1      34.498 -22.011 -18.451  0.00  0.00    +0.082 C 
ATOM     16  C   UNL     1      32.416 -22.802 -17.512  0.00  0.00    +0.027 C 
ATOM     17  C   UNL     1      32.344 -24.137 -15.417  0.00  0.00    +0.032 C 
ATOM     18  C   UNL     1      33.107 -22.108 -18.505  0.00  0.00    +0.144 C 
BRANCH  12  20
ATOM     19  N   UNL     1      36.364 -25.423 -14.247  0.00  0.00    -0.255 NA
ATOM     20  N   UNL     1      35.220 -23.892 -15.378  0.00  0.00    -0.282 N 
ATOM     21  C   UNL     1      36.244 -24.277 -13.501  0.00  0.00    +0.053 C 
ATOM     22  C   UNL     1      35.538 -23.313 -14.181  0.00  0.00    +0.134 C 
ATOM     23  C   UNL     1      35.737 -25.158 -15.371  0.00  0.00    +0.219 C 
BRANCH  21  24
ATOM     24  C   UNL     1      36.821 -24.105 -12.100  0.00  0.00    +0.037 C 
ATOM     25  C   UNL     1      37.527 -22.824 -11.764  0.00  0.00    +0.006 C 
ATOM     26  C   UNL     1      38.312 -24.092 -11.931  0.00  0.00    +0.006 C 
ENDBRANCH  21  24
ENDBRANCH  12  20
ENDBRANCH   3  15
BRANCH   6  30
ATOM     27  N   UNL     1      33.755 -15.636 -23.636  0.00  0.00    -0.252 N 
ATOM     28  N   UNL     1      33.416 -15.355 -21.493  0.00  0.00    -0.129 NA
ATOM     29  N   UNL     1      32.733 -14.368 -22.175  0.00  0.00    -0.128 NA
ATOM     30  C   UNL     1      34.022 -16.104 -22.386  0.00  0.00    +0.188 C 
ATOM     31  C   UNL     1      32.947 -14.554 -23.458  0.00  0.00    +0.192 C 
BRANCH  27  32
ATOM     32  C   UNL     1      34.214 -16.158 -24.900  0.00  0.00    +0.080 C 
ATOM     33  C   UNL     1      33.918 -17.654 -25.033  0.00  0.00    +0.022 C 
ATOM     34  C   UNL     1      33.625 -15.380 -26.079  0.00  0.00    +0.022 C 
ENDBRANCH  27  32
ENDBRANCH   6  30
TORSDOF 5
ENDMDL
MODEL 9
REMARK VINA RESULT:      -9.9      4.172     12.388
REMARK  Name = 71245288
REMARK  5 active torsions:
REMARK  status: ('A' for Active; 'I' for Inactive)
REMARK    1  A    between atoms: C_3  and  C_9
REMARK    2  A    between atoms: C_6  and  N_14
REMARK    3  A    between atoms: C_15  and  C_18
REMARK    4  A    between atoms: C_22  and  C_30
REMARK    5  A    between atoms: N_27  and  C_32
REMARK                            x       y       z     vdW  Elec       q    Type
REMARK                         _______ _______ _______ _____ _____    ______ ____
ROOT
ATOM      1  O   UNL     1      32.408 -20.999 -19.147  0.00  0.00    -0.270 OA
ATOM      2  N   UNL     1      34.441 -21.938 -18.444  0.00  0.00    -0.259 N 
ATOM      3  C   UNL     1      33.640 -21.105 -19.240  0.00  0.00    +0.253 C 
ATOM      4  H   UNL     1      35.406 -21.914 -18.636  0.00  0.00    +0.157 HD
ATOM      5  N   UNL     1      34.990 -23.526 -16.761  0.00  0.00    -0.388 NA
ATOM      6  C   UNL     1      34.561 -24.343 -15.773  0.00  0.00    +0.166 C 
ATOM      7  C   UNL     1      34.041 -22.809 -17.402  0.00  0.00    +0.167 C 
ATOM      8  C   UNL     1      33.234 -24.475 -15.398  0.00  0.00    +0.031 C 
ATOM      9  C   UNL     1      32.689 -22.869 -17.102  0.00  0.00    +0.101 C 
ATOM     10  C   UNL     1      32.286 -23.721 -16.080  0.00  0.00    -0.015 C 
ENDROOT
BRANCH   3  15
ATOM     11  F   UNL     1      35.756 -22.127 -20.779  0.00  0.00    -0.204 F 
ATOM     12  C   UNL     1      34.652 -18.190 -21.365  0.00  0.00    +0.046 C 
ATOM     13  C   UNL     1      35.697 -18.743 -22.106  0.00  0.00    -0.006 C 
ATOM     14  C   UNL     1      33.977 -18.967 -20.423  0.00  0.00    +0.021 C 
ATOM     15  C   UNL     1      34.347 -20.297 -20.223  0.00  0.00    +0.082 C 
ATOM     16  C   UNL     1      36.067 -20.072 -21.904  0.00  0.00    +0.027 C 
ATOM     17  C   UNL     1      36.442 -17.938 -23.122  0.00  0.00    +0.032 C 
ATOM     18  C   UNL     1      35.391 -20.849 -20.963  0.00  0.00    +0.144 C 
BRANCH  12  20
ATOM     19  N   UNL     1      34.003 -14.705 -21.137  0.00  0.00    -0.255 NA
ATOM     20  N   UNL     1      34.269 -16.872 -21.549  0.00  0.00    -0.282 N 
ATOM     21  C   UNL     1      33.457 -15.025 -22.355  0.00  0.00    +0.053 C 
ATOM     22  C   UNL     1      33.609 -16.363 -22.632  0.00  0.00    +0.134 C 
ATOM     23  C   UNL     1      34.484 -15.839 -20.678  0.00  0.00    +0.219 C 
BRANCH  21  24
ATOM     24  C   UNL     1      32.771 -14.019 -23.274  0.00  0.00    +0.037 C 
ATOM     25  C   UNL     1      33.502 -12.759 -23.635  0.00  0.00    +0.006 C 
ATOM     26  C   UNL     1      32.327 -12.706 -22.702  0.00  0.00    +0.006 C 
ENDBRANCH  21  24
ENDBRANCH  12  20
ENDBRANCH   3  15
BRANCH   6  30
ATOM     27  N   UNL     1      36.183 -24.715 -13.943  0.00  0.00    -0.252 N 
ATOM     28  N   UNL     1      36.135 -26.214 -15.536  0.00  0.00    -0.129 NA
ATOM     29  N   UNL     1      37.092 -26.588 -14.613  0.00  0.00    -0.128 NA
ATOM     30  C   UNL     1      35.602 -25.089 -15.116  0.00  0.00    +0.188 C 
ATOM     31  C   UNL     1      37.106 -25.678 -13.666  0.00  0.00    +0.192 C 
BRANCH  27  32
ATOM     32  C   UNL     1      35.899 -23.550 -13.140  0.00  0.00    +0.080 C 
ATOM     33  C   UNL     1      34.881 -23.860 -12.039  0.00  0.00    +0.022 C 
ATOM     34  C   UNL     1      37.176 -22.949 -12.548  0.00  0.00    +0.022 C 
ENDBRANCH  27  32
ENDBRANCH   6  30
TORSDOF 5
ENDMDL
