MODEL 1
REMARK VINA RESULT:      -8.7      0.000      0.000
REMARK  Name = 4832
REMARK  7 active torsions:
REMARK  status: ('A' for Active; 'I' for Inactive)
REMARK    1  A    between atoms: C_1  and  C_2
REMARK    2  A    between atoms: C_1  and  C_8
REMARK    3  A    between atoms: C_1  and  O_14
REMARK    4  A    between atoms: C_1  and  C_17
REMARK    5  A    between atoms: C_17  and  O_18
REMARK    6  A    between atoms: O_18  and  C_22
REMARK    7  A    between atoms: N_19  and  C_26
REMARK                            x       y       z     vdW  Elec       q    Type
REMARK                         _______ _______ _______ _____ _____    ______ ____
ROOT
ATOM      1  C   UNL     1      32.896 -13.978 -22.407  0.00  0.00    +0.216 C 
ENDROOT
BRANCH   1   2
ATOM      2  C   UNL     1      33.156 -13.559 -23.856  0.00  0.00    +0.016 C 
ATOM      3  C   UNL     1      33.736 -12.334 -24.094  0.00  0.00    -0.001 C 
ATOM      4  C   UNL     1      32.797 -14.423 -24.864  0.00  0.00    -0.001 C 
ATOM      5  C   UNL     1      33.972 -11.953 -25.414  0.00  0.00    -0.000 C 
ATOM      6  C   UNL     1      33.033 -14.041 -26.186  0.00  0.00    -0.000 C 
ATOM      7  C   UNL     1      33.620 -12.806 -26.461  0.00  0.00    -0.000 C 
ENDBRANCH   1   2
BRANCH   1   8
ATOM      8  C   UNL     1      32.249 -12.838 -21.617  0.00  0.00    +0.016 C 
ATOM      9  C   UNL     1      31.650 -11.813 -22.312  0.00  0.00    -0.001 C 
ATOM     10  C   UNL     1      32.292 -12.882 -20.242  0.00  0.00    -0.001 C 
ATOM     11  C   UNL     1      31.061 -10.773 -21.592  0.00  0.00    -0.000 C 
ATOM     12  C   UNL     1      31.703 -11.842 -19.522  0.00  0.00    -0.000 C 
ATOM     13  C   UNL     1      31.087 -10.788 -20.196  0.00  0.00    -0.000 C 
ENDBRANCH   1   8
BRANCH   1  14
ATOM     14  O   UNL     1      32.044 -15.140 -22.368  0.00  0.00    -0.370 OA
ATOM     15  H   UNL     1      32.048 -15.573 -23.236  0.00  0.00    +0.212 HD
ENDBRANCH   1  14
BRANCH   1  17
ATOM     16  O   UNL     1      35.001 -13.906 -21.159  0.00  0.00    -0.247 OA
ATOM     17  C   UNL     1      34.122 -14.565 -21.700  0.00  0.00    +0.349 C 
BRANCH  17  18
ATOM     18  O   UNL     1      34.082 -15.936 -21.724  0.00  0.00    -0.452 OA
BRANCH  18  22
ATOM     19  N   UNL     1      34.633 -18.994 -21.494  0.00  0.00    +0.391 N 
ATOM     20  C   UNL     1      35.527 -17.790 -21.150  0.00  0.00    -0.029 C 
ATOM     21  C   UNL     1      34.705 -19.332 -22.985  0.00  0.00    -0.073 C 
ATOM     22  C   UNL     1      35.301 -16.588 -22.066  0.00  0.00    +0.149 C 
ATOM     23  C   UNL     1      34.390 -18.122 -23.855  0.00  0.00    -0.019 C 
ATOM     24  C   UNL     1      35.318 -16.957 -23.545  0.00  0.00    +0.039 C 
ATOM     25  C   UNL     1      33.186 -18.777 -21.048  0.00  0.00    -0.096 C 
BRANCH  19  26
ATOM     26  C   UNL     1      35.161 -20.206 -20.709  0.00  0.00    -0.073 C 
ATOM     27  C   UNL     1      34.015 -20.860 -19.971  0.00  0.00    -0.024 C 
ENDBRANCH  19  26
ENDBRANCH  18  22
ENDBRANCH  17  18
ENDBRANCH   1  17
TORSDOF 7
ENDMDL
MODEL 2
REMARK VINA RESULT:      -8.5      9.115     12.458
REMARK  Name = 4832
REMARK  7 active torsions:
REMARK  status: ('A' for Active; 'I' for Inactive)
REMARK    1  A    between atoms: C_1  and  C_2
REMARK    2  A    between atoms: C_1  and  C_8
REMARK    3  A    between atoms: C_1  and  O_14
REMARK    4  A    between atoms: C_1  and  C_17
REMARK    5  A    between atoms: C_17  and  O_18
REMARK    6  A    between atoms: O_18  and  C_22
REMARK    7  A    between atoms: N_19  and  C_26
REMARK                            x       y       z     vdW  Elec       q    Type
REMARK                         _______ _______ _______ _____ _____    ______ ____
ROOT
ATOM      1  C   UNL     1      34.181 -23.471 -15.549  0.00  0.00    +0.216 C 
ENDROOT
BRANCH   1   2
ATOM      2  C   UNL     1      32.670 -23.630 -15.361  0.00  0.00    +0.016 C 
ATOM      3  C   UNL     1      31.825 -22.893 -16.159  0.00  0.00    -0.001 C 
ATOM      4  C   UNL     1      32.215 -24.502 -14.399  0.00  0.00    -0.001 C 
ATOM      5  C   UNL     1      30.449 -23.037 -15.987  0.00  0.00    -0.000 C 
ATOM      6  C   UNL     1      30.838 -24.647 -14.227  0.00  0.00    -0.000 C 
ATOM      7  C   UNL     1      29.955 -23.915 -15.021  0.00  0.00    -0.000 C 
ENDBRANCH   1   2
BRANCH   1   8
ATOM      8  C   UNL     1      34.504 -22.946 -16.950  0.00  0.00    +0.016 C 
ATOM      9  C   UNL     1      35.680 -22.258 -17.140  0.00  0.00    -0.001 C 
ATOM     10  C   UNL     1      33.605 -23.181 -17.965  0.00  0.00    -0.001 C 
ATOM     11  C   UNL     1      35.975 -21.778 -18.417  0.00  0.00    -0.000 C 
ATOM     12  C   UNL     1      33.900 -22.702 -19.242  0.00  0.00    -0.000 C 
ATOM     13  C   UNL     1      35.084 -22.001 -19.468  0.00  0.00    -0.000 C 
ENDBRANCH   1   8
BRANCH   1  14
ATOM     14  O   UNL     1      34.715 -22.570 -14.558  0.00  0.00    -0.370 OA
ATOM     15  H   UNL     1      34.565 -22.937 -13.673  0.00  0.00    +0.212 HD
ENDBRANCH   1  14
BRANCH   1  17
ATOM     16  O   UNL     1      35.058 -25.733 -15.873  0.00  0.00    -0.247 OA
ATOM     17  C   UNL     1      34.987 -24.721 -15.186  0.00  0.00    +0.349 C 
BRANCH  17  18
ATOM     18  O   UNL     1      35.653 -24.538 -14.001  0.00  0.00    -0.452 OA
BRANCH  18  22
ATOM     19  N   UNL     1      38.709 -24.965 -14.436  0.00  0.00    +0.391 N 
ATOM     20  C   UNL     1      37.539 -25.963 -14.516  0.00  0.00    -0.029 C 
ATOM     21  C   UNL     1      39.179 -24.776 -12.992  0.00  0.00    -0.073 C 
ATOM     22  C   UNL     1      36.410 -25.650 -13.535  0.00  0.00    +0.149 C 
ATOM     23  C   UNL     1      38.033 -24.384 -12.070  0.00  0.00    -0.019 C 
ATOM     24  C   UNL     1      36.907 -25.408 -12.115  0.00  0.00    +0.039 C 
ATOM     25  C   UNL     1      38.359 -23.624 -15.082  0.00  0.00    -0.096 C 
BRANCH  19  26
ATOM     26  C   UNL     1      39.879 -25.554 -15.241  0.00  0.00    -0.073 C 
ATOM     27  C   UNL     1      40.780 -26.335 -14.311  0.00  0.00    -0.024 C 
ENDBRANCH  19  26
ENDBRANCH  18  22
ENDBRANCH  17  18
ENDBRANCH   1  17
TORSDOF 7
ENDMDL
MODEL 3
REMARK VINA RESULT:      -8.3      9.642     12.977
REMARK  Name = 4832
REMARK  7 active torsions:
REMARK  status: ('A' for Active; 'I' for Inactive)
REMARK    1  A    between atoms: C_1  and  C_2
REMARK    2  A    between atoms: C_1  and  C_8
REMARK    3  A    between atoms: C_1  and  O_14
REMARK    4  A    between atoms: C_1  and  C_17
REMARK    5  A    between atoms: C_17  and  O_18
REMARK    6  A    between atoms: O_18  and  C_22
REMARK    7  A    between atoms: N_19  and  C_26
REMARK                            x       y       z     vdW  Elec       q    Type
REMARK                         _______ _______ _______ _____ _____    ______ ____
ROOT
ATOM      1  C   UNL     1      34.891 -24.373 -14.665  0.00  0.00    +0.216 C 
ENDROOT
BRANCH   1   2
ATOM      2  C   UNL     1      36.234 -24.729 -14.020  0.00  0.00    +0.016 C 
ATOM      3  C   UNL     1      36.744 -23.890 -13.057  0.00  0.00    -0.001 C 
ATOM      4  C   UNL     1      36.877 -25.873 -14.431  0.00  0.00    -0.001 C 
ATOM      5  C   UNL     1      37.967 -24.213 -12.470  0.00  0.00    -0.000 C 
ATOM      6  C   UNL     1      38.101 -26.197 -13.843  0.00  0.00    -0.000 C 
ATOM      7  C   UNL     1      38.646 -25.368 -12.863  0.00  0.00    -0.000 C 
ENDBRANCH   1   2
BRANCH   1   8
ATOM      8  C   UNL     1      35.096 -23.504 -15.908  0.00  0.00    +0.016 C 
ATOM      9  C   UNL     1      34.104 -23.474 -16.861  0.00  0.00    -0.001 C 
ATOM     10  C   UNL     1      36.264 -22.785 -16.024  0.00  0.00    -0.001 C 
ATOM     11  C   UNL     1      34.291 -22.682 -17.994  0.00  0.00    -0.000 C 
ATOM     12  C   UNL     1      36.450 -21.993 -17.157  0.00  0.00    -0.000 C 
ATOM     13  C   UNL     1      35.464 -21.941 -18.142  0.00  0.00    -0.000 C 
ENDBRANCH   1   8
BRANCH   1  14
ATOM     14  O   UNL     1      34.177 -25.573 -15.025  0.00  0.00    -0.370 OA
ATOM     15  H   UNL     1      34.191 -25.682 -15.988  0.00  0.00    +0.212 HD
ENDBRANCH   1  14
BRANCH   1  17
ATOM     16  O   UNL     1      34.071 -23.588 -12.497  0.00  0.00    -0.247 OA
ATOM     17  C   UNL     1      33.871 -23.779 -13.690  0.00  0.00    +0.349 C 
BRANCH  17  18
ATOM     18  O   UNL     1      32.710 -23.454 -14.345  0.00  0.00    -0.452 OA
BRANCH  18  22
ATOM     19  N   UNL     1      29.813 -23.138 -15.448  0.00  0.00    +0.391 N 
ATOM     20  C   UNL     1      30.446 -22.624 -14.143  0.00  0.00    -0.029 C 
ATOM     21  C   UNL     1      29.349 -24.589 -15.306  0.00  0.00    -0.073 C 
ATOM     22  C   UNL     1      31.514 -23.560 -13.579  0.00  0.00    +0.149 C 
ATOM     23  C   UNL     1      30.471 -25.498 -14.822  0.00  0.00    -0.019 C 
ATOM     24  C   UNL     1      31.051 -25.010 -13.501  0.00  0.00    +0.039 C 
ATOM     25  C   UNL     1      30.755 -22.975 -16.642  0.00  0.00    -0.096 C 
BRANCH  19  26
ATOM     26  C   UNL     1      28.575 -22.273 -15.738  0.00  0.00    -0.073 C 
ATOM     27  C   UNL     1      27.902 -22.772 -16.996  0.00  0.00    -0.024 C 
ENDBRANCH  19  26
ENDBRANCH  18  22
ENDBRANCH  17  18
ENDBRANCH   1  17
TORSDOF 7
ENDMDL
MODEL 4
REMARK VINA RESULT:      -8.3      9.850     12.478
REMARK  Name = 4832
REMARK  7 active torsions:
REMARK  status: ('A' for Active; 'I' for Inactive)
REMARK    1  A    between atoms: C_1  and  C_2
REMARK    2  A    between atoms: C_1  and  C_8
REMARK    3  A    between atoms: C_1  and  O_14
REMARK    4  A    between atoms: C_1  and  C_17
REMARK    5  A    between atoms: C_17  and  O_18
REMARK    6  A    between atoms: O_18  and  C_22
REMARK    7  A    between atoms: N_19  and  C_26
REMARK                            x       y       z     vdW  Elec       q    Type
REMARK                         _______ _______ _______ _____ _____    ______ ____
ROOT
ATOM      1  C   UNL     1      33.094 -24.122 -14.906  0.00  0.00    +0.216 C 
ENDROOT
BRANCH   1   2
ATOM      2  C   UNL     1      33.730 -23.445 -16.123  0.00  0.00    +0.016 C 
ATOM      3  C   UNL     1      35.015 -22.965 -16.013  0.00  0.00    -0.001 C 
ATOM      4  C   UNL     1      32.991 -23.341 -17.278  0.00  0.00    -0.001 C 
ATOM      5  C   UNL     1      35.593 -22.348 -17.121  0.00  0.00    -0.000 C 
ATOM      6  C   UNL     1      33.570 -22.723 -18.388  0.00  0.00    -0.000 C 
ATOM      7  C   UNL     1      34.871 -22.227 -18.309  0.00  0.00    -0.000 C 
ENDBRANCH   1   2
BRANCH   1   8
ATOM      8  C   UNL     1      31.567 -24.042 -14.972  0.00  0.00    +0.016 C 
ATOM      9  C   UNL     1      30.840 -25.199 -14.808  0.00  0.00    -0.001 C 
ATOM     10  C   UNL     1      30.980 -22.818 -15.194  0.00  0.00    -0.001 C 
ATOM     11  C   UNL     1      29.448 -25.127 -14.870  0.00  0.00    -0.000 C 
ATOM     12  C   UNL     1      29.588 -22.746 -15.256  0.00  0.00    -0.000 C 
ATOM     13  C   UNL     1      28.822 -23.900 -15.093  0.00  0.00    -0.000 C 
ENDBRANCH   1   8
BRANCH   1  14
ATOM     14  O   UNL     1      33.505 -25.502 -14.831  0.00  0.00    -0.370 OA
ATOM     15  H   UNL     1      32.754 -26.076 -15.048  0.00  0.00    +0.212 HD
ENDBRANCH   1  14
BRANCH   1  17
ATOM     16  O   UNL     1      32.976 -23.213 -12.637  0.00  0.00    -0.247 OA
ATOM     17  C   UNL     1      33.653 -23.640 -13.564  0.00  0.00    +0.349 C 
BRANCH  17  18
ATOM     18  O   UNL     1      35.016 -23.789 -13.527  0.00  0.00    -0.452 OA
BRANCH  18  22
ATOM     19  N   UNL     1      37.955 -24.783 -13.246  0.00  0.00    +0.391 N 
ATOM     20  C   UNL     1      36.626 -25.506 -12.967  0.00  0.00    -0.029 C 
ATOM     21  C   UNL     1      38.381 -23.923 -12.055  0.00  0.00    -0.073 C 
ATOM     22  C   UNL     1      35.527 -24.575 -12.456  0.00  0.00    +0.149 C 
ATOM     23  C   UNL     1      37.283 -22.954 -11.636  0.00  0.00    -0.019 C 
ATOM     24  C   UNL     1      35.990 -23.685 -11.308  0.00  0.00    +0.039 C 
ATOM     25  C   UNL     1      37.896 -23.956 -14.531  0.00  0.00    -0.096 C 
BRANCH  19  26
ATOM     26  C   UNL     1      39.034 -25.859 -13.461  0.00  0.00    -0.073 C 
ATOM     27  C   UNL     1      39.901 -25.466 -14.636  0.00  0.00    -0.024 C 
ENDBRANCH  19  26
ENDBRANCH  18  22
ENDBRANCH  17  18
ENDBRANCH   1  17
TORSDOF 7
ENDMDL
MODEL 5
REMARK VINA RESULT:      -8.2      3.576      7.514
REMARK  Name = 4832
REMARK  7 active torsions:
REMARK  status: ('A' for Active; 'I' for Inactive)
REMARK    1  A    between atoms: C_1  and  C_2
REMARK    2  A    between atoms: C_1  and  C_8
REMARK    3  A    between atoms: C_1  and  O_14
REMARK    4  A    between atoms: C_1  and  C_17
REMARK    5  A    between atoms: C_17  and  O_18
REMARK    6  A    between atoms: O_18  and  C_22
REMARK    7  A    between atoms: N_19  and  C_26
REMARK                            x       y       z     vdW  Elec       q    Type
REMARK                         _______ _______ _______ _____ _____    ______ ____
ROOT
ATOM      1  C   UNL     1      33.428 -12.643 -23.307  0.00  0.00    +0.216 C 
ENDROOT
BRANCH   1   2
ATOM      2  C   UNL     1      33.314 -13.091 -24.767  0.00  0.00    +0.016 C 
ATOM      3  C   UNL     1      32.822 -14.348 -25.033  0.00  0.00    -0.001 C 
ATOM      4  C   UNL     1      33.708 -12.219 -25.754  0.00  0.00    -0.001 C 
ATOM      5  C   UNL     1      32.719 -14.756 -26.362  0.00  0.00    -0.000 C 
ATOM      6  C   UNL     1      33.605 -12.627 -27.085  0.00  0.00    -0.000 C 
ATOM      7  C   UNL     1      33.110 -13.895 -27.389  0.00  0.00    -0.000 C 
ENDBRANCH   1   2
BRANCH   1   8
ATOM      8  C   UNL     1      33.553 -13.850 -22.374  0.00  0.00    +0.016 C 
ATOM      9  C   UNL     1      32.641 -13.988 -21.352  0.00  0.00    -0.001 C 
ATOM     10  C   UNL     1      34.571 -14.749 -22.592  0.00  0.00    -0.001 C 
ATOM     11  C   UNL     1      32.755 -15.088 -20.501  0.00  0.00    -0.000 C 
ATOM     12  C   UNL     1      34.684 -15.848 -21.741  0.00  0.00    -0.000 C 
ATOM     13  C   UNL     1      33.777 -16.018 -20.695  0.00  0.00    -0.000 C 
ENDBRANCH   1   8
BRANCH   1  14
ATOM     14  O   UNL     1      34.570 -11.779 -23.138  0.00  0.00    -0.370 OA
ATOM     15  H   UNL     1      35.211 -11.947 -23.847  0.00  0.00    +0.212 HD
ENDBRANCH   1  14
BRANCH   1  17
ATOM     16  O   UNL     1      31.166 -11.974 -22.654  0.00  0.00    -0.247 OA
ATOM     17  C   UNL     1      32.332 -11.667 -22.868  0.00  0.00    +0.349 C 
BRANCH  17  18
ATOM     18  O   UNL     1      32.845 -10.404 -22.711  0.00  0.00    -0.452 OA
BRANCH  18  22
ATOM     19  N   UNL     1      32.000  -7.424 -22.376  0.00  0.00    +0.391 N 
ATOM     20  C   UNL     1      31.499  -8.500 -23.356  0.00  0.00    -0.029 C 
ATOM     21  C   UNL     1      33.280  -6.759 -22.888  0.00  0.00    -0.073 C 
ATOM     22  C   UNL     1      32.585  -9.491 -23.772  0.00  0.00    +0.149 C 
ATOM     23  C   UNL     1      34.360  -7.783 -23.210  0.00  0.00    -0.019 C 
ATOM     24  C   UNL     1      33.871  -8.808 -24.223  0.00  0.00    +0.039 C 
ATOM     25  C   UNL     1      32.195  -7.983 -20.967  0.00  0.00    -0.096 C 
BRANCH  19  26
ATOM     26  C   UNL     1      30.912  -6.342 -22.278  0.00  0.00    -0.073 C 
ATOM     27  C   UNL     1      31.255  -5.204 -23.214  0.00  0.00    -0.024 C 
ENDBRANCH  19  26
ENDBRANCH  18  22
ENDBRANCH  17  18
ENDBRANCH   1  17
TORSDOF 7
ENDMDL
MODEL 6
REMARK VINA RESULT:      -8.2      7.845     11.166
REMARK  Name = 4832
REMARK  7 active torsions:
REMARK  status: ('A' for Active; 'I' for Inactive)
REMARK    1  A    between atoms: C_1  and  C_2
REMARK    2  A    between atoms: C_1  and  C_8
REMARK    3  A    between atoms: C_1  and  O_14
REMARK    4  A    between atoms: C_1  and  C_17
REMARK    5  A    between atoms: C_17  and  O_18
REMARK    6  A    between atoms: O_18  and  C_22
REMARK    7  A    between atoms: N_19  and  C_26
REMARK                            x       y       z     vdW  Elec       q    Type
REMARK                         _______ _______ _______ _____ _____    ______ ____
ROOT
ATOM      1  C   UNL     1      34.200 -23.249 -16.942  0.00  0.00    +0.216 C 
ENDROOT
BRANCH   1   2
ATOM      2  C   UNL     1      34.293 -22.320 -18.155  0.00  0.00    +0.016 C 
ATOM      3  C   UNL     1      35.539 -21.952 -18.608  0.00  0.00    -0.001 C 
ATOM      4  C   UNL     1      33.127 -21.888 -18.743  0.00  0.00    -0.001 C 
ATOM      5  C   UNL     1      35.624 -21.104 -19.712  0.00  0.00    -0.000 C 
ATOM      6  C   UNL     1      33.212 -21.040 -19.848  0.00  0.00    -0.000 C 
ATOM      7  C   UNL     1      34.460 -20.648 -20.333  0.00  0.00    -0.000 C 
ENDBRANCH   1   2
BRANCH   1   8
ATOM      8  C   UNL     1      32.847 -23.099 -16.242  0.00  0.00    +0.016 C 
ATOM      9  C   UNL     1      31.705 -23.105 -17.009  0.00  0.00    -0.001 C 
ATOM     10  C   UNL     1      32.825 -22.964 -14.873  0.00  0.00    -0.001 C 
ATOM     11  C   UNL     1      30.471 -22.967 -16.371  0.00  0.00    -0.000 C 
ATOM     12  C   UNL     1      31.592 -22.826 -14.235  0.00  0.00    -0.000 C 
ATOM     13  C   UNL     1      30.415 -22.828 -14.983  0.00  0.00    -0.000 C 
ENDBRANCH   1   8
BRANCH   1  14
ATOM     14  O   UNL     1      34.386 -24.620 -17.348  0.00  0.00    -0.370 OA
ATOM     15  H   UNL     1      33.842 -25.199 -16.793  0.00  0.00    +0.212 HD
ENDBRANCH   1  14
BRANCH   1  17
ATOM     16  O   UNL     1      35.806 -22.079 -15.514  0.00  0.00    -0.247 OA
ATOM     17  C   UNL     1      35.382 -23.131 -15.975  0.00  0.00    +0.349 C 
BRANCH  17  18
ATOM     18  O   UNL     1      35.879 -24.372 -15.667  0.00  0.00    -0.452 OA
BRANCH  18  22
ATOM     19  N   UNL     1      36.583 -24.576 -12.639  0.00  0.00    +0.391 N 
ATOM     20  C   UNL     1      37.205 -23.716 -13.753  0.00  0.00    -0.029 C 
ATOM     21  C   UNL     1      37.175 -25.987 -12.630  0.00  0.00    -0.073 C 
ATOM     22  C   UNL     1      37.193 -24.397 -15.120  0.00  0.00    +0.149 C 
ATOM     23  C   UNL     1      37.064 -26.655 -13.995  0.00  0.00    -0.019 C 
ATOM     24  C   UNL     1      37.733 -25.822 -15.078  0.00  0.00    +0.039 C 
ATOM     25  C   UNL     1      35.057 -24.620 -12.736  0.00  0.00    -0.096 C 
BRANCH  19  26
ATOM     26  C   UNL     1      36.923 -23.913 -11.293  0.00  0.00    -0.073 C 
ATOM     27  C   UNL     1      35.806 -24.181 -10.310  0.00  0.00    -0.024 C 
ENDBRANCH  19  26
ENDBRANCH  18  22
ENDBRANCH  17  18
ENDBRANCH   1  17
TORSDOF 7
ENDMDL
MODEL 7
REMARK VINA RESULT:      -8.1      7.873     11.235
REMARK  Name = 4832
REMARK  7 active torsions:
REMARK  status: ('A' for Active; 'I' for Inactive)
REMARK    1  A    between atoms: C_1  and  C_2
REMARK    2  A    between atoms: C_1  and  C_8
REMARK    3  A    between atoms: C_1  and  O_14
REMARK    4  A    between atoms: C_1  and  C_17
REMARK    5  A    between atoms: C_17  and  O_18
REMARK    6  A    between atoms: O_18  and  C_22
REMARK    7  A    between atoms: N_19  and  C_26
REMARK                            x       y       z     vdW  Elec       q    Type
REMARK                         _______ _______ _______ _____ _____    ______ ____
ROOT
ATOM      1  C   UNL     1      34.201 -23.259 -16.911  0.00  0.00    +0.216 C 
ENDROOT
BRANCH   1   2
ATOM      2  C   UNL     1      34.303 -22.333 -18.126  0.00  0.00    +0.016 C 
ATOM      3  C   UNL     1      33.142 -21.904 -18.727  0.00  0.00    -0.001 C 
ATOM      4  C   UNL     1      35.552 -21.966 -18.569  0.00  0.00    -0.001 C 
ATOM      5  C   UNL     1      33.236 -21.061 -19.834  0.00  0.00    -0.000 C 
ATOM      6  C   UNL     1      35.646 -21.122 -19.677  0.00  0.00    -0.000 C 
ATOM      7  C   UNL     1      34.488 -20.670 -20.308  0.00  0.00    -0.000 C 
ENDBRANCH   1   2
BRANCH   1   8
ATOM      8  C   UNL     1      32.843 -23.107 -16.221  0.00  0.00    +0.016 C 
ATOM      9  C   UNL     1      32.812 -22.977 -14.852  0.00  0.00    -0.001 C 
ATOM     10  C   UNL     1      31.707 -23.106 -16.997  0.00  0.00    -0.001 C 
ATOM     11  C   UNL     1      31.574 -22.839 -14.222  0.00  0.00    -0.000 C 
ATOM     12  C   UNL     1      30.469 -22.968 -16.367  0.00  0.00    -0.000 C 
ATOM     13  C   UNL     1      30.403 -22.834 -14.981  0.00  0.00    -0.000 C 
ENDBRANCH   1   8
BRANCH   1  14
ATOM     14  O   UNL     1      34.390 -24.631 -17.313  0.00  0.00    -0.370 OA
ATOM     15  H   UNL     1      35.050 -25.049 -16.738  0.00  0.00    +0.212 HD
ENDBRANCH   1  14
BRANCH   1  17
ATOM     16  O   UNL     1      35.777 -22.089 -15.450  0.00  0.00    -0.247 OA
ATOM     17  C   UNL     1      35.376 -23.139 -15.936  0.00  0.00    +0.349 C 
BRANCH  17  18
ATOM     18  O   UNL     1      35.895 -24.376 -15.651  0.00  0.00    -0.452 OA
BRANCH  18  22
ATOM     19  N   UNL     1      36.580 -24.552 -12.617  0.00  0.00    +0.391 N 
ATOM     20  C   UNL     1      37.203 -23.695 -13.733  0.00  0.00    -0.029 C 
ATOM     21  C   UNL     1      37.183 -25.959 -12.594  0.00  0.00    -0.073 C 
ATOM     22  C   UNL     1      37.206 -24.387 -15.096  0.00  0.00    +0.149 C 
ATOM     23  C   UNL     1      37.087 -26.638 -13.954  0.00  0.00    -0.019 C 
ATOM     24  C   UNL     1      37.756 -25.807 -15.039  0.00  0.00    +0.039 C 
ATOM     25  C   UNL     1      35.056 -24.608 -12.724  0.00  0.00    -0.096 C 
BRANCH  19  26
ATOM     26  C   UNL     1      36.906 -23.877 -11.274  0.00  0.00    -0.073 C 
ATOM     27  C   UNL     1      35.809 -24.187 -10.281  0.00  0.00    -0.024 C 
ENDBRANCH  19  26
ENDBRANCH  18  22
ENDBRANCH  17  18
ENDBRANCH   1  17
TORSDOF 7
ENDMDL
MODEL 8
REMARK VINA RESULT:      -7.6      1.891      6.511
REMARK  Name = 4832
REMARK  7 active torsions:
REMARK  status: ('A' for Active; 'I' for Inactive)
REMARK    1  A    between atoms: C_1  and  C_2
REMARK    2  A    between atoms: C_1  and  C_8
REMARK    3  A    between atoms: C_1  and  O_14
REMARK    4  A    between atoms: C_1  and  C_17
REMARK    5  A    between atoms: C_17  and  O_18
REMARK    6  A    between atoms: O_18  and  C_22
REMARK    7  A    between atoms: N_19  and  C_26
REMARK                            x       y       z     vdW  Elec       q    Type
REMARK                         _______ _______ _______ _____ _____    ______ ____
ROOT
ATOM      1  C   UNL     1      35.281 -18.093 -21.649  0.00  0.00    +0.216 C 
ENDROOT
BRANCH   1   2
ATOM      2  C   UNL     1      34.946 -18.120 -23.143  0.00  0.00    +0.016 C 
ATOM      3  C   UNL     1      34.322 -19.233 -23.657  0.00  0.00    -0.001 C 
ATOM      4  C   UNL     1      35.284 -17.032 -23.912  0.00  0.00    -0.001 C 
ATOM      5  C   UNL     1      34.018 -19.259 -25.018  0.00  0.00    -0.000 C 
ATOM      6  C   UNL     1      34.979 -17.057 -25.274  0.00  0.00    -0.000 C 
ATOM      7  C   UNL     1      34.346 -18.170 -25.826  0.00  0.00    -0.000 C 
ENDBRANCH   1   2
BRANCH   1   8
ATOM      8  C   UNL     1      34.651 -19.285 -20.926  0.00  0.00    +0.016 C 
ATOM      9  C   UNL     1      33.284 -19.319 -20.780  0.00  0.00    -0.001 C 
ATOM     10  C   UNL     1      35.477 -20.278 -20.450  0.00  0.00    -0.001 C 
ATOM     11  C   UNL     1      32.709 -20.406 -20.120  0.00  0.00    -0.000 C 
ATOM     12  C   UNL     1      34.902 -21.365 -19.790  0.00  0.00    -0.000 C 
ATOM     13  C   UNL     1      33.519 -21.429 -19.625  0.00  0.00    -0.000 C 
ENDBRANCH   1   8
BRANCH   1  14
ATOM     14  O   UNL     1      36.711 -18.109 -21.458  0.00  0.00    -0.370 OA
ATOM     15  H   UNL     1      37.089 -17.275 -21.777  0.00  0.00    +0.212 HD
ENDBRANCH   1  14
BRANCH   1  17
ATOM     16  O   UNL     1      35.268 -16.475 -19.813  0.00  0.00    -0.247 OA
ATOM     17  C   UNL     1      34.971 -16.757 -20.967  0.00  0.00    +0.349 C 
BRANCH  17  18
ATOM     18  O   UNL     1      34.346 -15.903 -21.840  0.00  0.00    -0.452 OA
BRANCH  18  22
ATOM     19  N   UNL     1      33.294 -13.568 -23.615  0.00  0.00    +0.391 N 
ATOM     20  C   UNL     1      34.606 -13.707 -22.823  0.00  0.00    -0.029 C 
ATOM     21  C   UNL     1      32.151 -13.089 -22.718  0.00  0.00    -0.073 C 
ATOM     22  C   UNL     1      34.452 -14.516 -21.535  0.00  0.00    +0.149 C 
ATOM     23  C   UNL     1      31.984 -13.976 -21.492  0.00  0.00    -0.019 C 
ATOM     24  C   UNL     1      33.272 -14.059 -20.685  0.00  0.00    +0.039 C 
ATOM     25  C   UNL     1      32.923 -14.865 -24.335  0.00  0.00    -0.096 C 
BRANCH  19  26
ATOM     26  C   UNL     1      33.518 -12.505 -24.704  0.00  0.00    -0.073 C 
ATOM     27  C   UNL     1      33.414 -13.157 -26.065  0.00  0.00    -0.024 C 
ENDBRANCH  19  26
ENDBRANCH  18  22
ENDBRANCH  17  18
ENDBRANCH   1  17
TORSDOF 7
ENDMDL
MODEL 9
REMARK VINA RESULT:      -7.6      1.898      7.216
REMARK  Name = 4832
REMARK  7 active torsions:
REMARK  status: ('A' for Active; 'I' for Inactive)
REMARK    1  A    between atoms: C_1  and  C_2
REMARK    2  A    between atoms: C_1  and  C_8
REMARK    3  A    between atoms: C_1  and  O_14
REMARK    4  A    between atoms: C_1  and  C_17
REMARK    5  A    between atoms: C_17  and  O_18
REMARK    6  A    between atoms: O_18  and  C_22
REMARK    7  A    between atoms: N_19  and  C_26
REMARK                            x       y       z     vdW  Elec       q    Type
REMARK                         _______ _______ _______ _____ _____    ______ ____
ROOT
ATOM      1  C   UNL     1      34.194 -18.115 -21.499  0.00  0.00    +0.216 C 
ENDROOT
BRANCH   1   2
ATOM      2  C   UNL     1      34.902 -19.282 -20.806  0.00  0.00    +0.016 C 
ATOM      3  C   UNL     1      34.135 -20.271 -20.235  0.00  0.00    -0.001 C 
ATOM      4  C   UNL     1      36.277 -19.294 -20.778  0.00  0.00    -0.001 C 
ATOM      5  C   UNL     1      34.780 -21.334 -19.602  0.00  0.00    -0.000 C 
ATOM      6  C   UNL     1      36.922 -20.357 -20.145  0.00  0.00    -0.000 C 
ATOM      7  C   UNL     1      36.174 -21.377 -19.558  0.00  0.00    -0.000 C 
ENDBRANCH   1   2
BRANCH   1   8
ATOM      8  C   UNL     1      34.410 -18.168 -23.014  0.00  0.00    +0.016 C 
ATOM      9  C   UNL     1      34.718 -17.002 -23.676  0.00  0.00    -0.001 C 
ATOM     10  C   UNL     1      34.287 -19.380 -23.654  0.00  0.00    -0.001 C 
ATOM     11  C   UNL     1      34.914 -17.051 -25.057  0.00  0.00    -0.000 C 
ATOM     12  C   UNL     1      34.482 -19.428 -25.035  0.00  0.00    -0.000 C 
ATOM     13  C   UNL     1      34.796 -18.264 -25.736  0.00  0.00    -0.000 C 
ENDBRANCH   1   8
BRANCH   1  14
ATOM     14  O   UNL     1      32.782 -18.144 -21.209  0.00  0.00    -0.370 OA
ATOM     15  H   UNL     1      32.375 -17.312 -21.498  0.00  0.00    +0.212 HD
ENDBRANCH   1  14
BRANCH   1  17
ATOM     16  O   UNL     1      35.380 -16.539 -20.050  0.00  0.00    -0.247 OA
ATOM     17  C   UNL     1      34.526 -16.744 -20.904  0.00  0.00    +0.349 C 
BRANCH  17  18
ATOM     18  O   UNL     1      33.758 -15.766 -21.486  0.00  0.00    -0.452 OA
BRANCH  18  22
ATOM     19  N   UNL     1      33.271 -13.273 -23.290  0.00  0.00    +0.391 N 
ATOM     20  C   UNL     1      34.486 -13.660 -22.428  0.00  0.00    -0.029 C 
ATOM     21  C   UNL     1      32.192 -12.585 -22.452  0.00  0.00    -0.073 C 
ATOM     22  C   UNL     1      34.109 -14.425 -21.160  0.00  0.00    +0.149 C 
ATOM     23  C   UNL     1      31.790 -13.425 -21.246  0.00  0.00    -0.019 C 
ATOM     24  C   UNL     1      32.991 -13.753 -20.371  0.00  0.00    +0.039 C 
ATOM     25  C   UNL     1      32.701 -14.475 -24.043  0.00  0.00    -0.096 C 
BRANCH  19  26
ATOM     26  C   UNL     1      33.754 -12.272 -24.352  0.00  0.00    -0.073 C 
ATOM     27  C   UNL     1      33.621 -10.867 -23.809  0.00  0.00    -0.024 C 
ENDBRANCH  19  26
ENDBRANCH  18  22
ENDBRANCH  17  18
ENDBRANCH   1  17
TORSDOF 7
ENDMDL
