MODEL 1
REMARK VINA RESULT:     -11.4      0.000      0.000
REMARK  Name = 25138294
REMARK  3 active torsions:
REMARK  status: ('A' for Active; 'I' for Inactive)
REMARK    1  A    between atoms: N_4  and  C_7
REMARK    2  A    between atoms: C_5  and  C_25
REMARK    3  A    between atoms: C_6  and  C_15
REMARK                            x       y       z     vdW  Elec       q    Type
REMARK                         _______ _______ _______ _____ _____    ______ ____
ROOT
ATOM      1  N   UNL     1      31.748 -22.756 -17.295  0.00  0.00    -0.300 N 
ATOM      2  N   UNL     1      32.459 -23.794 -15.465  0.00  0.00    -0.302 N 
ATOM      3  C   UNL     1      33.112 -22.703 -17.341  0.00  0.00    +0.086 C 
ATOM      4  C   UNL     1      33.529 -23.348 -16.201  0.00  0.00    +0.058 C 
ATOM      5  C   UNL     1      31.402 -23.421 -16.151  0.00  0.00    +0.227 C 
ATOM      6  H   UNL     1      31.127 -22.385 -17.963  0.00  0.00    +0.150 HD
ATOM      7  H   UNL     1      32.480 -24.284 -14.611  0.00  0.00    +0.150 HD
ENDROOT
BRANCH   4  10
ATOM      8  N   UNL     1      37.095 -26.288 -14.812  0.00  0.00    -0.245 NA
ATOM      9  N   UNL     1      38.839 -24.130 -14.663  0.00  0.00    -0.245 NA
ATOM     10  C   UNL     1      34.895 -23.548 -15.806  0.00  0.00    -0.006 C 
ATOM     11  C   UNL     1      35.356 -24.826 -15.495  0.00  0.00    +0.074 C 
ATOM     12  C   UNL     1      35.766 -22.470 -15.732  0.00  0.00    -0.022 C 
ATOM     13  C   UNL     1      36.675 -25.046 -15.108  0.00  0.00    +0.077 C 
ATOM     14  C   UNL     1      37.557 -23.953 -15.033  0.00  0.00    +0.077 C 
ATOM     15  C   UNL     1      37.089 -22.680 -15.346  0.00  0.00    +0.073 C 
ATOM     16  C   UNL     1      38.380 -26.444 -14.444  0.00  0.00    +0.119 C 
ATOM     17  C   UNL     1      39.239 -25.381 -14.371  0.00  0.00    +0.119 C 
ENDBRANCH   4  10
BRANCH   3  20
ATOM     18  F   UNL     1      35.643 -20.163 -21.521  0.00  0.00    -0.202 F 
ATOM     19  N   UNL     1      33.081 -21.241 -19.183  0.00  0.00    -0.407 NA
ATOM     20  C   UNL     1      33.830 -22.069 -18.419  0.00  0.00    +0.127 C 
ATOM     21  C   UNL     1      35.178 -22.308 -18.628  0.00  0.00    +0.089 C 
ATOM     22  C   UNL     1      33.719 -20.627 -20.205  0.00  0.00    +0.136 C 
ATOM     23  C   UNL     1      35.799 -21.657 -19.687  0.00  0.00    +0.013 C 
ATOM     24  C   UNL     1      35.062 -20.798 -20.495  0.00  0.00    +0.161 C 
ATOM     25  C   UNL     1      32.895 -19.714 -21.051  0.00  0.00    +0.069 C 
ENDBRANCH   3  20
BRANCH   5  27
ATOM     26  O   UNL     1      28.930 -21.951 -17.040  0.00  0.00    -0.275 OA
ATOM     27  N   UNL     1      30.084 -23.629 -15.840  0.00  0.00    -0.274 N 
ATOM     28  C   UNL     1      28.943 -22.914 -16.280  0.00  0.00    +0.225 C 
ATOM     29  C   UNL     1      27.660 -23.464 -15.709  0.00  0.00    +0.095 C 
ATOM     30  H   UNL     1      29.905 -24.378 -15.227  0.00  0.00    +0.152 HD
ENDBRANCH   5  27
TORSDOF 3
ENDMDL
MODEL 2
REMARK VINA RESULT:     -11.1      2.999      5.197
REMARK  Name = 25138294
REMARK  3 active torsions:
REMARK  status: ('A' for Active; 'I' for Inactive)
REMARK    1  A    between atoms: N_4  and  C_7
REMARK    2  A    between atoms: C_5  and  C_25
REMARK    3  A    between atoms: C_6  and  C_15
REMARK                            x       y       z     vdW  Elec       q    Type
REMARK                         _______ _______ _______ _____ _____    ______ ____
ROOT
ATOM      1  N   UNL     1      32.534 -22.122 -18.510  0.00  0.00    -0.300 N 
ATOM      2  N   UNL     1      34.731 -22.190 -18.193  0.00  0.00    -0.302 N 
ATOM      3  C   UNL     1      32.722 -22.796 -17.337  0.00  0.00    +0.086 C 
ATOM      4  C   UNL     1      34.085 -22.827 -17.163  0.00  0.00    +0.058 C 
ATOM      5  C   UNL     1      33.769 -21.777 -18.987  0.00  0.00    +0.227 C 
ATOM      6  H   UNL     1      31.669 -21.920 -18.934  0.00  0.00    +0.150 HD
ATOM      7  H   UNL     1      35.701 -22.069 -18.311  0.00  0.00    +0.150 HD
ENDROOT
BRANCH   4  10
ATOM      8  N   UNL     1      36.489 -26.563 -15.278  0.00  0.00    -0.245 NA
ATOM      9  N   UNL     1      36.754 -25.201 -12.871  0.00  0.00    -0.245 NA
ATOM     10  C   UNL     1      34.772 -23.436 -16.058  0.00  0.00    -0.006 C 
ATOM     11  C   UNL     1      35.310 -24.715 -16.186  0.00  0.00    +0.074 C 
ATOM     12  C   UNL     1      34.904 -22.755 -14.856  0.00  0.00    -0.022 C 
ATOM     13  C   UNL     1      35.980 -25.328 -15.130  0.00  0.00    +0.077 C 
ATOM     14  C   UNL     1      36.113 -24.638 -13.912  0.00  0.00    +0.077 C 
ATOM     15  C   UNL     1      35.572 -23.361 -13.794  0.00  0.00    +0.073 C 
ATOM     16  C   UNL     1      37.126 -27.108 -14.226  0.00  0.00    +0.119 C 
ATOM     17  C   UNL     1      37.257 -26.436 -13.040  0.00  0.00    +0.119 C 
ENDBRANCH   4  10
BRANCH   3  20
ATOM     18  F   UNL     1      28.386 -24.628 -14.477  0.00  0.00    -0.202 F 
ATOM     19  N   UNL     1      30.414 -22.816 -16.885  0.00  0.00    -0.407 NA
ATOM     20  C   UNL     1      31.627 -23.313 -16.553  0.00  0.00    +0.127 C 
ATOM     21  C   UNL     1      31.835 -24.243 -15.548  0.00  0.00    +0.089 C 
ATOM     22  C   UNL     1      29.361 -23.276 -16.172  0.00  0.00    +0.136 C 
ATOM     23  C   UNL     1      30.728 -24.694 -14.838  0.00  0.00    +0.013 C 
ATOM     24  C   UNL     1      29.464 -24.206 -15.151  0.00  0.00    +0.161 C 
ATOM     25  C   UNL     1      28.021 -22.729 -16.536  0.00  0.00    +0.069 C 
ENDBRANCH   3  20
BRANCH   5  27
ATOM     26  O   UNL     1      35.972 -19.978 -19.974  0.00  0.00    -0.275 OA
ATOM     27  N   UNL     1      33.890 -21.082 -20.162  0.00  0.00    -0.274 N 
ATOM     28  C   UNL     1      34.946 -20.242 -20.593  0.00  0.00    +0.225 C 
ATOM     29  C   UNL     1      34.700 -19.661 -21.963  0.00  0.00    +0.095 C 
ATOM     30  H   UNL     1      33.141 -21.179 -20.792  0.00  0.00    +0.152 HD
ENDBRANCH   5  27
TORSDOF 3
ENDMDL
MODEL 3
REMARK VINA RESULT:     -11.0      2.557      6.532
REMARK  Name = 25138294
REMARK  3 active torsions:
REMARK  status: ('A' for Active; 'I' for Inactive)
REMARK    1  A    between atoms: N_4  and  C_7
REMARK    2  A    between atoms: C_5  and  C_25
REMARK    3  A    between atoms: C_6  and  C_15
REMARK                            x       y       z     vdW  Elec       q    Type
REMARK                         _______ _______ _______ _____ _____    ______ ____
ROOT
ATOM      1  N   UNL     1      35.440 -24.100 -15.740  0.00  0.00    -0.300 N 
ATOM      2  N   UNL     1      33.876 -24.525 -14.221  0.00  0.00    -0.302 N 
ATOM      3  C   UNL     1      34.306 -23.484 -16.188  0.00  0.00    +0.086 C 
ATOM      4  C   UNL     1      33.355 -23.761 -15.235  0.00  0.00    +0.058 C 
ATOM      5  C   UNL     1      35.133 -24.712 -14.556  0.00  0.00    +0.227 C 
ATOM      6  H   UNL     1      36.317 -24.103 -16.187  0.00  0.00    +0.150 HD
ATOM      7  H   UNL     1      33.411 -24.860 -13.421  0.00  0.00    +0.150 HD
ENDROOT
BRANCH   4  10
ATOM      8  N   UNL     1      29.051 -23.637 -17.416  0.00  0.00    -0.245 NA
ATOM      9  N   UNL     1      28.041 -22.052 -15.369  0.00  0.00    -0.245 NA
ATOM     10  C   UNL     1      31.987 -23.321 -15.268  0.00  0.00    -0.006 C 
ATOM     11  C   UNL     1      31.158 -23.686 -16.327  0.00  0.00    +0.074 C 
ATOM     12  C   UNL     1      31.483 -22.530 -14.246  0.00  0.00    -0.022 C 
ATOM     13  C   UNL     1      29.830 -23.272 -16.383  0.00  0.00    +0.077 C 
ATOM     14  C   UNL     1      29.319 -22.470 -15.347  0.00  0.00    +0.077 C 
ATOM     15  C   UNL     1      30.155 -22.111 -14.293  0.00  0.00    +0.073 C 
ATOM     16  C   UNL     1      27.775 -23.209 -17.420  0.00  0.00    +0.119 C 
ATOM     17  C   UNL     1      27.278 -22.429 -16.411  0.00  0.00    +0.119 C 
ENDBRANCH   4  10
BRANCH   3  20
ATOM     18  F   UNL     1      34.387 -20.610 -20.886  0.00  0.00    -0.202 F 
ATOM     19  N   UNL     1      35.470 -22.332 -17.876  0.00  0.00    -0.407 NA
ATOM     20  C   UNL     1      34.262 -22.735 -17.420  0.00  0.00    +0.127 C 
ATOM     21  C   UNL     1      33.063 -22.469 -18.060  0.00  0.00    +0.089 C 
ATOM     22  C   UNL     1      35.471 -21.627 -19.030  0.00  0.00    +0.136 C 
ATOM     23  C   UNL     1      33.105 -21.743 -19.245  0.00  0.00    +0.013 C 
ATOM     24  C   UNL     1      34.328 -21.311 -19.746  0.00  0.00    +0.161 C 
ATOM     25  C   UNL     1      36.802 -21.180 -19.535  0.00  0.00    +0.069 C 
ENDBRANCH   3  20
BRANCH   5  27
ATOM     26  O   UNL     1      37.945 -23.951 -13.795  0.00  0.00    -0.275 OA
ATOM     27  N   UNL     1      36.089 -25.413 -13.869  0.00  0.00    -0.274 N 
ATOM     28  C   UNL     1      37.407 -25.021 -13.528  0.00  0.00    +0.225 C 
ATOM     29  C   UNL     1      38.147 -26.086 -12.757  0.00  0.00    +0.095 C 
ATOM     30  H   UNL     1      35.824 -26.313 -13.571  0.00  0.00    +0.152 HD
ENDBRANCH   5  27
TORSDOF 3
ENDMDL
MODEL 4
REMARK VINA RESULT:     -10.8      3.193      7.237
REMARK  Name = 25138294
REMARK  3 active torsions:
REMARK  status: ('A' for Active; 'I' for Inactive)
REMARK    1  A    between atoms: N_4  and  C_7
REMARK    2  A    between atoms: C_5  and  C_25
REMARK    3  A    between atoms: C_6  and  C_15
REMARK                            x       y       z     vdW  Elec       q    Type
REMARK                         _______ _______ _______ _____ _____    ______ ____
ROOT
ATOM      1  N   UNL     1      36.904 -22.579 -16.916  0.00  0.00    -0.300 N 
ATOM      2  N   UNL     1      34.813 -22.141 -17.524  0.00  0.00    -0.302 N 
ATOM      3  C   UNL     1      36.109 -23.279 -16.053  0.00  0.00    +0.086 C 
ATOM      4  C   UNL     1      34.823 -22.992 -16.447  0.00  0.00    +0.058 C 
ATOM      5  C   UNL     1      36.081 -21.912 -17.781  0.00  0.00    +0.227 C 
ATOM      6  H   UNL     1      37.888 -22.559 -16.916  0.00  0.00    +0.150 HD
ATOM      7  H   UNL     1      34.029 -21.782 -17.998  0.00  0.00    +0.150 HD
ENDROOT
BRANCH   4  10
ATOM      8  N   UNL     1      30.042 -23.644 -16.506  0.00  0.00    -0.245 NA
ATOM      9  N   UNL     1      30.175 -24.969 -14.067  0.00  0.00    -0.245 NA
ATOM     10  C   UNL     1      33.629 -23.502 -15.833  0.00  0.00    -0.006 C 
ATOM     11  C   UNL     1      32.394 -23.335 -16.458  0.00  0.00    +0.074 C 
ATOM     12  C   UNL     1      33.695 -24.164 -14.616  0.00  0.00    -0.022 C 
ATOM     13  C   UNL     1      31.221 -23.819 -15.884  0.00  0.00    +0.077 C 
ATOM     14  C   UNL     1      31.289 -24.489 -14.649  0.00  0.00    +0.077 C 
ATOM     15  C   UNL     1      32.527 -24.651 -14.034  0.00  0.00    +0.073 C 
ATOM     16  C   UNL     1      28.940 -24.131 -15.907  0.00  0.00    +0.119 C 
ATOM     17  C   UNL     1      29.006 -24.784 -14.706  0.00  0.00    +0.119 C 
ENDBRANCH   4  10
BRANCH   3  20
ATOM     18  F   UNL     1      38.179 -26.222 -11.883  0.00  0.00    -0.202 F 
ATOM     19  N   UNL     1      37.024 -23.424 -13.891  0.00  0.00    -0.407 NA
ATOM     20  C   UNL     1      36.644 -24.103 -14.997  0.00  0.00    +0.127 C 
ATOM     21  C   UNL     1      36.745 -25.477 -15.136  0.00  0.00    +0.089 C 
ATOM     22  C   UNL     1      37.530 -24.162 -12.878  0.00  0.00    +0.136 C 
ATOM     23  C   UNL     1      37.269 -26.202 -14.072  0.00  0.00    +0.013 C 
ATOM     24  C   UNL     1      37.671 -25.540 -12.918  0.00  0.00    +0.161 C 
ATOM     25  C   UNL     1      37.951 -23.415 -11.656  0.00  0.00    +0.069 C 
ENDBRANCH   3  20
BRANCH   5  27
ATOM     26  O   UNL     1      34.776 -20.673 -20.195  0.00  0.00    -0.275 OA
ATOM     27  N   UNL     1      36.607 -21.122 -18.770  0.00  0.00    -0.274 N 
ATOM     28  C   UNL     1      35.960 -20.555 -19.894  0.00  0.00    +0.225 C 
ATOM     29  C   UNL     1      36.895 -19.737 -20.750  0.00  0.00    +0.095 C 
ATOM     30  H   UNL     1      37.567 -20.921 -18.687  0.00  0.00    +0.152 HD
ENDBRANCH   5  27
TORSDOF 3
ENDMDL
MODEL 5
REMARK VINA RESULT:     -10.5      2.979      7.060
REMARK  Name = 25138294
REMARK  3 active torsions:
REMARK  status: ('A' for Active; 'I' for Inactive)
REMARK    1  A    between atoms: N_4  and  C_7
REMARK    2  A    between atoms: C_5  and  C_25
REMARK    3  A    between atoms: C_6  and  C_15
REMARK                            x       y       z     vdW  Elec       q    Type
REMARK                         _______ _______ _______ _____ _____    ______ ____
ROOT
ATOM      1  N   UNL     1      36.532 -22.209 -17.312  0.00  0.00    -0.300 N 
ATOM      2  N   UNL     1      34.412 -22.124 -17.970  0.00  0.00    -0.302 N 
ATOM      3  C   UNL     1      35.819 -22.887 -16.364  0.00  0.00    +0.086 C 
ATOM      4  C   UNL     1      34.514 -22.820 -16.791  0.00  0.00    +0.058 C 
ATOM      5  C   UNL     1      35.644 -21.770 -18.256  0.00  0.00    +0.227 C 
ATOM      6  H   UNL     1      37.505 -22.063 -17.317  0.00  0.00    +0.150 HD
ATOM      7  H   UNL     1      33.596 -21.933 -18.486  0.00  0.00    +0.150 HD
ENDROOT
BRANCH   4  10
ATOM      8  N   UNL     1      29.765 -23.641 -16.534  0.00  0.00    -0.245 NA
ATOM      9  N   UNL     1      30.119 -25.050 -14.166  0.00  0.00    -0.245 NA
ATOM     10  C   UNL     1      33.385 -23.395 -16.114  0.00  0.00    -0.006 C 
ATOM     11  C   UNL     1      32.103 -23.250 -16.642  0.00  0.00    +0.074 C 
ATOM     12  C   UNL     1      33.562 -24.099 -14.932  0.00  0.00    -0.022 C 
ATOM     13  C   UNL     1      30.991 -23.796 -16.006  0.00  0.00    +0.077 C 
ATOM     14  C   UNL     1      31.171 -24.509 -14.806  0.00  0.00    +0.077 C 
ATOM     15  C   UNL     1      32.455 -24.649 -14.288  0.00  0.00    +0.073 C 
ATOM     16  C   UNL     1      28.727 -24.190 -15.878  0.00  0.00    +0.119 C 
ATOM     17  C   UNL     1      28.901 -24.884 -14.712  0.00  0.00    +0.119 C 
ENDBRANCH   4  10
BRANCH   3  20
ATOM     18  F   UNL     1      38.208 -25.407 -12.090  0.00  0.00    -0.202 F 
ATOM     19  N   UNL     1      36.789 -24.787 -15.376  0.00  0.00    -0.407 NA
ATOM     20  C   UNL     1      36.438 -23.492 -15.211  0.00  0.00    +0.127 C 
ATOM     21  C   UNL     1      36.644 -22.775 -14.044  0.00  0.00    +0.089 C 
ATOM     22  C   UNL     1      37.374 -25.390 -14.316  0.00  0.00    +0.136 C 
ATOM     23  C   UNL     1      37.249 -23.429 -12.977  0.00  0.00    +0.013 C 
ATOM     24  C   UNL     1      37.625 -24.761 -13.108  0.00  0.00    +0.161 C 
ATOM     25  C   UNL     1      37.761 -26.820 -14.495  0.00  0.00    +0.069 C 
ENDBRANCH   3  20
BRANCH   5  27
ATOM     26  O   UNL     1      34.105 -20.172 -20.292  0.00  0.00    -0.275 OA
ATOM     27  N   UNL     1      36.081 -21.054 -19.340  0.00  0.00    -0.274 N 
ATOM     28  C   UNL     1      35.324 -20.311 -20.279  0.00  0.00    +0.225 C 
ATOM     29  C   UNL     1      36.186 -19.658 -21.330  0.00  0.00    +0.095 C 
ATOM     30  H   UNL     1      37.054 -21.055 -19.486  0.00  0.00    +0.152 HD
ENDBRANCH   5  27
TORSDOF 3
ENDMDL
MODEL 6
REMARK VINA RESULT:     -10.1      3.213      6.822
REMARK  Name = 25138294
REMARK  3 active torsions:
REMARK  status: ('A' for Active; 'I' for Inactive)
REMARK    1  A    between atoms: N_4  and  C_7
REMARK    2  A    between atoms: C_5  and  C_25
REMARK    3  A    between atoms: C_6  and  C_15
REMARK                            x       y       z     vdW  Elec       q    Type
REMARK                         _______ _______ _______ _____ _____    ______ ____
ROOT
ATOM      1  N   UNL     1      34.045 -24.611 -14.158  0.00  0.00    -0.300 N 
ATOM      2  N   UNL     1      35.684 -24.098 -15.567  0.00  0.00    -0.302 N 
ATOM      3  C   UNL     1      33.465 -23.880 -15.156  0.00  0.00    +0.086 C 
ATOM      4  C   UNL     1      34.496 -23.574 -16.012  0.00  0.00    +0.058 C 
ATOM      5  C   UNL     1      35.378 -24.716 -14.448  0.00  0.00    +0.227 C 
ATOM      6  H   UNL     1      33.589 -24.993 -13.374  0.00  0.00    +0.150 HD
ATOM      7  H   UNL     1      36.569 -24.026 -15.991  0.00  0.00    +0.150 HD
ENDROOT
BRANCH   4  10
ATOM      8  N   UNL     1      36.473 -20.749 -19.389  0.00  0.00    -0.245 NA
ATOM      9  N   UNL     1      34.037 -20.600 -20.715  0.00  0.00    -0.245 NA
ATOM     10  C   UNL     1      34.376 -22.810 -17.223  0.00  0.00    -0.006 C 
ATOM     11  C   UNL     1      35.482 -22.137 -17.740  0.00  0.00    +0.074 C 
ATOM     12  C   UNL     1      33.159 -22.736 -17.885  0.00  0.00    -0.022 C 
ATOM     13  C   UNL     1      35.392 -21.389 -18.911  0.00  0.00    +0.077 C 
ATOM     14  C   UNL     1      34.158 -21.314 -19.581  0.00  0.00    +0.077 C 
ATOM     15  C   UNL     1      33.060 -21.990 -19.058  0.00  0.00    +0.073 C 
ATOM     16  C   UNL     1      36.331 -20.040 -20.523  0.00  0.00    +0.119 C 
ATOM     17  C   UNL     1      35.130 -19.967 -21.177  0.00  0.00    +0.119 C 
ENDBRANCH   4  10
BRANCH   3  20
ATOM     18  F   UNL     1      28.046 -22.916 -15.343  0.00  0.00    -0.202 F 
ATOM     19  N   UNL     1      31.283 -24.510 -15.765  0.00  0.00    -0.407 NA
ATOM     20  C   UNL     1      32.057 -23.571 -15.175  0.00  0.00    +0.127 C 
ATOM     21  C   UNL     1      31.569 -22.398 -14.623  0.00  0.00    +0.089 C 
ATOM     22  C   UNL     1      29.955 -24.256 -15.803  0.00  0.00    +0.136 C 
ATOM     23  C   UNL     1      30.198 -22.174 -14.679  0.00  0.00    +0.013 C 
ATOM     24  C   UNL     1      29.369 -23.116 -15.278  0.00  0.00    +0.161 C 
ATOM     25  C   UNL     1      29.099 -25.290 -16.454  0.00  0.00    +0.069 C 
ENDBRANCH   3  20
BRANCH   5  27
ATOM     26  O   UNL     1      38.277 -24.255 -13.777  0.00  0.00    -0.275 OA
ATOM     27  N   UNL     1      36.218 -25.406 -13.613  0.00  0.00    -0.274 N 
ATOM     28  C   UNL     1      37.582 -25.158 -13.321  0.00  0.00    +0.225 C 
ATOM     29  C   UNL     1      38.153 -26.151 -12.340  0.00  0.00    +0.095 C 
ATOM     30  H   UNL     1      35.819 -26.179 -13.154  0.00  0.00    +0.152 HD
ENDBRANCH   5  27
TORSDOF 3
ENDMDL
MODEL 7
REMARK VINA RESULT:      -9.9      3.204      6.952
REMARK  Name = 25138294
REMARK  3 active torsions:
REMARK  status: ('A' for Active; 'I' for Inactive)
REMARK    1  A    between atoms: N_4  and  C_7
REMARK    2  A    between atoms: C_5  and  C_25
REMARK    3  A    between atoms: C_6  and  C_15
REMARK                            x       y       z     vdW  Elec       q    Type
REMARK                         _______ _______ _______ _____ _____    ______ ____
ROOT
ATOM      1  N   UNL     1      37.029 -22.091 -17.376  0.00  0.00    -0.300 N 
ATOM      2  N   UNL     1      35.015 -21.777 -18.259  0.00  0.00    -0.302 N 
ATOM      3  C   UNL     1      36.153 -22.735 -16.549  0.00  0.00    +0.086 C 
ATOM      4  C   UNL     1      34.917 -22.527 -17.114  0.00  0.00    +0.058 C 
ATOM      5  C   UNL     1      36.299 -21.531 -18.389  0.00  0.00    +0.227 C 
ATOM      6  H   UNL     1      38.005 -22.039 -17.264  0.00  0.00    +0.150 HD
ATOM      7  H   UNL     1      34.285 -21.488 -18.852  0.00  0.00    +0.150 HD
ENDROOT
BRANCH   4  10
ATOM      8  N   UNL     1      32.391 -24.638 -13.584  0.00  0.00    -0.245 NA
ATOM      9  N   UNL     1      30.073 -24.443 -15.103  0.00  0.00    -0.245 NA
ATOM     10  C   UNL     1      33.670 -23.019 -16.598  0.00  0.00    -0.006 C 
ATOM     11  C   UNL     1      33.615 -23.598 -15.331  0.00  0.00    +0.074 C 
ATOM     12  C   UNL     1      32.512 -22.921 -17.356  0.00  0.00    -0.022 C 
ATOM     13  C   UNL     1      32.419 -24.083 -14.808  0.00  0.00    +0.077 C 
ATOM     14  C   UNL     1      31.246 -23.984 -15.578  0.00  0.00    +0.077 C 
ATOM     15  C   UNL     1      31.311 -23.404 -16.841  0.00  0.00    +0.073 C 
ATOM     16  C   UNL     1      31.210 -25.091 -13.128  0.00  0.00    +0.119 C 
ATOM     17  C   UNL     1      30.067 -24.994 -13.876  0.00  0.00    +0.119 C 
ENDBRANCH   4  10
BRANCH   3  20
ATOM     18  F   UNL     1      37.766 -25.651 -12.164  0.00  0.00    -0.202 F 
ATOM     19  N   UNL     1      36.685 -24.783 -15.522  0.00  0.00    -0.407 NA
ATOM     20  C   UNL     1      36.577 -23.444 -15.367  0.00  0.00    +0.127 C 
ATOM     21  C   UNL     1      36.846 -22.776 -14.184  0.00  0.00    +0.089 C 
ATOM     22  C   UNL     1      37.082 -25.483 -14.435  0.00  0.00    +0.136 C 
ATOM     23  C   UNL     1      37.253 -23.529 -13.088  0.00  0.00    +0.013 C 
ATOM     24  C   UNL     1      37.376 -24.909 -13.208  0.00  0.00    +0.161 C 
ATOM     25  C   UNL     1      37.201 -26.961 -14.602  0.00  0.00    +0.069 C 
ENDBRANCH   3  20
BRANCH   5  27
ATOM     26  O   UNL     1      35.173 -19.601 -20.407  0.00  0.00    -0.275 OA
ATOM     27  N   UNL     1      36.921 -20.816 -19.379  0.00  0.00    -0.274 N 
ATOM     28  C   UNL     1      36.356 -19.914 -20.313  0.00  0.00    +0.225 C 
ATOM     29  C   UNL     1      37.387 -19.324 -21.244  0.00  0.00    +0.095 C 
ATOM     30  H   UNL     1      37.894 -20.947 -19.450  0.00  0.00    +0.152 HD
ENDBRANCH   5  27
TORSDOF 3
ENDMDL
MODEL 8
REMARK VINA RESULT:      -9.4      9.991     13.759
REMARK  Name = 25138294
REMARK  3 active torsions:
REMARK  status: ('A' for Active; 'I' for Inactive)
REMARK    1  A    between atoms: N_4  and  C_7
REMARK    2  A    between atoms: C_5  and  C_25
REMARK    3  A    between atoms: C_6  and  C_15
REMARK                            x       y       z     vdW  Elec       q    Type
REMARK                         _______ _______ _______ _____ _____    ______ ____
ROOT
ATOM      1  N   UNL     1      32.630  -8.911 -23.466  0.00  0.00    -0.300 N 
ATOM      2  N   UNL     1      31.914 -10.026 -21.683  0.00  0.00    -0.302 N 
ATOM      3  C   UNL     1      33.065 -10.196 -23.629  0.00  0.00    +0.086 C 
ATOM      4  C   UNL     1      32.612 -10.865 -22.516  0.00  0.00    +0.058 C 
ATOM      5  C   UNL     1      31.944  -8.857 -22.284  0.00  0.00    +0.227 C 
ATOM      6  H   UNL     1      32.782  -8.161 -24.085  0.00  0.00    +0.150 HD
ATOM      7  H   UNL     1      31.487 -10.250 -20.825  0.00  0.00    +0.150 HD
ENDROOT
BRANCH   4  10
ATOM      8  N   UNL     1      34.909 -15.012 -23.420  0.00  0.00    -0.245 NA
ATOM      9  N   UNL     1      33.437 -16.280 -21.434  0.00  0.00    -0.245 NA
ATOM     10  C   UNL     1      32.824 -12.257 -22.236  0.00  0.00    -0.006 C 
ATOM     11  C   UNL     1      33.769 -12.983 -22.960  0.00  0.00    +0.074 C 
ATOM     12  C   UNL     1      32.089 -12.890 -21.244  0.00  0.00    -0.022 C 
ATOM     13  C   UNL     1      33.992 -14.334 -22.708  0.00  0.00    +0.077 C 
ATOM     14  C   UNL     1      33.247 -14.975 -21.703  0.00  0.00    +0.077 C 
ATOM     15  C   UNL     1      32.305 -14.242 -20.985  0.00  0.00    +0.073 C 
ATOM     16  C   UNL     1      35.084 -16.315 -23.137  0.00  0.00    +0.119 C 
ATOM     17  C   UNL     1      34.359 -16.940 -22.157  0.00  0.00    +0.119 C 
ENDBRANCH   4  10
BRANCH   3  20
ATOM     18  F   UNL     1      35.808 -11.978 -28.059  0.00  0.00    -0.202 F 
ATOM     19  N   UNL     1      33.280 -11.639 -25.473  0.00  0.00    -0.407 NA
ATOM     20  C   UNL     1      33.830 -10.619 -24.776  0.00  0.00    +0.127 C 
ATOM     21  C   UNL     1      35.026 -10.006 -25.111  0.00  0.00    +0.089 C 
ATOM     22  C   UNL     1      33.968 -12.064 -26.557  0.00  0.00    +0.136 C 
ATOM     23  C   UNL     1      35.703 -10.470 -26.233  0.00  0.00    +0.013 C 
ATOM     24  C   UNL     1      35.170 -11.518 -26.976  0.00  0.00    +0.161 C 
ATOM     25  C   UNL     1      33.364 -13.191 -27.328  0.00  0.00    +0.069 C 
ENDBRANCH   3  20
BRANCH   5  27
ATOM     26  O   UNL     1      31.177  -6.388 -23.826  0.00  0.00    -0.275 OA
ATOM     27  N   UNL     1      31.386  -7.680 -21.858  0.00  0.00    -0.274 N 
ATOM     28  C   UNL     1      31.037  -6.536 -22.616  0.00  0.00    +0.225 C 
ATOM     29  C   UNL     1      30.438  -5.441 -21.768  0.00  0.00    +0.095 C 
ATOM     30  H   UNL     1      31.202  -7.623 -20.893  0.00  0.00    +0.152 HD
ENDBRANCH   5  27
TORSDOF 3
ENDMDL
MODEL 9
REMARK VINA RESULT:      -9.2      7.440     10.893
REMARK  Name = 25138294
REMARK  3 active torsions:
REMARK  status: ('A' for Active; 'I' for Inactive)
REMARK    1  A    between atoms: N_4  and  C_7
REMARK    2  A    between atoms: C_5  and  C_25
REMARK    3  A    between atoms: C_6  and  C_15
REMARK                            x       y       z     vdW  Elec       q    Type
REMARK                         _______ _______ _______ _____ _____    ______ ____
ROOT
ATOM      1  N   UNL     1      32.209 -12.202 -22.112  0.00  0.00    -0.300 N 
ATOM      2  N   UNL     1      32.608 -13.680 -20.503  0.00  0.00    -0.302 N 
ATOM      3  C   UNL     1      32.820 -13.261 -22.721  0.00  0.00    +0.086 C 
ATOM      4  C   UNL     1      33.057 -14.160 -21.708  0.00  0.00    +0.058 C 
ATOM      5  C   UNL     1      32.103 -12.498 -20.781  0.00  0.00    +0.227 C 
ATOM      6  H   UNL     1      31.901 -11.376 -22.551  0.00  0.00    +0.150 HD
ATOM      7  H   UNL     1      32.654 -14.122 -19.625  0.00  0.00    +0.150 HD
ENDROOT
BRANCH   4  10
ATOM      8  N   UNL     1      33.280 -18.864 -20.653  0.00  0.00    -0.245 NA
ATOM      9  N   UNL     1      35.507 -19.143 -22.291  0.00  0.00    -0.245 NA
ATOM     10  C   UNL     1      33.688 -15.441 -21.860  0.00  0.00    -0.006 C 
ATOM     11  C   UNL     1      33.187 -16.554 -21.186  0.00  0.00    +0.074 C 
ATOM     12  C   UNL     1      34.800 -15.581 -22.678  0.00  0.00    -0.022 C 
ATOM     13  C   UNL     1      33.781 -17.807 -21.315  0.00  0.00    +0.077 C 
ATOM     14  C   UNL     1      34.909 -17.947 -22.143  0.00  0.00    +0.077 C 
ATOM     15  C   UNL     1      35.401 -16.831 -22.813  0.00  0.00    +0.073 C 
ATOM     16  C   UNL     1      33.892 -20.051 -20.814  0.00  0.00    +0.119 C 
ATOM     17  C   UNL     1      34.989 -20.189 -21.621  0.00  0.00    +0.119 C 
ENDBRANCH   4  10
BRANCH   3  20
ATOM     18  F   UNL     1      34.002 -13.171 -28.099  0.00  0.00    -0.202 F 
ATOM     19  N   UNL     1      33.836 -12.255 -24.588  0.00  0.00    -0.407 NA
ATOM     20  C   UNL     1      33.095 -13.292 -24.136  0.00  0.00    +0.127 C 
ATOM     21  C   UNL     1      32.626 -14.318 -24.939  0.00  0.00    +0.089 C 
ATOM     22  C   UNL     1      34.116 -12.249 -25.911  0.00  0.00    +0.136 C 
ATOM     23  C   UNL     1      32.935 -14.278 -26.294  0.00  0.00    +0.013 C 
ATOM     24  C   UNL     1      33.695 -13.227 -26.797  0.00  0.00    +0.161 C 
ATOM     25  C   UNL     1      34.932 -11.104 -26.412  0.00  0.00    +0.069 C 
ENDBRANCH   3  20
BRANCH   5  27
ATOM     26  O   UNL     1      32.145  -9.488 -20.753  0.00  0.00    -0.275 OA
ATOM     27  N   UNL     1      31.523 -11.609 -19.915  0.00  0.00    -0.274 N 
ATOM     28  C   UNL     1      31.564 -10.193 -19.934  0.00  0.00    +0.225 C 
ATOM     29  C   UNL     1      30.786  -9.576 -18.799  0.00  0.00    +0.095 C 
ATOM     30  H   UNL     1      31.005 -12.008 -19.180  0.00  0.00    +0.152 HD
ENDBRANCH   5  27
TORSDOF 3
ENDMDL
