MODEL 1
REMARK VINA RESULT:      -8.0      0.000      0.000
REMARK  Name = 6445230
REMARK  7 active torsions:
REMARK  status: ('A' for Active; 'I' for Inactive)
REMARK    1  A    between atoms: N_2  and  C_35
REMARK    2  A    between atoms: C_4  and  O_31
REMARK    3  A    between atoms: C_10  and  N_21
REMARK    4  A    between atoms: C_17  and  O_33
REMARK    5  A    between atoms: C_23  and  C_24
REMARK    6  A    between atoms: C_25  and  C_27
REMARK    7  A    between atoms: C_35  and  C_36
REMARK                            x       y       z     vdW  Elec       q    Type
REMARK                         _______ _______ _______ _____ _____    ______ ____
ROOT
ATOM      1  O   UNL     1      31.876 -10.833 -23.058  0.00  0.00    -0.474 OA
ATOM      2  N   UNL     1      31.858  -5.736 -24.010  0.00  0.00    +0.390 N 
ATOM      3  C   UNL     1      31.893  -8.421 -22.901  0.00  0.00    +0.079 C 
ATOM      4  C   UNL     1      32.347  -7.201 -22.090  0.00  0.00    +0.078 C 
ATOM      5  C   UNL     1      32.957  -6.188 -23.117  0.00  0.00    -0.028 C 
ATOM      6  C   UNL     1      31.557  -9.721 -22.140  0.00  0.00    +0.190 C 
ATOM      7  C   UNL     1      30.779  -7.997 -23.889  0.00  0.00    -0.013 C 
ATOM      8  C   UNL     1      33.034  -8.967 -23.687  0.00  0.00    +0.016 C 
ATOM      9  C   UNL     1      33.288  -7.586 -20.938  0.00  0.00    +0.027 C 
ATOM     10  C   UNL     1      32.369  -9.946 -20.838  0.00  0.00    +0.116 C 
ATOM     11  C   UNL     1      34.202  -6.780 -23.869  0.00  0.00    +0.008 C 
ATOM     12  C   UNL     1      31.204  -6.806 -24.769  0.00  0.00    -0.077 C 
ATOM     13  C   UNL     1      32.642  -8.660 -20.056  0.00  0.00    +0.026 C 
ATOM     14  C   UNL     1      34.089  -8.242 -24.211  0.00  0.00    -0.025 C 
ATOM     15  C   UNL     1      32.924 -10.338 -23.802  0.00  0.00    +0.168 C 
ATOM     16  C   UNL     1      35.030  -8.954 -24.954  0.00  0.00    -0.001 C 
ATOM     17  C   UNL     1      33.831 -11.057 -24.545  0.00  0.00    +0.167 C 
ATOM     18  C   UNL     1      34.890 -10.348 -25.133  0.00  0.00    +0.039 C 
ATOM     19  H   UNL     1      31.155  -5.391 -23.355  0.00  0.00    -0.080 HD
ENDROOT
BRANCH  10  21
ATOM     20  O   UNL     1      31.263 -13.113 -19.339  0.00  0.00    -0.270 OA
ATOM     21  N   UNL     1      31.696 -10.911 -19.994  0.00  0.00    -0.272 N 
ATOM     22  C   UNL     1      30.761 -10.362 -19.010  0.00  0.00    +0.115 C 
ATOM     23  C   UNL     1      31.845 -12.307 -20.068  0.00  0.00    +0.249 C 
BRANCH  23  24
ATOM     24  C   UNL     1      32.762 -12.802 -21.137  0.00  0.00    +0.058 C 
ATOM     25  C   UNL     1      32.855 -14.121 -21.377  0.00  0.00    +0.008 C 
BRANCH  25  27
ATOM     26  O   UNL     1      35.390 -15.800 -23.312  0.00  0.00    -0.447 OA
ATOM     27  C   UNL     1      33.665 -14.768 -22.380  0.00  0.00    +0.041 C 
ATOM     28  C   UNL     1      33.324 -15.008 -23.712  0.00  0.00    +0.044 C 
ATOM     29  C   UNL     1      34.913 -15.253 -22.164  0.00  0.00    +0.180 C 
ATOM     30  C   UNL     1      34.418 -15.646 -24.249  0.00  0.00    +0.180 C 
ENDBRANCH  25  27
ENDBRANCH  23  24
ENDBRANCH  10  21
BRANCH   4  31
ATOM     31  O   UNL     1      31.199  -6.592 -21.474  0.00  0.00    -0.388 OA
ATOM     32  H   UNL     1      31.271  -6.668 -20.509  0.00  0.00    +0.210 HD
ENDBRANCH   4  31
BRANCH  17  33
ATOM     33  O   UNL     1      33.734 -12.402 -24.681  0.00  0.00    -0.503 OA
ATOM     34  H   UNL     1      33.044 -12.868 -24.250  0.00  0.00    +0.292 HD
ENDBRANCH  17  33
BRANCH   2  35
ATOM     35  C   UNL     1      32.225  -4.615 -24.868  0.00  0.00    -0.077 C 
BRANCH  35  36
ATOM     36  C   UNL     1      32.532  -5.073 -26.257  0.00  0.00    -0.021 C 
ATOM     37  C   UNL     1      32.627  -4.055 -27.349  0.00  0.00    -0.002 C 
ATOM     38  C   UNL     1      33.864  -4.741 -26.849  0.00  0.00    -0.002 C 
ENDBRANCH  35  36
ENDBRANCH   2  35
TORSDOF 7
ENDMDL
MODEL 2
REMARK VINA RESULT:      -5.5      2.768      8.090
REMARK  Name = 6445230
REMARK  7 active torsions:
REMARK  status: ('A' for Active; 'I' for Inactive)
REMARK    1  A    between atoms: N_2  and  C_35
REMARK    2  A    between atoms: C_4  and  O_31
REMARK    3  A    between atoms: C_10  and  N_21
REMARK    4  A    between atoms: C_17  and  O_33
REMARK    5  A    between atoms: C_23  and  C_24
REMARK    6  A    between atoms: C_25  and  C_27
REMARK    7  A    between atoms: C_35  and  C_36
REMARK                            x       y       z     vdW  Elec       q    Type
REMARK                         _______ _______ _______ _____ _____    ______ ____
ROOT
ATOM      1  O   UNL     1      35.246  -7.752 -24.716  0.00  0.00    -0.474 OA
ATOM      2  N   UNL     1      31.917  -7.984 -20.747  0.00  0.00    +0.390 N 
ATOM      3  C   UNL     1      33.400  -7.443 -23.186  0.00  0.00    +0.079 C 
ATOM      4  C   UNL     1      31.920  -7.069 -23.035  0.00  0.00    +0.078 C 
ATOM      5  C   UNL     1      31.287  -8.141 -22.084  0.00  0.00    -0.028 C 
ATOM      6  C   UNL     1      34.211  -6.777 -24.317  0.00  0.00    +0.190 C 
ATOM      7  C   UNL     1      34.099  -7.346 -21.808  0.00  0.00    -0.013 C 
ATOM      8  C   UNL     1      33.527  -8.843 -23.679  0.00  0.00    +0.016 C 
ATOM      9  C   UNL     1      31.216  -6.925 -24.393  0.00  0.00    +0.027 C 
ATOM     10  C   UNL     1      33.394  -6.422 -25.587  0.00  0.00    +0.116 C 
ATOM     11  C   UNL     1      31.379  -9.591 -22.679  0.00  0.00    +0.008 C 
ATOM     12  C   UNL     1      33.372  -8.170 -20.728  0.00  0.00    -0.077 C 
ATOM     13  C   UNL     1      31.974  -5.937 -25.287  0.00  0.00    +0.026 C 
ATOM     14  C   UNL     1      32.657  -9.885 -23.419  0.00  0.00    -0.025 C 
ATOM     15  C   UNL     1      34.640  -8.967 -24.485  0.00  0.00    +0.168 C 
ATOM     16  C   UNL     1      32.993 -11.129 -23.950  0.00  0.00    -0.001 C 
ATOM     17  C   UNL     1      35.001 -10.189 -25.005  0.00  0.00    +0.167 C 
ATOM     18  C   UNL     1      34.166 -11.281 -24.722  0.00  0.00    +0.039 C 
ATOM     19  H   UNL     1      31.761  -6.999 -20.532  0.00  0.00    -0.080 HD
ENDROOT
BRANCH  10  21
ATOM     20  O   UNL     1      34.291  -3.289 -27.284  0.00  0.00    -0.270 OA
ATOM     21  N   UNL     1      34.103  -5.434 -26.373  0.00  0.00    -0.272 N 
ATOM     22  C   UNL     1      35.354  -5.880 -26.990  0.00  0.00    +0.115 C 
ATOM     23  C   UNL     1      33.673  -4.116 -26.611  0.00  0.00    +0.249 C 
BRANCH  23  24
ATOM     24  C   UNL     1      32.358  -3.748 -26.009  0.00  0.00    +0.058 C 
ATOM     25  C   UNL     1      32.319  -2.948 -24.930  0.00  0.00    +0.008 C 
BRANCH  25  27
ATOM     26  O   UNL     1      29.065  -1.786 -23.905  0.00  0.00    -0.447 OA
ATOM     27  C   UNL     1      31.144  -2.474 -24.239  0.00  0.00    +0.041 C 
ATOM     28  C   UNL     1      31.019  -2.208 -22.876  0.00  0.00    +0.044 C 
ATOM     29  C   UNL     1      29.956  -2.211 -24.838  0.00  0.00    +0.180 C 
ATOM     30  C   UNL     1      29.720  -1.786 -22.713  0.00  0.00    +0.180 C 
ENDBRANCH  25  27
ENDBRANCH  23  24
ENDBRANCH  10  21
BRANCH   4  31
ATOM     31  O   UNL     1      31.823  -5.781 -22.402  0.00  0.00    -0.388 OA
ATOM     32  H   UNL     1      31.832  -5.893 -21.438  0.00  0.00    +0.210 HD
ENDBRANCH   4  31
BRANCH  17  33
ATOM     33  O   UNL     1      36.097 -10.335 -25.787  0.00  0.00    -0.503 OA
ATOM     34  H   UNL     1      36.350 -11.187 -26.085  0.00  0.00    +0.292 HD
ENDBRANCH  17  33
BRANCH   2  35
ATOM     35  C   UNL     1      31.263  -8.758 -19.698  0.00  0.00    -0.077 C 
BRANCH  35  36
ATOM     36  C   UNL     1      32.039  -9.992 -19.368  0.00  0.00    -0.021 C 
ATOM     37  C   UNL     1      31.473 -10.957 -18.376  0.00  0.00    -0.002 C 
ATOM     38  C   UNL     1      31.521 -11.315 -19.832  0.00  0.00    -0.002 C 
ENDBRANCH  35  36
ENDBRANCH   2  35
TORSDOF 7
ENDMDL
MODEL 3
REMARK VINA RESULT:      -5.2      2.400      7.697
REMARK  Name = 6445230
REMARK  7 active torsions:
REMARK  status: ('A' for Active; 'I' for Inactive)
REMARK    1  A    between atoms: N_2  and  C_35
REMARK    2  A    between atoms: C_4  and  O_31
REMARK    3  A    between atoms: C_10  and  N_21
REMARK    4  A    between atoms: C_17  and  O_33
REMARK    5  A    between atoms: C_23  and  C_24
REMARK    6  A    between atoms: C_25  and  C_27
REMARK    7  A    between atoms: C_35  and  C_36
REMARK                            x       y       z     vdW  Elec       q    Type
REMARK                         _______ _______ _______ _____ _____    ______ ____
ROOT
ATOM      1  O   UNL     1      34.463 -10.505 -23.116  0.00  0.00    -0.474 OA
ATOM      2  N   UNL     1      33.585 -15.585 -23.678  0.00  0.00    +0.390 N 
ATOM      3  C   UNL     1      33.520 -12.731 -23.138  0.00  0.00    +0.079 C 
ATOM      4  C   UNL     1      32.240 -13.571 -23.227  0.00  0.00    +0.078 C 
ATOM      5  C   UNL     1      32.530 -14.713 -24.258  0.00  0.00    -0.028 C 
ATOM      6  C   UNL     1      33.441 -11.346 -22.461  0.00  0.00    +0.190 C 
ATOM      7  C   UNL     1      34.672 -13.605 -22.585  0.00  0.00    -0.013 C 
ATOM      8  C   UNL     1      33.909 -12.244 -24.491  0.00  0.00    +0.016 C 
ATOM      9  C   UNL     1      31.005 -12.716 -23.554  0.00  0.00    +0.027 C 
ATOM     10  C   UNL     1      32.078 -10.622 -22.610  0.00  0.00    +0.116 C 
ATOM     11  C   UNL     1      32.863 -14.155 -25.687  0.00  0.00    +0.008 C 
ATOM     12  C   UNL     1      34.854 -14.906 -23.391  0.00  0.00    -0.077 C 
ATOM     13  C   UNL     1      30.873 -11.563 -22.552  0.00  0.00    +0.026 C 
ATOM     14  C   UNL     1      33.687 -12.894 -25.690  0.00  0.00    -0.025 C 
ATOM     15  C   UNL     1      34.507 -11.004 -24.398  0.00  0.00    +0.168 C 
ATOM     16  C   UNL     1      34.175 -12.272 -26.839  0.00  0.00    -0.001 C 
ATOM     17  C   UNL     1      35.011 -10.381 -25.517  0.00  0.00    +0.167 C 
ATOM     18  C   UNL     1      34.847 -11.034 -26.748  0.00  0.00    +0.039 C 
ATOM     19  H   UNL     1      33.198 -15.844 -22.770  0.00  0.00    -0.080 HD
ENDROOT
BRANCH  10  21
ATOM     20  O   UNL     1      32.029  -7.345 -20.950  0.00  0.00    -0.270 OA
ATOM     21  N   UNL     1      31.952  -9.588 -21.605  0.00  0.00    -0.272 N 
ATOM     22  C   UNL     1      31.632 -10.043 -20.251  0.00  0.00    +0.115 C 
ATOM     23  C   UNL     1      32.141  -8.211 -21.820  0.00  0.00    +0.249 C 
BRANCH  23  24
ATOM     24  C   UNL     1      32.530  -7.822 -23.207  0.00  0.00    +0.058 C 
ATOM     25  C   UNL     1      32.741  -6.529 -23.502  0.00  0.00    +0.008 C 
BRANCH  25  27
ATOM     26  O   UNL     1      34.390  -5.568 -26.560  0.00  0.00    -0.447 OA
ATOM     27  C   UNL     1      33.145  -5.980 -24.774  0.00  0.00    +0.041 C 
ATOM     28  C   UNL     1      32.415  -5.112 -25.587  0.00  0.00    +0.044 C 
ATOM     29  C   UNL     1      34.330  -6.239 -25.380  0.00  0.00    +0.180 C 
ATOM     30  C   UNL     1      33.221  -4.885 -26.679  0.00  0.00    +0.180 C 
ENDBRANCH  25  27
ENDBRANCH  23  24
ENDBRANCH  10  21
BRANCH   4  31
ATOM     31  O   UNL     1      31.977 -14.167 -21.945  0.00  0.00    -0.388 OA
ATOM     32  H   UNL     1      32.027 -13.487 -21.255  0.00  0.00    +0.210 HD
ENDBRANCH   4  31
BRANCH  17  33
ATOM     33  O   UNL     1      35.614  -9.169 -25.447  0.00  0.00    -0.503 OA
ATOM     34  H   UNL     1      36.397  -9.007 -25.934  0.00  0.00    +0.292 HD
ENDBRANCH  17  33
BRANCH   2  35
ATOM     35  C   UNL     1      33.796 -16.823 -24.420  0.00  0.00    -0.077 C 
BRANCH  35  36
ATOM     36  C   UNL     1      34.940 -17.604 -23.861  0.00  0.00    -0.021 C 
ATOM     37  C   UNL     1      34.703 -18.484 -22.676  0.00  0.00    -0.002 C 
ATOM     38  C   UNL     1      34.949 -19.090 -24.026  0.00  0.00    -0.002 C 
ENDBRANCH  35  36
ENDBRANCH   2  35
TORSDOF 7
ENDMDL
