MODEL 1
REMARK VINA RESULT:      -7.1      0.000      0.000
REMARK  Name = 23009
REMARK  4 active torsions:
REMARK  status: ('A' for Active; 'I' for Inactive)
REMARK    1  A    between atoms: C_1  and  N_2
REMARK    2  A    between atoms: C_1  and  C_10
REMARK    3  A    between atoms: C_4  and  N_9
REMARK    4  A    between atoms: C_10  and  N_12
REMARK                            x       y       z     vdW  Elec       q    Type
REMARK                         _______ _______ _______ _____ _____    ______ ____
ROOT
ATOM      1  C   UNL     1      34.972 -17.158 -21.897  0.00  0.00    +0.076 C 
ENDROOT
BRANCH   1   2
ATOM      2  N   UNL     1      34.664 -16.919 -23.304  0.00  0.00    -0.253 N 
ATOM      3  N   UNL     1      34.579 -17.282 -25.478  0.00  0.00    -0.223 NA
ATOM      4  C   UNL     1      34.028 -15.837 -23.822  0.00  0.00    +0.218 C 
ATOM      5  C   UNL     1      34.980 -17.761 -24.322  0.00  0.00    +0.169 C 
ATOM      6  C   UNL     1      33.986 -16.083 -25.174  0.00  0.00    +0.140 C 
BRANCH   4   9
ATOM      7  O   UNL     1      32.478 -14.876 -22.417  0.00  0.00    -0.125 OA
ATOM      8  O   UNL     1      34.223 -13.685 -23.028  0.00  0.00    -0.125 OA
ATOM      9  N   UNL     1      33.559 -14.761 -23.062  0.00  0.00    +0.074 N 
ENDBRANCH   4   9
ENDBRANCH   1   2
BRANCH   1  10
ATOM     10  C   UNL     1      35.756 -18.452 -21.697  0.00  0.00    -0.055 C 
BRANCH  10  12
ATOM     11  O   UNL     1      33.867 -21.703 -19.832  0.00  0.00    -0.358 OA
ATOM     12  N   UNL     1      35.103 -19.287 -20.691  0.00  0.00    +0.391 N 
ATOM     13  C   UNL     1      33.743 -19.648 -21.116  0.00  0.00    -0.045 C 
ATOM     14  C   UNL     1      35.889 -20.501 -20.431  0.00  0.00    -0.045 C 
ATOM     15  C   UNL     1      33.087 -20.527 -20.056  0.00  0.00    +0.119 C 
ATOM     16  C   UNL     1      35.182 -21.362 -19.388  0.00  0.00    +0.119 C 
ATOM     17  H   UNL     1      35.042 -18.746 -19.828  0.00  0.00    -0.079 HD
ENDBRANCH  10  12
ENDBRANCH   1  10
TORSDOF 4
ENDMDL
MODEL 2
REMARK VINA RESULT:      -7.0      9.136     11.596
REMARK  Name = 23009
REMARK  4 active torsions:
REMARK  status: ('A' for Active; 'I' for Inactive)
REMARK    1  A    between atoms: C_1  and  N_2
REMARK    2  A    between atoms: C_1  and  C_10
REMARK    3  A    between atoms: C_4  and  N_9
REMARK    4  A    between atoms: C_10  and  N_12
REMARK                            x       y       z     vdW  Elec       q    Type
REMARK                         _______ _______ _______ _____ _____    ______ ____
ROOT
ATOM      1  C   UNL     1      35.715 -24.638 -13.779  0.00  0.00    +0.076 C 
ENDROOT
BRANCH   1   2
ATOM      2  N   UNL     1      37.083 -25.147 -13.843  0.00  0.00    -0.253 N 
ATOM      3  N   UNL     1      38.813 -26.296 -14.584  0.00  0.00    -0.223 NA
ATOM      4  C   UNL     1      38.099 -24.846 -12.996  0.00  0.00    +0.218 C 
ATOM      5  C   UNL     1      37.544 -26.016 -14.779  0.00  0.00    +0.169 C 
ATOM      6  C   UNL     1      39.166 -25.571 -13.474  0.00  0.00    +0.140 C 
BRANCH   4   9
ATOM      7  O   UNL     1      37.433 -24.381 -10.842  0.00  0.00    -0.125 OA
ATOM      8  O   UNL     1      38.438 -22.801 -11.995  0.00  0.00    -0.125 OA
ATOM      9  N   UNL     1      37.985 -23.978 -11.905  0.00  0.00    +0.074 N 
ENDBRANCH   4   9
ENDBRANCH   1   2
BRANCH   1  10
ATOM     10  C   UNL     1      35.554 -23.338 -14.560  0.00  0.00    -0.055 C 
BRANCH  10  12
ATOM     11  O   UNL     1      31.544 -23.956 -15.635  0.00  0.00    -0.358 OA
ATOM     12  N   UNL     1      34.142 -23.096 -14.852  0.00  0.00    +0.391 N 
ATOM     13  C   UNL     1      33.833 -23.434 -16.248  0.00  0.00    -0.045 C 
ATOM     14  C   UNL     1      33.283 -23.869 -13.944  0.00  0.00    -0.045 C 
ATOM     15  C   UNL     1      32.354 -23.185 -16.524  0.00  0.00    +0.119 C 
ATOM     16  C   UNL     1      31.815 -23.612 -14.275  0.00  0.00    +0.119 C 
ATOM     17  H   UNL     1      33.959 -22.103 -14.708  0.00  0.00    -0.079 HD
ENDBRANCH  10  12
ENDBRANCH   1  10
TORSDOF 4
ENDMDL
MODEL 3
REMARK VINA RESULT:      -7.0      8.605     11.422
REMARK  Name = 23009
REMARK  4 active torsions:
REMARK  status: ('A' for Active; 'I' for Inactive)
REMARK    1  A    between atoms: C_1  and  N_2
REMARK    2  A    between atoms: C_1  and  C_10
REMARK    3  A    between atoms: C_4  and  N_9
REMARK    4  A    between atoms: C_10  and  N_12
REMARK                            x       y       z     vdW  Elec       q    Type
REMARK                         _______ _______ _______ _____ _____    ______ ____
ROOT
ATOM      1  C   UNL     1      36.011 -23.475 -14.200  0.00  0.00    +0.076 C 
ENDROOT
BRANCH   1   2
ATOM      2  N   UNL     1      36.985 -24.523 -13.905  0.00  0.00    -0.253 N 
ATOM      3  N   UNL     1      38.210 -26.332 -14.208  0.00  0.00    -0.223 NA
ATOM      4  C   UNL     1      37.717 -24.652 -12.769  0.00  0.00    +0.218 C 
ATOM      5  C   UNL     1      37.305 -25.544 -14.742  0.00  0.00    +0.169 C 
ATOM      6  C   UNL     1      38.471 -25.783 -12.978  0.00  0.00    +0.140 C 
BRANCH   4   9
ATOM      7  O   UNL     1      36.847 -24.021 -10.733  0.00  0.00    -0.125 OA
ATOM      8  O   UNL     1      38.381 -22.747 -11.660  0.00  0.00    -0.125 OA
ATOM      9  N   UNL     1      37.645 -23.775 -11.681  0.00  0.00    +0.074 N 
ENDBRANCH   4   9
ENDBRANCH   1   2
BRANCH   1  10
ATOM     10  C   UNL     1      34.592 -23.896 -13.829  0.00  0.00    -0.055 C 
BRANCH  10  12
ATOM     11  O   UNL     1      32.182 -22.830 -17.096  0.00  0.00    -0.358 OA
ATOM     12  N   UNL     1      33.763 -23.985 -15.029  0.00  0.00    +0.391 N 
ATOM     13  C   UNL     1      32.410 -23.473 -14.768  0.00  0.00    -0.045 C 
ATOM     14  C   UNL     1      34.375 -23.246 -16.142  0.00  0.00    -0.045 C 
ATOM     15  C   UNL     1      31.568 -23.566 -16.036  0.00  0.00    +0.119 C 
ATOM     16  C   UNL     1      33.486 -23.342 -17.379  0.00  0.00    +0.119 C 
ATOM     17  H   UNL     1      33.695 -24.969 -15.290  0.00  0.00    -0.079 HD
ENDBRANCH  10  12
ENDBRANCH   1  10
TORSDOF 4
ENDMDL
MODEL 4
REMARK VINA RESULT:      -7.0      2.029      6.093
REMARK  Name = 23009
REMARK  4 active torsions:
REMARK  status: ('A' for Active; 'I' for Inactive)
REMARK    1  A    between atoms: C_1  and  N_2
REMARK    2  A    between atoms: C_1  and  C_10
REMARK    3  A    between atoms: C_4  and  N_9
REMARK    4  A    between atoms: C_10  and  N_12
REMARK                            x       y       z     vdW  Elec       q    Type
REMARK                         _______ _______ _______ _____ _____    ______ ____
ROOT
ATOM      1  C   UNL     1      35.570 -18.913 -21.371  0.00  0.00    +0.076 C 
ENDROOT
BRANCH   1   2
ATOM      2  N   UNL     1      34.636 -19.820 -20.710  0.00  0.00    -0.253 N 
ATOM      3  N   UNL     1      32.705 -20.717 -20.132  0.00  0.00    -0.223 NA
ATOM      4  C   UNL     1      34.952 -20.832 -19.862  0.00  0.00    +0.218 C 
ATOM      5  C   UNL     1      33.285 -19.780 -20.848  0.00  0.00    +0.169 C 
ATOM      6  C   UNL     1      33.738 -21.377 -19.515  0.00  0.00    +0.140 C 
BRANCH   4   9
ATOM      7  O   UNL     1      37.016 -21.747 -20.314  0.00  0.00    -0.125 OA
ATOM      8  O   UNL     1      36.664 -20.882 -18.324  0.00  0.00    -0.125 OA
ATOM      9  N   UNL     1      36.258 -21.166 -19.487  0.00  0.00    +0.074 N 
ENDBRANCH   4   9
ENDBRANCH   1   2
BRANCH   1  10
ATOM     10  C   UNL     1      34.990 -17.510 -21.523  0.00  0.00    -0.055 C 
BRANCH  10  12
ATOM     11  O   UNL     1      34.752 -16.707 -25.635  0.00  0.00    -0.358 OA
ATOM     12  N   UNL     1      34.460 -17.326 -22.872  0.00  0.00    +0.391 N 
ATOM     13  C   UNL     1      34.673 -15.946 -23.333  0.00  0.00    -0.045 C 
ATOM     14  C   UNL     1      35.081 -18.272 -23.810  0.00  0.00    -0.045 C 
ATOM     15  C   UNL     1      34.123 -15.783 -24.746  0.00  0.00    +0.119 C 
ATOM     16  C   UNL     1      34.523 -18.053 -25.213  0.00  0.00    +0.119 C 
ATOM     17  H   UNL     1      33.457 -17.508 -22.842  0.00  0.00    -0.079 HD
ENDBRANCH  10  12
ENDBRANCH   1  10
TORSDOF 4
ENDMDL
MODEL 5
REMARK VINA RESULT:      -6.9      6.961     11.096
REMARK  Name = 23009
REMARK  4 active torsions:
REMARK  status: ('A' for Active; 'I' for Inactive)
REMARK    1  A    between atoms: C_1  and  N_2
REMARK    2  A    between atoms: C_1  and  C_10
REMARK    3  A    between atoms: C_4  and  N_9
REMARK    4  A    between atoms: C_10  and  N_12
REMARK                            x       y       z     vdW  Elec       q    Type
REMARK                         _______ _______ _______ _____ _____    ______ ____
ROOT
ATOM      1  C   UNL     1      36.201 -23.549 -14.317  0.00  0.00    +0.076 C 
ENDROOT
BRANCH   1   2
ATOM      2  N   UNL     1      37.168 -24.593 -13.985  0.00  0.00    -0.253 N 
ATOM      3  N   UNL     1      38.411 -26.397 -14.240  0.00  0.00    -0.223 NA
ATOM      4  C   UNL     1      37.856 -24.718 -12.822  0.00  0.00    +0.218 C 
ATOM      5  C   UNL     1      37.523 -25.612 -14.809  0.00  0.00    +0.169 C 
ATOM      6  C   UNL     1      38.623 -25.846 -13.001  0.00  0.00    +0.140 C 
BRANCH   4   9
ATOM      7  O   UNL     1      36.902 -24.087 -10.824  0.00  0.00    -0.125 OA
ATOM      8  O   UNL     1      38.474 -22.814 -11.686  0.00  0.00    -0.125 OA
ATOM      9  N   UNL     1      37.739 -23.841 -11.738  0.00  0.00    +0.074 N 
ENDBRANCH   4   9
ENDBRANCH   1   2
BRANCH   1  10
ATOM     10  C   UNL     1      36.821 -22.452 -15.177  0.00  0.00    -0.055 C 
BRANCH  10  12
ATOM     11  O   UNL     1      34.816 -22.758 -18.851  0.00  0.00    -0.358 OA
ATOM     12  N   UNL     1      35.953 -22.151 -16.313  0.00  0.00    +0.391 N 
ATOM     13  C   UNL     1      36.735 -22.040 -17.553  0.00  0.00    -0.045 C 
ATOM     14  C   UNL     1      34.914 -23.180 -16.463  0.00  0.00    -0.045 C 
ATOM     15  C   UNL     1      35.807 -21.737 -18.724  0.00  0.00    +0.119 C 
ATOM     16  C   UNL     1      34.029 -22.852 -17.662  0.00  0.00    +0.119 C 
ATOM     17  H   UNL     1      35.500 -21.255 -16.132  0.00  0.00    -0.079 HD
ENDBRANCH  10  12
ENDBRANCH   1  10
TORSDOF 4
ENDMDL
MODEL 6
REMARK VINA RESULT:      -6.9      1.638      2.278
REMARK  Name = 23009
REMARK  4 active torsions:
REMARK  status: ('A' for Active; 'I' for Inactive)
REMARK    1  A    between atoms: C_1  and  N_2
REMARK    2  A    between atoms: C_1  and  C_10
REMARK    3  A    between atoms: C_4  and  N_9
REMARK    4  A    between atoms: C_10  and  N_12
REMARK                            x       y       z     vdW  Elec       q    Type
REMARK                         _______ _______ _______ _____ _____    ______ ____
ROOT
ATOM      1  C   UNL     1      34.647 -17.991 -22.844  0.00  0.00    +0.076 C 
ENDROOT
BRANCH   1   2
ATOM      2  N   UNL     1      34.486 -16.540 -22.885  0.00  0.00    -0.253 N 
ATOM      3  N   UNL     1      34.346 -14.468 -22.143  0.00  0.00    -0.223 NA
ATOM      4  C   UNL     1      34.274 -15.780 -23.990  0.00  0.00    +0.218 C 
ATOM      5  C   UNL     1      34.522 -15.724 -21.800  0.00  0.00    +0.169 C 
ATOM      6  C   UNL     1      34.190 -14.495 -23.506  0.00  0.00    +0.140 C 
BRANCH   4   9
ATOM      7  O   UNL     1      35.109 -17.006 -25.750  0.00  0.00    -0.125 OA
ATOM      8  O   UNL     1      33.156 -16.023 -25.987  0.00  0.00    -0.125 OA
ATOM      9  N   UNL     1      34.177 -16.288 -25.289  0.00  0.00    +0.074 N 
ENDBRANCH   4   9
ENDBRANCH   1   2
BRANCH   1  10
ATOM     10  C   UNL     1      35.710 -18.418 -21.836  0.00  0.00    -0.055 C 
BRANCH  10  12
ATOM     11  O   UNL     1      33.982 -21.657 -19.802  0.00  0.00    -0.358 OA
ATOM     12  N   UNL     1      35.108 -19.234 -20.783  0.00  0.00    +0.391 N 
ATOM     13  C   UNL     1      33.755 -19.663 -21.166  0.00  0.00    -0.045 C 
ATOM     14  C   UNL     1      35.945 -20.406 -20.489  0.00  0.00    -0.045 C 
ATOM     15  C   UNL     1      33.154 -20.522 -20.058  0.00  0.00    +0.119 C 
ATOM     16  C   UNL     1      35.291 -21.249 -19.399  0.00  0.00    +0.119 C 
ATOM     17  H   UNL     1      35.043 -18.661 -19.942  0.00  0.00    -0.079 HD
ENDBRANCH  10  12
ENDBRANCH   1  10
TORSDOF 4
ENDMDL
MODEL 7
REMARK VINA RESULT:      -6.9      0.937      1.264
REMARK  Name = 23009
REMARK  4 active torsions:
REMARK  status: ('A' for Active; 'I' for Inactive)
REMARK    1  A    between atoms: C_1  and  N_2
REMARK    2  A    between atoms: C_1  and  C_10
REMARK    3  A    between atoms: C_4  and  N_9
REMARK    4  A    between atoms: C_10  and  N_12
REMARK                            x       y       z     vdW  Elec       q    Type
REMARK                         _______ _______ _______ _____ _____    ______ ____
ROOT
ATOM      1  C   UNL     1      35.164 -16.773 -22.404  0.00  0.00    +0.076 C 
ENDROOT
BRANCH   1   2
ATOM      2  N   UNL     1      34.622 -16.482 -23.728  0.00  0.00    -0.253 N 
ATOM      3  N   UNL     1      34.225 -16.729 -25.884  0.00  0.00    -0.223 NA
ATOM      4  C   UNL     1      33.832 -15.431 -24.067  0.00  0.00    +0.218 C 
ATOM      5  C   UNL     1      34.837 -17.236 -24.837  0.00  0.00    +0.169 C 
ATOM      6  C   UNL     1      33.597 -15.604 -25.412  0.00  0.00    +0.140 C 
BRANCH   4   9
ATOM      7  O   UNL     1      32.353 -14.622 -22.500  0.00  0.00    -0.125 OA
ATOM      8  O   UNL     1      34.086 -13.384 -23.047  0.00  0.00    -0.125 OA
ATOM      9  N   UNL     1      33.408 -14.444 -23.173  0.00  0.00    +0.074 N 
ENDBRANCH   4   9
ENDBRANCH   1   2
BRANCH   1  10
ATOM     10  C   UNL     1      34.146 -17.480 -21.514  0.00  0.00    -0.055 C 
BRANCH  10  12
ATOM     11  O   UNL     1      36.055 -21.073 -20.486  0.00  0.00    -0.358 OA
ATOM     12  N   UNL     1      34.799 -18.531 -20.737  0.00  0.00    +0.391 N 
ATOM     13  C   UNL     1      34.026 -19.780 -20.796  0.00  0.00    -0.045 C 
ATOM     14  C   UNL     1      36.168 -18.762 -21.219  0.00  0.00    -0.045 C 
ATOM     15  C   UNL     1      34.733 -20.863 -19.988  0.00  0.00    +0.119 C 
ATOM     16  C   UNL     1      36.824 -19.872 -20.403  0.00  0.00    +0.119 C 
ATOM     17  H   UNL     1      34.843 -18.220 -19.766  0.00  0.00    -0.079 HD
ENDBRANCH  10  12
ENDBRANCH   1  10
TORSDOF 4
ENDMDL
MODEL 8
REMARK VINA RESULT:      -6.9      1.459      1.854
REMARK  Name = 23009
REMARK  4 active torsions:
REMARK  status: ('A' for Active; 'I' for Inactive)
REMARK    1  A    between atoms: C_1  and  N_2
REMARK    2  A    between atoms: C_1  and  C_10
REMARK    3  A    between atoms: C_4  and  N_9
REMARK    4  A    between atoms: C_10  and  N_12
REMARK                            x       y       z     vdW  Elec       q    Type
REMARK                         _______ _______ _______ _____ _____    ______ ____
ROOT
ATOM      1  C   UNL     1      35.221 -18.211 -21.425  0.00  0.00    +0.076 C 
ENDROOT
BRANCH   1   2
ATOM      2  N   UNL     1      34.883 -17.220 -22.443  0.00  0.00    -0.253 N 
ATOM      3  N   UNL     1      34.674 -16.325 -24.448  0.00  0.00    -0.223 NA
ATOM      4  C   UNL     1      34.339 -15.995 -22.231  0.00  0.00    +0.218 C 
ATOM      5  C   UNL     1      35.070 -17.384 -23.778  0.00  0.00    +0.169 C 
ATOM      6  C   UNL     1      34.218 -15.455 -23.490  0.00  0.00    +0.140 C 
BRANCH   4   9
ATOM      7  O   UNL     1      34.920 -14.991 -20.243  0.00  0.00    -0.125 OA
ATOM      8  O   UNL     1      32.813 -15.524 -20.574  0.00  0.00    -0.125 OA
ATOM      9  N   UNL     1      34.013 -15.485 -20.970  0.00  0.00    +0.074 N 
ENDBRANCH   4   9
ENDBRANCH   1   2
BRANCH   1  10
ATOM     10  C   UNL     1      34.121 -19.255 -21.258  0.00  0.00    -0.055 C 
BRANCH  10  12
ATOM     11  O   UNL     1      35.051 -22.655 -18.980  0.00  0.00    -0.358 OA
ATOM     12  N   UNL     1      34.420 -20.126 -20.123  0.00  0.00    +0.391 N 
ATOM     13  C   UNL     1      33.411 -21.187 -20.000  0.00  0.00    -0.045 C 
ATOM     14  C   UNL     1      35.759 -20.716 -20.257  0.00  0.00    -0.045 C 
ATOM     15  C   UNL     1      33.750 -22.088 -18.817  0.00  0.00    +0.119 C 
ATOM     16  C   UNL     1      36.043 -21.630 -19.068  0.00  0.00    +0.119 C 
ATOM     17  H   UNL     1      34.398 -19.555 -19.278  0.00  0.00    -0.079 HD
ENDBRANCH  10  12
ENDBRANCH   1  10
TORSDOF 4
ENDMDL
MODEL 9
REMARK VINA RESULT:      -6.8      8.618     10.637
REMARK  Name = 23009
REMARK  4 active torsions:
REMARK  status: ('A' for Active; 'I' for Inactive)
REMARK    1  A    between atoms: C_1  and  N_2
REMARK    2  A    between atoms: C_1  and  C_10
REMARK    3  A    between atoms: C_4  and  N_9
REMARK    4  A    between atoms: C_10  and  N_12
REMARK                            x       y       z     vdW  Elec       q    Type
REMARK                         _______ _______ _______ _____ _____    ______ ____
ROOT
ATOM      1  C   UNL     1      34.783 -23.520 -15.088  0.00  0.00    +0.076 C 
ENDROOT
BRANCH   1   2
ATOM      2  N   UNL     1      33.522 -23.389 -15.812  0.00  0.00    -0.253 N 
ATOM      3  N   UNL     1      32.151 -22.988 -17.493  0.00  0.00    -0.223 NA
ATOM      4  C   UNL     1      32.276 -23.605 -15.316  0.00  0.00    +0.218 C 
ATOM      5  C   UNL     1      33.409 -23.021 -17.115  0.00  0.00    +0.169 C 
ATOM      6  C   UNL     1      31.439 -23.350 -16.378  0.00  0.00    +0.140 C 
BRANCH   4   9
ATOM      7  O   UNL     1      31.911 -25.227 -13.724  0.00  0.00    -0.125 OA
ATOM      8  O   UNL     1      31.871 -23.118 -13.104  0.00  0.00    -0.125 OA
ATOM      9  N   UNL     1      32.009 -23.998 -14.001  0.00  0.00    +0.074 N 
ENDBRANCH   4   9
ENDBRANCH   1   2
BRANCH   1  10
ATOM     10  C   UNL     1      35.249 -24.971 -15.013  0.00  0.00    -0.055 C 
BRANCH  10  12
ATOM     11  O   UNL     1      37.326 -24.610 -11.384  0.00  0.00    -0.358 OA
ATOM     12  N   UNL     1      35.779 -25.263 -13.683  0.00  0.00    +0.391 N 
ATOM     13  C   UNL     1      37.248 -25.310 -13.706  0.00  0.00    -0.045 C 
ATOM     14  C   UNL     1      35.322 -24.262 -12.708  0.00  0.00    -0.045 C 
ATOM     15  C   UNL     1      37.778 -25.604 -12.306  0.00  0.00    +0.119 C 
ATOM     16  C   UNL     1      35.899 -24.579 -11.332  0.00  0.00    +0.119 C 
ATOM     17  H   UNL     1      35.428 -26.177 -13.400  0.00  0.00    -0.079 HD
ENDBRANCH  10  12
ENDBRANCH   1  10
TORSDOF 4
ENDMDL
