MODEL 1
REMARK VINA RESULT:      -7.4      0.000      0.000
REMARK  Name = 4754
REMARK  3 active torsions:
REMARK  status: ('A' for Active; 'I' for Inactive)
REMARK    1  A    between atoms: C_1  and  N_8
REMARK    2  A    between atoms: C_2  and  O_12
REMARK    3  A    between atoms: O_12  and  C_13
REMARK                            x       y       z     vdW  Elec       q    Type
REMARK                         _______ _______ _______ _____ _____    ______ ____
ROOT
ATOM      1  C   UNL     1      34.518 -19.485 -21.014  0.00  0.00    +0.051 C 
ATOM      2  C   UNL     1      34.491 -21.774 -19.420  0.00  0.00    +0.139 C 
ATOM      3  C   UNL     1      35.718 -20.102 -20.661  0.00  0.00    +0.018 C 
ATOM      4  C   UNL     1      33.305 -20.011 -20.571  0.00  0.00    +0.018 C 
ATOM      5  C   UNL     1      35.703 -21.248 -19.864  0.00  0.00    +0.038 C 
ATOM      6  C   UNL     1      33.292 -21.156 -19.773  0.00  0.00    +0.038 C 
ENDROOT
BRANCH   1   8
ATOM      7  O   UNL     1      35.205 -16.633 -20.328  0.00  0.00    -0.275 OA
ATOM      8  N   UNL     1      34.532 -18.339 -21.810  0.00  0.00    -0.284 N 
ATOM      9  C   UNL     1      34.860 -17.029 -21.437  0.00  0.00    +0.227 C 
ATOM     10  C   UNL     1      34.750 -16.073 -22.598  0.00  0.00    +0.095 C 
ATOM     11  H   UNL     1      34.279 -18.468 -22.754  0.00  0.00    +0.155 HD
ENDBRANCH   1   8
BRANCH   2  12
ATOM     12  O   UNL     1      34.477 -22.891 -18.643  0.00  0.00    -0.475 OA
BRANCH  12  13
ATOM     13  C   UNL     1      33.371 -23.053 -17.757  0.00  0.00    +0.206 C 
ATOM     14  C   UNL     1      33.891 -23.339 -16.365  0.00  0.00    +0.051 C 
ENDBRANCH  12  13
ENDBRANCH   2  12
TORSDOF 3
ENDMDL
MODEL 2
REMARK VINA RESULT:      -7.1      1.466      1.986
REMARK  Name = 4754
REMARK  3 active torsions:
REMARK  status: ('A' for Active; 'I' for Inactive)
REMARK    1  A    between atoms: C_1  and  N_8
REMARK    2  A    between atoms: C_2  and  O_12
REMARK    3  A    between atoms: O_12  and  C_13
REMARK                            x       y       z     vdW  Elec       q    Type
REMARK                         _______ _______ _______ _____ _____    ______ ____
ROOT
ATOM      1  C   UNL     1      34.643 -19.618 -20.934  0.00  0.00    +0.051 C 
ATOM      2  C   UNL     1      34.514 -21.869 -19.291  0.00  0.00    +0.139 C 
ATOM      3  C   UNL     1      33.405 -20.104 -20.515  0.00  0.00    +0.018 C 
ATOM      4  C   UNL     1      35.816 -20.255 -20.532  0.00  0.00    +0.018 C 
ATOM      5  C   UNL     1      33.341 -21.230 -19.692  0.00  0.00    +0.038 C 
ATOM      6  C   UNL     1      35.751 -21.382 -19.711  0.00  0.00    +0.038 C 
ENDROOT
BRANCH   1   8
ATOM      7  O   UNL     1      34.952 -19.394 -23.921  0.00  0.00    -0.275 OA
ATOM      8  N   UNL     1      34.708 -18.492 -21.756  0.00  0.00    -0.284 N 
ATOM      9  C   UNL     1      34.855 -18.445 -23.149  0.00  0.00    +0.227 C 
ATOM     10  C   UNL     1      34.881 -17.027 -23.661  0.00  0.00    +0.095 C 
ATOM     11  H   UNL     1      34.642 -17.621 -21.301  0.00  0.00    +0.155 HD
ENDBRANCH   1   8
BRANCH   2  12
ATOM     12  O   UNL     1      34.451 -22.966 -18.489  0.00  0.00    -0.475 OA
BRANCH  12  13
ATOM     13  C   UNL     1      33.298 -23.097 -17.658  0.00  0.00    +0.206 C 
ATOM     14  C   UNL     1      33.742 -23.393 -16.242  0.00  0.00    +0.051 C 
ENDBRANCH  12  13
ENDBRANCH   2  12
TORSDOF 3
ENDMDL
MODEL 3
REMARK VINA RESULT:      -7.1      3.103      7.100
REMARK  Name = 4754
REMARK  3 active torsions:
REMARK  status: ('A' for Active; 'I' for Inactive)
REMARK    1  A    between atoms: C_1  and  N_8
REMARK    2  A    between atoms: C_2  and  O_12
REMARK    3  A    between atoms: O_12  and  C_13
REMARK                            x       y       z     vdW  Elec       q    Type
REMARK                         _______ _______ _______ _____ _____    ______ ____
ROOT
ATOM      1  C   UNL     1      35.025 -18.542 -22.851  0.00  0.00    +0.051 C 
ATOM      2  C   UNL     1      34.546 -16.809 -24.984  0.00  0.00    +0.139 C 
ATOM      3  C   UNL     1      34.646 -19.052 -24.092  0.00  0.00    +0.018 C 
ATOM      4  C   UNL     1      35.166 -17.165 -22.675  0.00  0.00    +0.018 C 
ATOM      5  C   UNL     1      34.407 -18.185 -25.158  0.00  0.00    +0.038 C 
ATOM      6  C   UNL     1      34.925 -16.299 -23.742  0.00  0.00    +0.038 C 
ENDROOT
BRANCH   1   8
ATOM      7  O   UNL     1      33.108 -19.887 -20.956  0.00  0.00    -0.275 OA
ATOM      8  N   UNL     1      35.264 -19.408 -21.784  0.00  0.00    -0.284 N 
ATOM      9  C   UNL     1      34.329 -20.008 -20.929  0.00  0.00    +0.227 C 
ATOM     10  C   UNL     1      34.994 -20.882 -19.896  0.00  0.00    +0.095 C 
ATOM     11  H   UNL     1      36.209 -19.627 -21.609  0.00  0.00    +0.155 HD
ENDBRANCH   1   8
BRANCH   2  12
ATOM     12  O   UNL     1      34.314 -15.963 -26.024  0.00  0.00    -0.475 OA
BRANCH  12  13
ATOM     13  C   UNL     1      33.043 -15.316 -26.064  0.00  0.00    +0.206 C 
ATOM     14  C   UNL     1      33.200 -13.960 -26.716  0.00  0.00    +0.051 C 
ENDBRANCH  12  13
ENDBRANCH   2  12
TORSDOF 3
ENDMDL
MODEL 4
REMARK VINA RESULT:      -6.9      3.067      5.095
REMARK  Name = 4754
REMARK  3 active torsions:
REMARK  status: ('A' for Active; 'I' for Inactive)
REMARK    1  A    between atoms: C_1  and  N_8
REMARK    2  A    between atoms: C_2  and  O_12
REMARK    3  A    between atoms: O_12  and  C_13
REMARK                            x       y       z     vdW  Elec       q    Type
REMARK                         _______ _______ _______ _____ _____    ______ ____
ROOT
ATOM      1  C   UNL     1      34.595 -14.842 -22.593  0.00  0.00    +0.051 C 
ATOM      2  C   UNL     1      34.924 -17.311 -21.338  0.00  0.00    +0.139 C 
ATOM      3  C   UNL     1      34.976 -15.956 -23.339  0.00  0.00    +0.018 C 
ATOM      4  C   UNL     1      34.377 -14.960 -21.220  0.00  0.00    +0.018 C 
ATOM      5  C   UNL     1      35.140 -17.192 -22.711  0.00  0.00    +0.038 C 
ATOM      6  C   UNL     1      34.543 -16.196 -20.593  0.00  0.00    +0.038 C 
ENDROOT
BRANCH   1   8
ATOM      7  O   UNL     1      32.758 -14.014 -24.832  0.00  0.00    -0.275 OA
ATOM      8  N   UNL     1      34.430 -13.606 -23.220  0.00  0.00    -0.284 N 
ATOM      9  C   UNL     1      33.556 -13.275 -24.265  0.00  0.00    +0.227 C 
ATOM     10  C   UNL     1      33.683 -11.826 -24.662  0.00  0.00    +0.095 C 
ATOM     11  H   UNL     1      34.999 -12.874 -22.887  0.00  0.00    +0.155 HD
ENDBRANCH   1   8
BRANCH   2  12
ATOM     12  O   UNL     1      35.083 -18.516 -20.726  0.00  0.00    -0.475 OA
BRANCH  12  13
ATOM     13  C   UNL     1      34.447 -19.641 -21.331  0.00  0.00    +0.206 C 
ATOM     14  C   UNL     1      33.086 -19.836 -20.699  0.00  0.00    +0.051 C 
ENDBRANCH  12  13
ENDBRANCH   2  12
TORSDOF 3
ENDMDL
MODEL 5
REMARK VINA RESULT:      -6.8      2.097      6.363
REMARK  Name = 4754
REMARK  3 active torsions:
REMARK  status: ('A' for Active; 'I' for Inactive)
REMARK    1  A    between atoms: C_1  and  N_8
REMARK    2  A    between atoms: C_2  and  O_12
REMARK    3  A    between atoms: O_12  and  C_13
REMARK                            x       y       z     vdW  Elec       q    Type
REMARK                         _______ _______ _______ _____ _____    ______ ____
ROOT
ATOM      1  C   UNL     1      34.860 -19.134 -21.558  0.00  0.00    +0.051 C 
ATOM      2  C   UNL     1      34.919 -16.935 -23.273  0.00  0.00    +0.139 C 
ATOM      3  C   UNL     1      34.771 -19.323 -22.937  0.00  0.00    +0.018 C 
ATOM      4  C   UNL     1      34.978 -17.847 -21.036  0.00  0.00    +0.018 C 
ATOM      5  C   UNL     1      34.801 -18.223 -23.794  0.00  0.00    +0.038 C 
ATOM      6  C   UNL     1      35.007 -16.747 -21.894  0.00  0.00    +0.038 C 
ENDROOT
BRANCH   1   8
ATOM      7  O   UNL     1      32.563 -20.392 -20.071  0.00  0.00    -0.275 OA
ATOM      8  N   UNL     1      34.830 -20.234 -20.700  0.00  0.00    -0.284 N 
ATOM      9  C   UNL     1      33.726 -20.779 -20.029  0.00  0.00    +0.227 C 
ATOM     10  C   UNL     1      34.113 -21.972 -19.193  0.00  0.00    +0.095 C 
ATOM     11  H   UNL     1      35.692 -20.685 -20.546  0.00  0.00    +0.155 HD
ENDBRANCH   1   8
BRANCH   2  12
ATOM     12  O   UNL     1      34.949 -15.862 -24.110  0.00  0.00    -0.475 OA
BRANCH  12  13
ATOM     13  C   UNL     1      33.739 -15.119 -24.257  0.00  0.00    +0.206 C 
ATOM     14  C   UNL     1      33.934 -13.738 -23.671  0.00  0.00    +0.051 C 
ENDBRANCH  12  13
ENDBRANCH   2  12
TORSDOF 3
ENDMDL
MODEL 6
REMARK VINA RESULT:      -6.8      2.132      5.685
REMARK  Name = 4754
REMARK  3 active torsions:
REMARK  status: ('A' for Active; 'I' for Inactive)
REMARK    1  A    between atoms: C_1  and  N_8
REMARK    2  A    between atoms: C_2  and  O_12
REMARK    3  A    between atoms: O_12  and  C_13
REMARK                            x       y       z     vdW  Elec       q    Type
REMARK                         _______ _______ _______ _____ _____    ______ ____
ROOT
ATOM      1  C   UNL     1      33.504 -21.288 -19.461  0.00  0.00    +0.051 C 
ATOM      2  C   UNL     1      34.933 -19.715 -21.268  0.00  0.00    +0.139 C 
ATOM      3  C   UNL     1      34.878 -21.473 -19.611  0.00  0.00    +0.018 C 
ATOM      4  C   UNL     1      32.843 -20.317 -20.213  0.00  0.00    +0.018 C 
ATOM      5  C   UNL     1      35.592 -20.686 -20.515  0.00  0.00    +0.038 C 
ATOM      6  C   UNL     1      33.559 -19.531 -21.117  0.00  0.00    +0.038 C 
ENDROOT
BRANCH   1   8
ATOM      7  O   UNL     1      34.467 -23.126 -17.278  0.00  0.00    -0.275 OA
ATOM      8  N   UNL     1      32.788 -22.075 -18.557  0.00  0.00    -0.284 N 
ATOM      9  C   UNL     1      33.291 -22.918 -17.557  0.00  0.00    +0.227 C 
ATOM     10  C   UNL     1      32.184 -23.597 -16.789  0.00  0.00    +0.095 C 
ATOM     11  H   UNL     1      31.807 -22.032 -18.631  0.00  0.00    +0.155 HD
ENDBRANCH   1   8
BRANCH   2  12
ATOM     12  O   UNL     1      35.630 -18.948 -22.149  0.00  0.00    -0.475 OA
BRANCH  12  13
ATOM     13  C   UNL     1      34.874 -18.209 -23.107  0.00  0.00    +0.206 C 
ATOM     14  C   UNL     1      34.791 -19.006 -24.391  0.00  0.00    +0.051 C 
ENDBRANCH  12  13
ENDBRANCH   2  12
TORSDOF 3
ENDMDL
MODEL 7
REMARK VINA RESULT:      -6.7      2.711      7.303
REMARK  Name = 4754
REMARK  3 active torsions:
REMARK  status: ('A' for Active; 'I' for Inactive)
REMARK    1  A    between atoms: C_1  and  N_8
REMARK    2  A    between atoms: C_2  and  O_12
REMARK    3  A    between atoms: O_12  and  C_13
REMARK                            x       y       z     vdW  Elec       q    Type
REMARK                         _______ _______ _______ _____ _____    ______ ____
ROOT
ATOM      1  C   UNL     1      35.132 -16.960 -21.430  0.00  0.00    +0.051 C 
ATOM      2  C   UNL     1      34.208 -14.517 -22.410  0.00  0.00    +0.139 C 
ATOM      3  C   UNL     1      35.171 -16.699 -22.799  0.00  0.00    +0.018 C 
ATOM      4  C   UNL     1      34.632 -16.000 -20.550  0.00  0.00    +0.018 C 
ATOM      5  C   UNL     1      34.709 -15.477 -23.289  0.00  0.00    +0.038 C 
ATOM      6  C   UNL     1      34.170 -14.778 -21.041  0.00  0.00    +0.038 C 
ENDROOT
BRANCH   1   8
ATOM      7  O   UNL     1      33.854 -19.687 -21.458  0.00  0.00    -0.275 OA
ATOM      8  N   UNL     1      35.594 -18.182 -20.939  0.00  0.00    -0.284 N 
ATOM      9  C   UNL     1      34.953 -19.428 -20.978  0.00  0.00    +0.227 C 
ATOM     10  C   UNL     1      35.789 -20.507 -20.337  0.00  0.00    +0.095 C 
ATOM     11  H   UNL     1      36.481 -18.167 -20.512  0.00  0.00    +0.155 HD
ENDBRANCH   1   8
BRANCH   2  12
ATOM     12  O   UNL     1      33.759 -13.325 -22.888  0.00  0.00    -0.475 OA
BRANCH  12  13
ATOM     13  C   UNL     1      33.750 -13.155 -24.305  0.00  0.00    +0.206 C 
ATOM     14  C   UNL     1      33.869 -11.681 -24.626  0.00  0.00    +0.051 C 
ENDBRANCH  12  13
ENDBRANCH   2  12
TORSDOF 3
ENDMDL
MODEL 8
REMARK VINA RESULT:      -6.7      1.103      1.226
REMARK  Name = 4754
REMARK  3 active torsions:
REMARK  status: ('A' for Active; 'I' for Inactive)
REMARK    1  A    between atoms: C_1  and  N_8
REMARK    2  A    between atoms: C_2  and  O_12
REMARK    3  A    between atoms: O_12  and  C_13
REMARK                            x       y       z     vdW  Elec       q    Type
REMARK                         _______ _______ _______ _____ _____    ______ ____
ROOT
ATOM      1  C   UNL     1      35.231 -20.374 -20.489  0.00  0.00    +0.051 C 
ATOM      2  C   UNL     1      34.920 -22.197 -18.401  0.00  0.00    +0.139 C 
ATOM      3  C   UNL     1      36.353 -20.895 -19.846  0.00  0.00    +0.018 C 
ATOM      4  C   UNL     1      33.953 -20.764 -20.090  0.00  0.00    +0.018 C 
ATOM      5  C   UNL     1      36.197 -21.807 -18.802  0.00  0.00    +0.038 C 
ATOM      6  C   UNL     1      33.798 -21.676 -19.045  0.00  0.00    +0.038 C 
ENDROOT
BRANCH   1   8
ATOM      7  O   UNL     1      35.636 -17.390 -20.436  0.00  0.00    -0.275 OA
ATOM      8  N   UNL     1      35.386 -19.462 -21.534  0.00  0.00    -0.284 N 
ATOM      9  C   UNL     1      35.571 -18.075 -21.451  0.00  0.00    +0.227 C 
ATOM     10  C   UNL     1      35.698 -17.445 -22.816  0.00  0.00    +0.095 C 
ATOM     11  H   UNL     1      35.363 -19.840 -22.443  0.00  0.00    +0.155 HD
ENDBRANCH   1   8
BRANCH   2  12
ATOM     12  O   UNL     1      34.768 -23.087 -17.383  0.00  0.00    -0.475 OA
BRANCH  12  13
ATOM     13  C   UNL     1      33.444 -23.296 -16.895  0.00  0.00    +0.206 C 
ATOM     14  C   UNL     1      33.486 -23.410 -15.387  0.00  0.00    +0.051 C 
ENDBRANCH  12  13
ENDBRANCH   2  12
TORSDOF 3
ENDMDL
MODEL 9
REMARK VINA RESULT:      -6.7      2.800      4.582
REMARK  Name = 4754
REMARK  3 active torsions:
REMARK  status: ('A' for Active; 'I' for Inactive)
REMARK    1  A    between atoms: C_1  and  N_8
REMARK    2  A    between atoms: C_2  and  O_12
REMARK    3  A    between atoms: O_12  and  C_13
REMARK                            x       y       z     vdW  Elec       q    Type
REMARK                         _______ _______ _______ _____ _____    ______ ____
ROOT
ATOM      1  C   UNL     1      34.518 -16.179 -23.345  0.00  0.00    +0.051 C 
ATOM      2  C   UNL     1      35.506 -17.971 -21.448  0.00  0.00    +0.139 C 
ATOM      3  C   UNL     1      35.141 -17.357 -23.756  0.00  0.00    +0.018 C 
ATOM      4  C   UNL     1      34.388 -15.897 -21.985  0.00  0.00    +0.018 C 
ATOM      5  C   UNL     1      35.635 -18.253 -22.807  0.00  0.00    +0.038 C 
ATOM      6  C   UNL     1      34.882 -16.793 -21.037  0.00  0.00    +0.038 C 
ENDROOT
BRANCH   1   8
ATOM      7  O   UNL     1      33.401 -16.665 -26.099  0.00  0.00    -0.275 OA
ATOM      8  N   UNL     1      34.025 -15.283 -24.293  0.00  0.00    -0.284 N 
ATOM      9  C   UNL     1      33.515 -15.565 -25.568  0.00  0.00    +0.227 C 
ATOM     10  C   UNL     1      33.081 -14.313 -26.287  0.00  0.00    +0.095 C 
ATOM     11  H   UNL     1      34.035 -14.332 -24.035  0.00  0.00    +0.155 HD
ENDBRANCH   1   8
BRANCH   2  12
ATOM     12  O   UNL     1      35.987 -18.845 -20.523  0.00  0.00    -0.475 OA
BRANCH  12  13
ATOM     13  C   UNL     1      35.506 -20.187 -20.586  0.00  0.00    +0.206 C 
ATOM     14  C   UNL     1      36.398 -21.071 -19.741  0.00  0.00    +0.051 C 
ENDBRANCH  12  13
ENDBRANCH   2  12
TORSDOF 3
ENDMDL
