MODEL 1
REMARK VINA RESULT:     -10.3      0.000      0.000
REMARK  Name = 25262792
REMARK  2 active torsions:
REMARK  status: ('A' for Active; 'I' for Inactive)
REMARK    1  A    between atoms: C_24  and  C_25
REMARK    2  A    between atoms: C_28  and  C_33
REMARK                            x       y       z     vdW  Elec       q    Type
REMARK                         _______ _______ _______ _____ _____    ______ ____
ROOT
ATOM      1  O   UNL     1      37.669 -25.226 -11.999  0.00  0.00    -0.350 OA
ATOM      2  O   UNL     1      29.086 -25.033 -15.117  0.00  0.00    -0.350 OA
ATOM      3  N   UNL     1      36.203 -24.366 -14.240  0.00  0.00    -0.282 N 
ATOM      4  N   UNL     1      31.695 -24.028 -15.396  0.00  0.00    -0.230 N 
ATOM      5  N   UNL     1      33.936 -24.207 -14.804  0.00  0.00    -0.315 NA
ATOM      6  N   UNL     1      33.262 -22.933 -16.733  0.00  0.00    -0.265 NA
ATOM      7  N   UNL     1      34.811 -21.845 -18.066  0.00  0.00    -0.342 NA
ATOM      8  C   UNL     1      36.277 -25.808 -13.923  0.00  0.00    +0.105 C 
ATOM      9  C   UNL     1      31.271 -24.606 -14.107  0.00  0.00    +0.114 C 
ATOM     10  C   UNL     1      36.488 -23.450 -13.123  0.00  0.00    +0.125 C 
ATOM     11  C   UNL     1      37.567 -26.084 -13.134  0.00  0.00    +0.162 C 
ATOM     12  C   UNL     1      35.205 -23.873 -15.095  0.00  0.00    +0.194 C 
ATOM     13  C   UNL     1      30.614 -23.538 -16.263  0.00  0.00    +0.135 C 
ATOM     14  C   UNL     1      30.150 -25.623 -14.371  0.00  0.00    +0.163 C 
ATOM     15  C   UNL     1      37.767 -23.866 -12.415  0.00  0.00    +0.164 C 
ATOM     16  C   UNL     1      33.028 -23.708 -15.653  0.00  0.00    +0.213 C 
ATOM     17  C   UNL     1      29.542 -24.612 -16.403  0.00  0.00    +0.164 C 
ATOM     18  C   UNL     1      36.301 -26.677 -15.185  0.00  0.00    +0.024 C 
ATOM     19  C   UNL     1      35.564 -23.079 -16.182  0.00  0.00    +0.199 C 
ATOM     20  C   UNL     1      30.804 -23.512 -13.142  0.00  0.00    +0.025 C 
ATOM     21  C   UNL     1      34.532 -22.613 -17.004  0.00  0.00    +0.138 C 
ATOM     22  C   UNL     1      36.894 -22.741 -16.472  0.00  0.00    +0.002 C 
ATOM     23  C   UNL     1      37.173 -21.946 -17.570  0.00  0.00    +0.030 C 
ATOM     24  C   UNL     1      36.102 -21.528 -18.330  0.00  0.00    +0.143 C 
ENDROOT
BRANCH  24  25
ATOM     25  C   UNL     1      36.296 -20.694 -19.492  0.00  0.00    +0.031 C 
ATOM     26  C   UNL     1      35.245 -20.489 -20.387  0.00  0.00    +0.007 C 
ATOM     27  C   UNL     1      37.532 -20.090 -19.719  0.00  0.00    +0.003 C 
ATOM     28  C   UNL     1      35.432 -19.682 -21.509  0.00  0.00    +0.053 C 
ATOM     29  C   UNL     1      37.719 -19.283 -20.842  0.00  0.00    +0.000 C 
ATOM     30  C   UNL     1      36.668 -19.079 -21.737  0.00  0.00    +0.005 C 
BRANCH  28  33
ATOM     31  O   UNL     1      33.156 -19.589 -22.068  0.00  0.00    -0.270 OA
ATOM     32  N   UNL     1      34.678 -19.103 -23.749  0.00  0.00    -0.299 N 
ATOM     33  C   UNL     1      34.337 -19.469 -22.442  0.00  0.00    +0.246 C 
ATOM     34  C   UNL     1      33.705 -18.833 -24.784  0.00  0.00    +0.111 C 
ATOM     35  H   UNL     1      35.633 -19.026 -23.977  0.00  0.00    +0.150 HD
ENDBRANCH  28  33
ENDBRANCH  24  25
TORSDOF 2
ENDMDL
MODEL 2
REMARK VINA RESULT:      -9.6      1.568      1.771
REMARK  Name = 25262792
REMARK  2 active torsions:
REMARK  status: ('A' for Active; 'I' for Inactive)
REMARK    1  A    between atoms: C_24  and  C_25
REMARK    2  A    between atoms: C_28  and  C_33
REMARK                            x       y       z     vdW  Elec       q    Type
REMARK                         _______ _______ _______ _____ _____    ______ ____
ROOT
ATOM      1  O   UNL     1      37.700 -24.650 -13.011  0.00  0.00    -0.350 OA
ATOM      2  O   UNL     1      28.813 -25.003 -15.094  0.00  0.00    -0.350 OA
ATOM      3  N   UNL     1      35.937 -23.943 -15.085  0.00  0.00    -0.282 N 
ATOM      4  N   UNL     1      31.313 -23.875 -15.708  0.00  0.00    -0.230 N 
ATOM      5  N   UNL     1      33.614 -23.920 -15.380  0.00  0.00    -0.315 NA
ATOM      6  N   UNL     1      32.650 -22.747 -17.250  0.00  0.00    -0.265 NA
ATOM      7  N   UNL     1      33.972 -21.627 -18.788  0.00  0.00    -0.342 NA
ATOM      8  C   UNL     1      36.126 -25.367 -14.739  0.00  0.00    +0.105 C 
ATOM      9  C   UNL     1      31.074 -24.431 -14.362  0.00  0.00    +0.114 C 
ATOM     10  C   UNL     1      36.300 -22.976 -14.035  0.00  0.00    +0.125 C 
ATOM     11  C   UNL     1      37.513 -25.551 -14.101  0.00  0.00    +0.162 C 
ATOM     12  C   UNL     1      34.821 -23.531 -15.829  0.00  0.00    +0.194 C 
ATOM     13  C   UNL     1      30.113 -23.471 -16.454  0.00  0.00    +0.135 C 
ATOM     14  C   UNL     1      29.989 -25.512 -14.463  0.00  0.00    +0.163 C 
ATOM     15  C   UNL     1      37.673 -23.302 -13.472  0.00  0.00    +0.164 C 
ATOM     16  C   UNL     1      32.587 -23.497 -16.130  0.00  0.00    +0.213 C 
ATOM     17  C   UNL     1      29.093 -24.603 -16.436  0.00  0.00    +0.164 C 
ATOM     18  C   UNL     1      36.051 -26.276 -15.971  0.00  0.00    +0.024 C 
ATOM     19  C   UNL     1      35.006 -22.757 -16.972  0.00  0.00    +0.199 C 
ATOM     20  C   UNL     1      30.664 -23.329 -13.379  0.00  0.00    +0.025 C 
ATOM     21  C   UNL     1      33.861 -22.372 -17.679  0.00  0.00    +0.138 C 
ATOM     22  C   UNL     1      36.273 -22.361 -17.427  0.00  0.00    +0.002 C 
ATOM     23  C   UNL     1      36.377 -21.591 -18.572  0.00  0.00    +0.030 C 
ATOM     24  C   UNL     1      35.203 -21.254 -19.211  0.00  0.00    +0.143 C 
ENDROOT
BRANCH  24  25
ATOM     25  C   UNL     1      35.214 -20.450 -20.411  0.00  0.00    +0.031 C 
ATOM     26  C   UNL     1      35.068 -19.066 -20.324  0.00  0.00    +0.007 C 
ATOM     27  C   UNL     1      35.373 -21.059 -21.656  0.00  0.00    +0.003 C 
ATOM     28  C   UNL     1      35.079 -18.290 -21.483  0.00  0.00    +0.053 C 
ATOM     29  C   UNL     1      35.384 -20.282 -22.815  0.00  0.00    +0.000 C 
ATOM     30  C   UNL     1      35.237 -18.897 -22.728  0.00  0.00    +0.005 C 
BRANCH  28  33
ATOM     31  O   UNL     1      35.083 -16.261 -20.307  0.00  0.00    -0.270 OA
ATOM     32  N   UNL     1      34.625 -16.164 -22.578  0.00  0.00    -0.299 N 
ATOM     33  C   UNL     1      34.926 -16.846 -21.393  0.00  0.00    +0.246 C 
ATOM     34  C   UNL     1      34.467 -14.730 -22.656  0.00  0.00    +0.111 C 
ATOM     35  H   UNL     1      34.515 -16.690 -23.403  0.00  0.00    +0.150 HD
ENDBRANCH  28  33
ENDBRANCH  24  25
TORSDOF 2
ENDMDL
MODEL 3
REMARK VINA RESULT:      -8.1      1.318      4.883
REMARK  Name = 25262792
REMARK  2 active torsions:
REMARK  status: ('A' for Active; 'I' for Inactive)
REMARK    1  A    between atoms: C_24  and  C_25
REMARK    2  A    between atoms: C_28  and  C_33
REMARK                            x       y       z     vdW  Elec       q    Type
REMARK                         _______ _______ _______ _____ _____    ______ ____
ROOT
ATOM      1  O   UNL     1      29.644 -24.840 -15.277  0.00  0.00    -0.350 OA
ATOM      2  O   UNL     1      38.393 -25.474 -12.729  0.00  0.00    -0.350 OA
ATOM      3  N   UNL     1      32.162 -23.755 -15.906  0.00  0.00    -0.282 N 
ATOM      4  N   UNL     1      36.591 -24.583 -14.693  0.00  0.00    -0.230 N 
ATOM      5  N   UNL     1      34.378 -24.183 -15.282  0.00  0.00    -0.315 NA
ATOM      6  N   UNL     1      36.190 -23.207 -16.533  0.00  0.00    -0.265 NA
ATOM      7  N   UNL     1      35.800 -21.837 -18.359  0.00  0.00    -0.342 NA
ATOM      8  C   UNL     1      31.574 -23.514 -14.572  0.00  0.00    +0.105 C 
ATOM      9  C   UNL     1      36.188 -25.660 -13.768  0.00  0.00    +0.114 C 
ATOM     10  C   UNL     1      31.633 -24.919 -16.637  0.00  0.00    +0.125 C 
ATOM     11  C   UNL     1      30.043 -23.611 -14.671  0.00  0.00    +0.162 C 
ATOM     12  C   UNL     1      33.535 -23.563 -16.127  0.00  0.00    +0.194 C 
ATOM     13  C   UNL     1      38.039 -24.411 -14.881  0.00  0.00    +0.135 C 
ATOM     14  C   UNL     1      36.990 -25.514 -12.467  0.00  0.00    +0.163 C 
ATOM     15  C   UNL     1      30.114 -24.903 -16.621  0.00  0.00    +0.164 C 
ATOM     16  C   UNL     1      35.674 -23.964 -15.541  0.00  0.00    +0.213 C 
ATOM     17  C   UNL     1      38.726 -24.335 -13.523  0.00  0.00    +0.164 C 
ATOM     18  C   UNL     1      31.923 -22.124 -14.028  0.00  0.00    +0.024 C 
ATOM     19  C   UNL     1      33.953 -22.759 -17.183  0.00  0.00    +0.199 C 
ATOM     20  C   UNL     1      36.410 -27.038 -14.400  0.00  0.00    +0.025 C 
ATOM     21  C   UNL     1      35.333 -22.599 -17.361  0.00  0.00    +0.138 C 
ATOM     22  C   UNL     1      33.059 -22.119 -18.054  0.00  0.00    +0.002 C 
ATOM     23  C   UNL     1      33.552 -21.335 -19.083  0.00  0.00    +0.030 C 
ATOM     24  C   UNL     1      34.921 -21.227 -19.190  0.00  0.00    +0.143 C 
ENDROOT
BRANCH  24  25
ATOM     25  C   UNL     1      35.526 -20.434 -20.234  0.00  0.00    +0.031 C 
ATOM     26  C   UNL     1      34.753 -19.987 -21.306  0.00  0.00    +0.007 C 
ATOM     27  C   UNL     1      36.881 -20.112 -20.170  0.00  0.00    +0.003 C 
ATOM     28  C   UNL     1      35.336 -19.220 -22.314  0.00  0.00    +0.053 C 
ATOM     29  C   UNL     1      37.465 -19.345 -21.178  0.00  0.00    +0.000 C 
ATOM     30  C   UNL     1      36.692 -18.899 -22.251  0.00  0.00    +0.005 C 
BRANCH  28  33
ATOM     31  O   UNL     1      33.549 -19.411 -23.820  0.00  0.00    -0.270 OA
ATOM     32  N   UNL     1      34.900 -17.536 -24.017  0.00  0.00    -0.299 N 
ATOM     33  C   UNL     1      34.531 -18.753 -23.432  0.00  0.00    +0.246 C 
ATOM     34  C   UNL     1      34.186 -16.930 -25.118  0.00  0.00    +0.111 C 
ATOM     35  H   UNL     1      35.689 -17.068 -23.659  0.00  0.00    +0.150 HD
ENDBRANCH  28  33
ENDBRANCH  24  25
TORSDOF 2
ENDMDL
MODEL 4
REMARK VINA RESULT:      -7.3      5.853     12.306
REMARK  Name = 25262792
REMARK  2 active torsions:
REMARK  status: ('A' for Active; 'I' for Inactive)
REMARK    1  A    between atoms: C_24  and  C_25
REMARK    2  A    between atoms: C_28  and  C_33
REMARK                            x       y       z     vdW  Elec       q    Type
REMARK                         _______ _______ _______ _____ _____    ______ ____
ROOT
ATOM      1  O   UNL     1      32.698 -12.642 -27.908  0.00  0.00    -0.350 OA
ATOM      2  O   UNL     1      31.223  -9.928 -19.312  0.00  0.00    -0.350 OA
ATOM      3  N   UNL     1      33.248 -13.437 -25.267  0.00  0.00    -0.282 N 
ATOM      4  N   UNL     1      31.995 -12.043 -20.994  0.00  0.00    -0.230 N 
ATOM      5  N   UNL     1      32.611 -12.721 -23.130  0.00  0.00    -0.315 NA
ATOM      6  N   UNL     1      33.048 -14.113 -21.214  0.00  0.00    -0.265 NA
ATOM      7  N   UNL     1      34.095 -16.168 -21.425  0.00  0.00    -0.342 NA
ATOM      8  C   UNL     1      33.822 -12.178 -25.787  0.00  0.00    +0.105 C 
ATOM      9  C   UNL     1      31.185 -10.937 -21.538  0.00  0.00    +0.114 C 
ATOM     10  C   UNL     1      32.063 -13.943 -25.979  0.00  0.00    +0.125 C 
ATOM     11  C   UNL     1      33.943 -12.274 -27.316  0.00  0.00    +0.162 C 
ATOM     12  C   UNL     1      33.184 -13.675 -23.885  0.00  0.00    +0.194 C 
ATOM     13  C   UNL     1      31.906 -12.245 -19.540  0.00  0.00    +0.135 C 
ATOM     14  C   UNL     1      31.447  -9.678 -20.700  0.00  0.00    +0.163 C 
ATOM     15  C   UNL     1      32.314 -13.946 -27.479  0.00  0.00    +0.164 C 
ATOM     16  C   UNL     1      32.577 -13.003 -21.821  0.00  0.00    +0.213 C 
ATOM     17  C   UNL     1      32.128 -10.919 -18.824  0.00  0.00    +0.164 C 
ATOM     18  C   UNL     1      35.219 -11.901 -25.220  0.00  0.00    +0.024 C 
ATOM     19  C   UNL     1      33.703 -14.860 -23.368  0.00  0.00    +0.199 C 
ATOM     20  C   UNL     1      29.696 -11.297 -21.540  0.00  0.00    +0.025 C 
ATOM     21  C   UNL     1      33.613 -15.049 -21.984  0.00  0.00    +0.138 C 
ATOM     22  C   UNL     1      34.297 -15.845 -24.171  0.00  0.00    +0.002 C 
ATOM     23  C   UNL     1      34.791 -16.997 -23.584  0.00  0.00    +0.030 C 
ATOM     24  C   UNL     1      34.666 -17.108 -22.216  0.00  0.00    +0.143 C 
ENDROOT
BRANCH  24  25
ATOM     25  C   UNL     1      35.148 -18.276 -21.518  0.00  0.00    +0.031 C 
ATOM     26  C   UNL     1      34.242 -19.191 -20.980  0.00  0.00    +0.007 C 
ATOM     27  C   UNL     1      36.519 -18.491 -21.383  0.00  0.00    +0.003 C 
ATOM     28  C   UNL     1      34.708 -20.319 -20.306  0.00  0.00    +0.053 C 
ATOM     29  C   UNL     1      36.986 -19.621 -20.709  0.00  0.00    +0.000 C 
ATOM     30  C   UNL     1      36.079 -20.535 -20.170  0.00  0.00    +0.005 C 
BRANCH  28  33
ATOM     31  O   UNL     1      32.630 -21.405 -20.240  0.00  0.00    -0.270 OA
ATOM     32  N   UNL     1      34.202 -22.036 -18.657  0.00  0.00    -0.299 N 
ATOM     33  C   UNL     1      33.764 -21.273 -19.745  0.00  0.00    +0.246 C 
ATOM     34  C   UNL     1      33.392 -23.041 -18.006  0.00  0.00    +0.111 C 
ATOM     35  H   UNL     1      35.113 -21.880 -18.315  0.00  0.00    +0.150 HD
ENDBRANCH  28  33
ENDBRANCH  24  25
TORSDOF 2
ENDMDL
