MODEL 1
REMARK VINA RESULT:      -4.5      0.000      0.000
REMARK  Name = 31346
REMARK  1 active torsions:
REMARK  status: ('A' for Active; 'I' for Inactive)
REMARK    1  A    between atoms: S_1  and  C_6
REMARK                            x       y       z     vdW  Elec       q    Type
REMARK                         _______ _______ _______ _____ _____    ______ ____
ROOT
ATOM      1  S   UNL     1      27.939 -22.922 -16.463  0.00  0.00    +0.033 S 
ATOM      2  O   UNL     1      27.541 -23.966 -17.650  0.00  0.00    -0.069 OA
ATOM      3  O   UNL     1      28.862 -21.944 -17.004  0.00  0.00    -0.069 OA
ATOM      4  O   UNL     1      26.727 -22.532 -15.770  0.00  0.00    -0.069 OA
ENDROOT
BRANCH   1   6
ATOM      5  I   UNL     1      30.731 -23.297 -14.931  0.00  0.00    -0.046 I 
ATOM      6  C   UNL     1      28.842 -24.085 -15.449  0.00  0.00    +0.219 C 
ENDBRANCH   1   6
TORSDOF 1
ENDMDL
MODEL 2
REMARK VINA RESULT:      -4.1     11.800     12.301
REMARK  Name = 31346
REMARK  1 active torsions:
REMARK  status: ('A' for Active; 'I' for Inactive)
REMARK    1  A    between atoms: S_1  and  C_6
REMARK                            x       y       z     vdW  Elec       q    Type
REMARK                         _______ _______ _______ _____ _____    ______ ____
ROOT
ATOM      1  S   UNL     1      40.490 -25.877 -14.586  0.00  0.00    +0.033 S 
ATOM      2  O   UNL     1      41.123 -24.414 -14.239  0.00  0.00    -0.069 OA
ATOM      3  O   UNL     1      40.179 -25.917 -16.000  0.00  0.00    -0.069 OA
ATOM      4  O   UNL     1      41.305 -26.892 -13.949  0.00  0.00    -0.069 OA
ENDROOT
BRANCH   1   6
ATOM      5  I   UNL     1      37.340 -26.457 -14.742  0.00  0.00    -0.046 I 
ATOM      6  C   UNL     1      38.975 -25.678 -13.657  0.00  0.00    +0.219 C 
ENDBRANCH   1   6
TORSDOF 1
ENDMDL
MODEL 3
REMARK VINA RESULT:      -4.1     15.277     15.805
REMARK  Name = 31346
REMARK  1 active torsions:
REMARK  status: ('A' for Active; 'I' for Inactive)
REMARK    1  A    between atoms: S_1  and  C_6
REMARK                            x       y       z     vdW  Elec       q    Type
REMARK                         _______ _______ _______ _____ _____    ______ ____
ROOT
ATOM      1  S   UNL     1      41.908 -16.208 -16.449  0.00  0.00    +0.033 S 
ATOM      2  O   UNL     1      43.532 -16.083 -16.509  0.00  0.00    -0.069 OA
ATOM      3  O   UNL     1      41.527 -17.491 -17.004  0.00  0.00    -0.069 OA
ATOM      4  O   UNL     1      41.463 -15.775 -15.140  0.00  0.00    -0.069 OA
ENDROOT
BRANCH   1   6
ATOM      5  I   UNL     1      42.455 -13.106 -17.054  0.00  0.00    -0.046 I 
ATOM      6  C   UNL     1      41.551 -14.923 -17.640  0.00  0.00    +0.219 C 
ENDBRANCH   1   6
TORSDOF 1
ENDMDL
MODEL 4
REMARK VINA RESULT:      -4.0      9.231      9.430
REMARK  Name = 31346
REMARK  1 active torsions:
REMARK  status: ('A' for Active; 'I' for Inactive)
REMARK    1  A    between atoms: S_1  and  C_6
REMARK                            x       y       z     vdW  Elec       q    Type
REMARK                         _______ _______ _______ _____ _____    ______ ____
ROOT
ATOM      1  S   UNL     1      36.145 -24.238 -11.028  0.00  0.00    +0.033 S 
ATOM      2  O   UNL     1      36.762 -25.643 -11.580  0.00  0.00    -0.069 OA
ATOM      3  O   UNL     1      35.346 -24.519  -9.853  0.00  0.00    -0.069 OA
ATOM      4  O   UNL     1      37.202 -23.247 -11.018  0.00  0.00    -0.069 OA
ENDROOT
BRANCH   1   6
ATOM      5  I   UNL     1      36.018 -24.438 -14.226  0.00  0.00    -0.046 I 
ATOM      6  C   UNL     1      35.063 -23.922 -12.415  0.00  0.00    +0.219 C 
ENDBRANCH   1   6
TORSDOF 1
ENDMDL
MODEL 5
REMARK VINA RESULT:      -4.0     15.318     15.858
REMARK  Name = 31346
REMARK  1 active torsions:
REMARK  status: ('A' for Active; 'I' for Inactive)
REMARK    1  A    between atoms: S_1  and  C_6
REMARK                            x       y       z     vdW  Elec       q    Type
REMARK                         _______ _______ _______ _____ _____    ______ ____
ROOT
ATOM      1  S   UNL     1      42.128 -16.184 -16.581  0.00  0.00    +0.033 S 
ATOM      2  O   UNL     1      41.474 -15.728 -15.159  0.00  0.00    -0.069 OA
ATOM      3  O   UNL     1      43.566 -16.034 -16.493  0.00  0.00    -0.069 OA
ATOM      4  O   UNL     1      41.509 -17.429 -16.992  0.00  0.00    -0.069 OA
ENDROOT
BRANCH   1   6
ATOM      5  I   UNL     1      42.463 -13.043 -17.133  0.00  0.00    -0.046 I 
ATOM      6  C   UNL     1      41.456 -14.849 -17.561  0.00  0.00    +0.219 C 
ENDBRANCH   1   6
TORSDOF 1
ENDMDL
MODEL 6
REMARK VINA RESULT:      -4.0      9.917     10.416
REMARK  Name = 31346
REMARK  1 active torsions:
REMARK  status: ('A' for Active; 'I' for Inactive)
REMARK    1  A    between atoms: S_1  and  C_6
REMARK                            x       y       z     vdW  Elec       q    Type
REMARK                         _______ _______ _______ _____ _____    ______ ____
ROOT
ATOM      1  S   UNL     1      37.467 -23.727 -11.951  0.00  0.00    +0.033 S 
ATOM      2  O   UNL     1      36.721 -24.057 -10.540  0.00  0.00    -0.069 OA
ATOM      3  O   UNL     1      36.485 -23.201 -12.877  0.00  0.00    -0.069 OA
ATOM      4  O   UNL     1      38.703 -23.026 -11.663  0.00  0.00    -0.069 OA
ENDROOT
BRANCH   1   6
ATOM      5  I   UNL     1      39.069 -25.472 -14.113  0.00  0.00    -0.046 I 
ATOM      6  C   UNL     1      37.846 -25.417 -12.393  0.00  0.00    +0.219 C 
ENDBRANCH   1   6
TORSDOF 1
ENDMDL
MODEL 7
REMARK VINA RESULT:      -3.9      1.449      2.143
REMARK  Name = 31346
REMARK  1 active torsions:
REMARK  status: ('A' for Active; 'I' for Inactive)
REMARK    1  A    between atoms: S_1  and  C_6
REMARK                            x       y       z     vdW  Elec       q    Type
REMARK                         _______ _______ _______ _____ _____    ______ ____
ROOT
ATOM      1  S   UNL     1      28.369 -23.415 -16.313  0.00  0.00    +0.033 S 
ATOM      2  O   UNL     1      27.700 -22.036 -15.758  0.00  0.00    -0.069 OA
ATOM      3  O   UNL     1      28.347 -24.396 -15.247  0.00  0.00    -0.069 OA
ATOM      4  O   UNL     1      27.820 -23.695 -17.625  0.00  0.00    -0.069 OA
ENDROOT
BRANCH   1   6
ATOM      5  I   UNL     1      31.170 -23.192 -14.768  0.00  0.00    -0.046 I 
ATOM      6  C   UNL     1      30.031 -22.785 -16.499  0.00  0.00    +0.219 C 
ENDBRANCH   1   6
TORSDOF 1
ENDMDL
MODEL 8
REMARK VINA RESULT:      -3.8      1.522      2.299
REMARK  Name = 31346
REMARK  1 active torsions:
REMARK  status: ('A' for Active; 'I' for Inactive)
REMARK    1  A    between atoms: S_1  and  C_6
REMARK                            x       y       z     vdW  Elec       q    Type
REMARK                         _______ _______ _______ _____ _____    ______ ____
ROOT
ATOM      1  S   UNL     1      28.656 -22.461 -16.576  0.00  0.00    +0.033 S 
ATOM      2  O   UNL     1      28.680 -21.924 -15.037  0.00  0.00    -0.069 OA
ATOM      3  O   UNL     1      27.491 -21.909 -17.236  0.00  0.00    -0.069 OA
ATOM      4  O   UNL     1      29.989 -22.324 -17.129  0.00  0.00    -0.069 OA
ENDROOT
BRANCH   1   6
ATOM      5  I   UNL     1      29.889 -24.938 -14.954  0.00  0.00    -0.046 I 
ATOM      6  C   UNL     1      28.357 -24.182 -16.196  0.00  0.00    +0.219 C 
ENDBRANCH   1   6
TORSDOF 1
ENDMDL
MODEL 9
REMARK VINA RESULT:      -3.8     10.675     11.228
REMARK  Name = 31346
REMARK  1 active torsions:
REMARK  status: ('A' for Active; 'I' for Inactive)
REMARK    1  A    between atoms: S_1  and  C_6
REMARK                            x       y       z     vdW  Elec       q    Type
REMARK                         _______ _______ _______ _____ _____    ______ ____
ROOT
ATOM      1  S   UNL     1      39.443 -25.308 -14.283  0.00  0.00    +0.033 S 
ATOM      2  O   UNL     1      38.711 -24.143 -15.159  0.00  0.00    -0.069 OA
ATOM      3  O   UNL     1      39.035 -26.597 -14.802  0.00  0.00    -0.069 OA
ATOM      4  O   UNL     1      40.839 -24.951 -14.122  0.00  0.00    -0.069 OA
ENDROOT
BRANCH   1   6
ATOM      5  I   UNL     1      36.927 -23.722 -13.082  0.00  0.00    -0.046 I 
ATOM      6  C   UNL     1      38.582 -24.992 -12.749  0.00  0.00    +0.219 C 
ENDBRANCH   1   6
TORSDOF 1
ENDMDL
