MODEL 1
REMARK VINA RESULT:      -7.6      0.000      0.000
REMARK  Name = 450268
REMARK  5 active torsions:
REMARK  status: ('A' for Active; 'I' for Inactive)
REMARK    1  A    between atoms: N_2  and  C_13
REMARK    2  A    between atoms: C_3  and  C_5
REMARK    3  A    between atoms: C_8  and  O_11
REMARK    4  A    between atoms: C_13  and  C_15
REMARK    5  A    between atoms: C_15  and  O_16
REMARK                            x       y       z     vdW  Elec       q    Type
REMARK                         _______ _______ _______ _____ _____    ______ ____
ROOT
ATOM      1  O   UNL     1      35.298 -17.214 -20.740  0.00  0.00    -0.270 OA
ATOM      2  N   UNL     1      34.961 -18.294 -22.764  0.00  0.00    -0.291 N 
ATOM      3  C   UNL     1      35.129 -18.270 -21.375  0.00  0.00    +0.246 C 
ATOM      4  H   UNL     1      34.831 -19.167 -23.202  0.00  0.00    +0.150 HD
ENDROOT
BRANCH   3   5
ATOM      5  C   UNL     1      35.124 -19.551 -20.686  0.00  0.00    +0.056 C 
ATOM      6  C   UNL     1      33.914 -20.178 -20.388  0.00  0.00    +0.041 C 
ATOM      7  C   UNL     1      36.330 -20.150 -20.320  0.00  0.00    +0.005 C 
ATOM      8  C   UNL     1      33.911 -21.406 -19.726  0.00  0.00    +0.134 C 
ATOM      9  C   UNL     1      36.325 -21.377 -19.658  0.00  0.00    +0.003 C 
ATOM     10  C   UNL     1      35.115 -22.006 -19.362  0.00  0.00    +0.037 C 
BRANCH   8  11
ATOM     11  O   UNL     1      32.730 -22.020 -19.438  0.00  0.00    -0.506 OA
ATOM     12  H   UNL     1      32.029 -22.002 -20.059  0.00  0.00    +0.292 HD
ENDBRANCH   8  11
ENDBRANCH   3   5
BRANCH   2  13
ATOM     13  C   UNL     1      34.965 -17.109 -23.590  0.00  0.00    +0.201 C 
BRANCH  13  15
ATOM     14  O   UNL     1      34.604 -16.539 -25.901  0.00  0.00    -0.248 OA
ATOM     15  C   UNL     1      34.567 -17.386 -25.018  0.00  0.00    +0.334 C 
BRANCH  15  16
ATOM     16  O   UNL     1      34.163 -18.660 -25.228  0.00  0.00    -0.479 OA
ATOM     17  H   UNL     1      34.650 -19.218 -25.801  0.00  0.00    +0.295 HD
ENDBRANCH  15  16
ENDBRANCH  13  15
ENDBRANCH   2  13
TORSDOF 5
ENDMDL
MODEL 2
REMARK VINA RESULT:      -7.6      1.253      1.840
REMARK  Name = 450268
REMARK  5 active torsions:
REMARK  status: ('A' for Active; 'I' for Inactive)
REMARK    1  A    between atoms: N_2  and  C_13
REMARK    2  A    between atoms: C_3  and  C_5
REMARK    3  A    between atoms: C_8  and  O_11
REMARK    4  A    between atoms: C_13  and  C_15
REMARK    5  A    between atoms: C_15  and  O_16
REMARK                            x       y       z     vdW  Elec       q    Type
REMARK                         _______ _______ _______ _____ _____    ______ ____
ROOT
ATOM      1  O   UNL     1      36.659 -18.349 -22.165  0.00  0.00    -0.270 OA
ATOM      2  N   UNL     1      34.551 -17.654 -22.838  0.00  0.00    -0.291 N 
ATOM      3  C   UNL     1      35.422 -18.450 -22.084  0.00  0.00    +0.246 C 
ATOM      4  H   UNL     1      33.582 -17.788 -22.722  0.00  0.00    +0.150 HD
ENDROOT
BRANCH   3   5
ATOM      5  C   UNL     1      34.820 -19.435 -21.200  0.00  0.00    +0.056 C 
ATOM      6  C   UNL     1      35.628 -20.334 -20.504  0.00  0.00    +0.041 C 
ATOM      7  C   UNL     1      33.434 -19.483 -21.051  0.00  0.00    +0.005 C 
ATOM      8  C   UNL     1      35.049 -21.280 -19.657  0.00  0.00    +0.134 C 
ATOM      9  C   UNL     1      32.856 -20.429 -20.205  0.00  0.00    +0.003 C 
ATOM     10  C   UNL     1      33.664 -21.327 -19.507  0.00  0.00    +0.037 C 
BRANCH   8  11
ATOM     11  O   UNL     1      35.837 -22.156 -18.976  0.00  0.00    -0.506 OA
ATOM     12  H   UNL     1      36.478 -22.663 -19.434  0.00  0.00    +0.292 HD
ENDBRANCH   8  11
ENDBRANCH   3   5
BRANCH   2  13
ATOM     13  C   UNL     1      34.997 -16.649 -23.775  0.00  0.00    +0.201 C 
BRANCH  13  15
ATOM     14  O   UNL     1      34.232 -16.018 -25.968  0.00  0.00    -0.248 OA
ATOM     15  C   UNL     1      34.528 -16.910 -25.183  0.00  0.00    +0.334 C 
BRANCH  15  16
ATOM     16  O   UNL     1      34.463 -18.224 -25.496  0.00  0.00    -0.479 OA
ATOM     17  H   UNL     1      34.691 -18.870 -24.857  0.00  0.00    +0.295 HD
ENDBRANCH  15  16
ENDBRANCH  13  15
ENDBRANCH   2  13
TORSDOF 5
ENDMDL
MODEL 3
REMARK VINA RESULT:      -7.4      8.491      9.443
REMARK  Name = 450268
REMARK  5 active torsions:
REMARK  status: ('A' for Active; 'I' for Inactive)
REMARK    1  A    between atoms: N_2  and  C_13
REMARK    2  A    between atoms: C_3  and  C_5
REMARK    3  A    between atoms: C_8  and  O_11
REMARK    4  A    between atoms: C_13  and  C_15
REMARK    5  A    between atoms: C_15  and  O_16
REMARK                            x       y       z     vdW  Elec       q    Type
REMARK                         _______ _______ _______ _____ _____    ______ ____
ROOT
ATOM      1  O   UNL     1      27.878 -24.254 -17.205  0.00  0.00    -0.270 OA
ATOM      2  N   UNL     1      27.608 -22.315 -15.961  0.00  0.00    -0.291 N 
ATOM      3  C   UNL     1      28.334 -23.434 -16.387  0.00  0.00    +0.246 C 
ATOM      4  H   UNL     1      28.030 -21.707 -15.312  0.00  0.00    +0.150 HD
ENDROOT
BRANCH   3   5
ATOM      5  C   UNL     1      29.656 -23.622 -15.813  0.00  0.00    +0.056 C 
ATOM      6  C   UNL     1      29.813 -24.388 -14.657  0.00  0.00    +0.041 C 
ATOM      7  C   UNL     1      30.768 -23.035 -16.417  0.00  0.00    +0.005 C 
ATOM      8  C   UNL     1      31.082 -24.567 -14.107  0.00  0.00    +0.134 C 
ATOM      9  C   UNL     1      32.036 -23.214 -15.866  0.00  0.00    +0.003 C 
ATOM     10  C   UNL     1      32.193 -23.981 -14.711  0.00  0.00    +0.037 C 
BRANCH   8  11
ATOM     11  O   UNL     1      31.236 -25.315 -12.980  0.00  0.00    -0.506 OA
ATOM     12  H   UNL     1      30.863 -26.174 -12.934  0.00  0.00    +0.292 HD
ENDBRANCH   8  11
ENDBRANCH   3   5
BRANCH   2  13
ATOM     13  C   UNL     1      26.274 -22.005 -16.422  0.00  0.00    +0.201 C 
BRANCH  13  15
ATOM     14  O   UNL     1      26.158 -20.154 -17.955  0.00  0.00    -0.248 OA
ATOM     15  C   UNL     1      26.259 -21.362 -17.785  0.00  0.00    +0.334 C 
BRANCH  15  16
ATOM     16  O   UNL     1      26.367 -22.247 -18.802  0.00  0.00    -0.479 OA
ATOM     17  H   UNL     1      25.894 -23.056 -18.772  0.00  0.00    +0.295 HD
ENDBRANCH  15  16
ENDBRANCH  13  15
ENDBRANCH   2  13
TORSDOF 5
ENDMDL
MODEL 4
REMARK VINA RESULT:      -7.4      1.787      2.584
REMARK  Name = 450268
REMARK  5 active torsions:
REMARK  status: ('A' for Active; 'I' for Inactive)
REMARK    1  A    between atoms: N_2  and  C_13
REMARK    2  A    between atoms: C_3  and  C_5
REMARK    3  A    between atoms: C_8  and  O_11
REMARK    4  A    between atoms: C_13  and  C_15
REMARK    5  A    between atoms: C_15  and  O_16
REMARK                            x       y       z     vdW  Elec       q    Type
REMARK                         _______ _______ _______ _____ _____    ______ ____
ROOT
ATOM      1  O   UNL     1      34.390 -19.283 -22.865  0.00  0.00    -0.270 OA
ATOM      2  N   UNL     1      35.024 -17.729 -21.265  0.00  0.00    -0.291 N 
ATOM      3  C   UNL     1      34.721 -19.027 -21.694  0.00  0.00    +0.246 C 
ATOM      4  H   UNL     1      35.279 -17.599 -20.323  0.00  0.00    +0.150 HD
ENDROOT
BRANCH   3   5
ATOM      5  C   UNL     1      34.784 -20.084 -20.697  0.00  0.00    +0.056 C 
ATOM      6  C   UNL     1      33.607 -20.631 -20.185  0.00  0.00    +0.041 C 
ATOM      7  C   UNL     1      36.021 -20.550 -20.252  0.00  0.00    +0.005 C 
ATOM      8  C   UNL     1      33.668 -21.645 -19.228  0.00  0.00    +0.134 C 
ATOM      9  C   UNL     1      36.082 -21.563 -19.296  0.00  0.00    +0.003 C 
ATOM     10  C   UNL     1      34.905 -22.111 -18.784  0.00  0.00    +0.037 C 
BRANCH   8  11
ATOM     11  O   UNL     1      32.521 -22.180 -18.729  0.00  0.00    -0.506 OA
ATOM     12  H   UNL     1      32.507 -23.070 -18.438  0.00  0.00    +0.292 HD
ENDBRANCH   8  11
ENDBRANCH   3   5
BRANCH   2  13
ATOM     13  C   UNL     1      34.984 -16.572 -22.130  0.00  0.00    +0.201 C 
BRANCH  13  15
ATOM     14  O   UNL     1      33.848 -14.456 -21.976  0.00  0.00    -0.248 OA
ATOM     15  C   UNL     1      34.506 -15.329 -21.425  0.00  0.00    +0.334 C 
BRANCH  15  16
ATOM     16  O   UNL     1      34.876 -15.269 -20.125  0.00  0.00    -0.479 OA
ATOM     17  H   UNL     1      34.223 -15.231 -19.453  0.00  0.00    +0.295 HD
ENDBRANCH  15  16
ENDBRANCH  13  15
ENDBRANCH   2  13
TORSDOF 5
ENDMDL
MODEL 5
REMARK VINA RESULT:      -7.4      1.866      5.753
REMARK  Name = 450268
REMARK  5 active torsions:
REMARK  status: ('A' for Active; 'I' for Inactive)
REMARK    1  A    between atoms: N_2  and  C_13
REMARK    2  A    between atoms: C_3  and  C_5
REMARK    3  A    between atoms: C_8  and  O_11
REMARK    4  A    between atoms: C_13  and  C_15
REMARK    5  A    between atoms: C_15  and  O_16
REMARK                            x       y       z     vdW  Elec       q    Type
REMARK                         _______ _______ _______ _____ _____    ______ ____
ROOT
ATOM      1  O   UNL     1      36.482 -19.066 -20.311  0.00  0.00    -0.270 OA
ATOM      2  N   UNL     1      34.700 -20.494 -20.719  0.00  0.00    -0.291 N 
ATOM      3  C   UNL     1      35.528 -19.409 -21.032  0.00  0.00    +0.246 C 
ATOM      4  H   UNL     1      33.963 -20.709 -21.336  0.00  0.00    +0.150 HD
ENDROOT
BRANCH   3   5
ATOM      5  C   UNL     1      35.214 -18.665 -22.242  0.00  0.00    +0.056 C 
ATOM      6  C   UNL     1      35.261 -17.271 -22.236  0.00  0.00    +0.041 C 
ATOM      7  C   UNL     1      34.863 -19.346 -23.408  0.00  0.00    +0.005 C 
ATOM      8  C   UNL     1      34.958 -16.558 -23.397  0.00  0.00    +0.134 C 
ATOM      9  C   UNL     1      34.560 -18.634 -24.567  0.00  0.00    +0.003 C 
ATOM     10  C   UNL     1      34.608 -17.239 -24.562  0.00  0.00    +0.037 C 
BRANCH   8  11
ATOM     11  O   UNL     1      35.005 -15.198 -23.392  0.00  0.00    -0.506 OA
ATOM     12  H   UNL     1      34.587 -14.717 -22.705  0.00  0.00    +0.292 HD
ENDBRANCH   8  11
ENDBRANCH   3   5
BRANCH   2  13
ATOM     13  C   UNL     1      34.870 -21.315 -19.542  0.00  0.00    +0.201 C 
BRANCH  13  15
ATOM     14  O   UNL     1      32.605 -21.870 -18.947  0.00  0.00    -0.248 OA
ATOM     15  C   UNL     1      33.712 -22.251 -19.307  0.00  0.00    +0.334 C 
BRANCH  15  16
ATOM     16  O   UNL     1      34.013 -23.550 -19.530  0.00  0.00    -0.479 OA
ATOM     17  H   UNL     1      33.399 -24.105 -19.969  0.00  0.00    +0.295 HD
ENDBRANCH  15  16
ENDBRANCH  13  15
ENDBRANCH   2  13
TORSDOF 5
ENDMDL
MODEL 6
REMARK VINA RESULT:      -7.3      3.557      7.037
REMARK  Name = 450268
REMARK  5 active torsions:
REMARK  status: ('A' for Active; 'I' for Inactive)
REMARK    1  A    between atoms: N_2  and  C_13
REMARK    2  A    between atoms: C_3  and  C_5
REMARK    3  A    between atoms: C_8  and  O_11
REMARK    4  A    between atoms: C_13  and  C_15
REMARK    5  A    between atoms: C_15  and  O_16
REMARK                            x       y       z     vdW  Elec       q    Type
REMARK                         _______ _______ _______ _____ _____    ______ ____
ROOT
ATOM      1  O   UNL     1      33.826 -23.748 -18.925  0.00  0.00    -0.270 OA
ATOM      2  N   UNL     1      32.455 -22.312 -17.726  0.00  0.00    -0.291 N 
ATOM      3  C   UNL     1      33.392 -22.600 -18.726  0.00  0.00    +0.246 C 
ATOM      4  H   UNL     1      32.155 -21.380 -17.625  0.00  0.00    +0.150 HD
ENDROOT
BRANCH   3   5
ATOM      5  C   UNL     1      33.868 -21.483 -19.527  0.00  0.00    +0.056 C 
ATOM      6  C   UNL     1      35.236 -21.228 -19.624  0.00  0.00    +0.041 C 
ATOM      7  C   UNL     1      32.957 -20.666 -20.196  0.00  0.00    +0.005 C 
ATOM      8  C   UNL     1      35.692 -20.155 -20.391  0.00  0.00    +0.134 C 
ATOM      9  C   UNL     1      33.413 -19.594 -20.962  0.00  0.00    +0.003 C 
ATOM     10  C   UNL     1      34.781 -19.339 -21.060  0.00  0.00    +0.037 C 
BRANCH   8  11
ATOM     11  O   UNL     1      37.027 -19.906 -20.488  0.00  0.00    -0.506 OA
ATOM     12  H   UNL     1      37.365 -19.066 -20.248  0.00  0.00    +0.292 HD
ENDBRANCH   8  11
ENDBRANCH   3   5
BRANCH   2  13
ATOM     13  C   UNL     1      31.906 -23.309 -16.836  0.00  0.00    +0.201 C 
BRANCH  13  15
ATOM     14  O   UNL     1      30.375 -22.932 -15.017  0.00  0.00    -0.248 OA
ATOM     15  C   UNL     1      30.596 -22.888 -16.221  0.00  0.00    +0.334 C 
BRANCH  15  16
ATOM     16  O   UNL     1      29.687 -22.460 -17.126  0.00  0.00    -0.479 OA
ATOM     17  H   UNL     1      28.779 -22.417 -16.895  0.00  0.00    +0.295 HD
ENDBRANCH  15  16
ENDBRANCH  13  15
ENDBRANCH   2  13
TORSDOF 5
ENDMDL
MODEL 7
REMARK VINA RESULT:      -7.2      8.128      9.904
REMARK  Name = 450268
REMARK  5 active torsions:
REMARK  status: ('A' for Active; 'I' for Inactive)
REMARK    1  A    between atoms: N_2  and  C_13
REMARK    2  A    between atoms: C_3  and  C_5
REMARK    3  A    between atoms: C_8  and  O_11
REMARK    4  A    between atoms: C_13  and  C_15
REMARK    5  A    between atoms: C_15  and  O_16
REMARK                            x       y       z     vdW  Elec       q    Type
REMARK                         _______ _______ _______ _____ _____    ______ ____
ROOT
ATOM      1  O   UNL     1      35.307 -23.662 -16.119  0.00  0.00    -0.270 OA
ATOM      2  N   UNL     1      35.297 -25.093 -14.294  0.00  0.00    -0.291 N 
ATOM      3  C   UNL     1      34.678 -24.238 -15.214  0.00  0.00    +0.246 C 
ATOM      4  H   UNL     1      34.737 -25.517 -13.604  0.00  0.00    +0.150 HD
ENDROOT
BRANCH   3   5
ATOM      5  C   UNL     1      33.248 -24.024 -15.058  0.00  0.00    +0.056 C 
ATOM      6  C   UNL     1      32.579 -24.553 -13.954  0.00  0.00    +0.041 C 
ATOM      7  C   UNL     1      32.545 -23.291 -16.015  0.00  0.00    +0.005 C 
ATOM      8  C   UNL     1      31.207 -24.347 -13.807  0.00  0.00    +0.134 C 
ATOM      9  C   UNL     1      31.174 -23.086 -15.867  0.00  0.00    +0.003 C 
ATOM     10  C   UNL     1      30.505 -23.614 -14.762  0.00  0.00    +0.037 C 
BRANCH   8  11
ATOM     11  O   UNL     1      30.555 -24.861 -12.728  0.00  0.00    -0.506 OA
ATOM     12  H   UNL     1      30.302 -24.300 -12.022  0.00  0.00    +0.292 HD
ENDBRANCH   8  11
ENDBRANCH   3   5
BRANCH   2  13
ATOM     13  C   UNL     1      36.712 -25.388 -14.305  0.00  0.00    +0.201 C 
BRANCH  13  15
ATOM     14  O   UNL     1      36.333 -27.076 -15.977  0.00  0.00    -0.248 OA
ATOM     15  C   UNL     1      37.046 -26.632 -15.087  0.00  0.00    +0.334 C 
BRANCH  15  16
ATOM     16  O   UNL     1      38.210 -27.211 -14.711  0.00  0.00    -0.479 OA
ATOM     17  H   UNL     1      39.019 -26.750 -14.818  0.00  0.00    +0.295 HD
ENDBRANCH  15  16
ENDBRANCH  13  15
ENDBRANCH   2  13
TORSDOF 5
ENDMDL
MODEL 8
REMARK VINA RESULT:      -7.1      3.629      7.098
REMARK  Name = 450268
REMARK  5 active torsions:
REMARK  status: ('A' for Active; 'I' for Inactive)
REMARK    1  A    between atoms: N_2  and  C_13
REMARK    2  A    between atoms: C_3  and  C_5
REMARK    3  A    between atoms: C_8  and  O_11
REMARK    4  A    between atoms: C_13  and  C_15
REMARK    5  A    between atoms: C_15  and  O_16
REMARK                            x       y       z     vdW  Elec       q    Type
REMARK                         _______ _______ _______ _____ _____    ______ ____
ROOT
ATOM      1  O   UNL     1      34.120 -23.856 -17.272  0.00  0.00    -0.270 OA
ATOM      2  N   UNL     1      32.135 -22.661 -17.378  0.00  0.00    -0.291 N 
ATOM      3  C   UNL     1      33.459 -22.920 -17.755  0.00  0.00    +0.246 C 
ATOM      4  H   UNL     1      31.672 -21.903 -17.802  0.00  0.00    +0.150 HD
ENDROOT
BRANCH   3   5
ATOM      5  C   UNL     1      34.055 -22.024 -18.733  0.00  0.00    +0.056 C 
ATOM      6  C   UNL     1      33.240 -21.222 -19.532  0.00  0.00    +0.041 C 
ATOM      7  C   UNL     1      35.442 -21.970 -18.874  0.00  0.00    +0.005 C 
ATOM      8  C   UNL     1      33.814 -20.364 -20.471  0.00  0.00    +0.134 C 
ATOM      9  C   UNL     1      36.014 -21.112 -19.813  0.00  0.00    +0.003 C 
ATOM     10  C   UNL     1      35.200 -20.309 -20.611  0.00  0.00    +0.037 C 
BRANCH   8  11
ATOM     11  O   UNL     1      33.019 -19.579 -21.250  0.00  0.00    -0.506 OA
ATOM     12  H   UNL     1      32.116 -19.799 -21.369  0.00  0.00    +0.292 HD
ENDBRANCH   8  11
ENDBRANCH   3   5
BRANCH   2  13
ATOM     13  C   UNL     1      31.414 -23.446 -16.403  0.00  0.00    +0.201 C 
BRANCH  13  15
ATOM     14  O   UNL     1      29.411 -22.306 -17.094  0.00  0.00    -0.248 OA
ATOM     15  C   UNL     1      29.955 -23.078 -16.315  0.00  0.00    +0.334 C 
BRANCH  15  16
ATOM     16  O   UNL     1      29.306 -23.679 -15.292  0.00  0.00    -0.479 OA
ATOM     17  H   UNL     1      28.434 -23.418 -15.072  0.00  0.00    +0.295 HD
ENDBRANCH  15  16
ENDBRANCH  13  15
ENDBRANCH   2  13
TORSDOF 5
ENDMDL
MODEL 9
REMARK VINA RESULT:      -7.1      9.093     10.215
REMARK  Name = 450268
REMARK  5 active torsions:
REMARK  status: ('A' for Active; 'I' for Inactive)
REMARK    1  A    between atoms: N_2  and  C_13
REMARK    2  A    between atoms: C_3  and  C_5
REMARK    3  A    between atoms: C_8  and  O_11
REMARK    4  A    between atoms: C_13  and  C_15
REMARK    5  A    between atoms: C_15  and  O_16
REMARK                            x       y       z     vdW  Elec       q    Type
REMARK                         _______ _______ _______ _____ _____    ______ ____
ROOT
ATOM      1  O   UNL     1      34.418 -24.112 -12.581  0.00  0.00    -0.270 OA
ATOM      2  N   UNL     1      35.145 -25.161 -14.517  0.00  0.00    -0.291 N 
ATOM      3  C   UNL     1      34.190 -24.488 -13.744  0.00  0.00    +0.246 C 
ATOM      4  H   UNL     1      34.897 -25.430 -15.431  0.00  0.00    +0.150 HD
ENDROOT
BRANCH   3   5
ATOM      5  C   UNL     1      32.889 -24.261 -14.352  0.00  0.00    +0.056 C 
ATOM      6  C   UNL     1      31.769 -24.944 -13.878  0.00  0.00    +0.041 C 
ATOM      7  C   UNL     1      32.762 -23.361 -15.410  0.00  0.00    +0.005 C 
ATOM      8  C   UNL     1      30.521 -24.726 -14.463  0.00  0.00    +0.134 C 
ATOM      9  C   UNL     1      31.514 -23.144 -15.994  0.00  0.00    +0.003 C 
ATOM     10  C   UNL     1      30.393 -23.826 -15.520  0.00  0.00    +0.037 C 
BRANCH   8  11
ATOM     11  O   UNL     1      29.427 -25.391 -14.000  0.00  0.00    -0.506 OA
ATOM     12  H   UNL     1      29.533 -26.187 -13.517  0.00  0.00    +0.292 HD
ENDBRANCH   8  11
ENDBRANCH   3   5
BRANCH   2  13
ATOM     13  C   UNL     1      36.473 -25.480 -14.046  0.00  0.00    +0.201 C 
BRANCH  13  15
ATOM     14  O   UNL     1      38.270 -26.972 -14.628  0.00  0.00    -0.248 OA
ATOM     15  C   UNL     1      37.151 -26.540 -14.876  0.00  0.00    +0.334 C 
BRANCH  15  16
ATOM     16  O   UNL     1      36.406 -26.966 -15.922  0.00  0.00    -0.479 OA
ATOM     17  H   UNL     1      36.798 -27.066 -16.767  0.00  0.00    +0.295 HD
ENDBRANCH  15  16
ENDBRANCH  13  15
ENDBRANCH   2  13
TORSDOF 5
ENDMDL
