MODEL 1
REMARK VINA RESULT:     -10.2      0.000      0.000
REMARK  Name = 472335
REMARK  3 active torsions:
REMARK  status: ('A' for Active; 'I' for Inactive)
REMARK    1  A    between atoms: C_6  and  O_27
REMARK    2  A    between atoms: C_6  and  C_29
REMARK    3  A    between atoms: C_20  and  N_26
REMARK                            x       y       z     vdW  Elec       q    Type
REMARK                         _______ _______ _______ _____ _____    ______ ____
ROOT
ATOM      1  O   UNL     1      35.476 -19.706 -23.424  0.00  0.00    -0.442 OA
ATOM      2  O   UNL     1      34.488 -16.312 -25.753  0.00  0.00    -0.270 OA
ATOM      3  O   UNL     1      35.956 -20.406 -21.346  0.00  0.00    -0.247 OA
ATOM      4  N   UNL     1      33.771 -15.166 -23.877  0.00  0.00    -0.249 N 
ATOM      5  N   UNL     1      32.613 -13.410 -20.959  0.00  0.00    -0.405 NA
ATOM      6  C   UNL     1      34.252 -18.707 -21.540  0.00  0.00    +0.196 C 
ATOM      7  C   UNL     1      34.114 -17.466 -22.378  0.00  0.00    +0.017 C 
ATOM      8  C   UNL     1      33.471 -15.154 -22.525  0.00  0.00    +0.084 C 
ATOM      9  C   UNL     1      34.399 -17.508 -23.692  0.00  0.00    +0.074 C 
ATOM     10  C   UNL     1      33.521 -13.844 -24.488  0.00  0.00    +0.128 C 
ATOM     11  C   UNL     1      33.617 -16.243 -21.766  0.00  0.00    +0.016 C 
ATOM     12  C   UNL     1      33.031 -13.046 -23.324  0.00  0.00    +0.029 C 
ATOM     13  C   UNL     1      33.002 -13.821 -22.173  0.00  0.00    +0.142 C 
ATOM     14  C   UNL     1      34.232 -16.282 -24.552  0.00  0.00    +0.252 C 
ATOM     15  C   UNL     1      34.874 -18.764 -24.339  0.00  0.00    +0.239 C 
ATOM     16  C   UNL     1      35.309 -19.663 -22.081  0.00  0.00    +0.346 C 
ATOM     17  C   UNL     1      32.631 -11.734 -23.241  0.00  0.00    +0.004 C 
ATOM     18  C   UNL     1      32.214 -11.246 -21.991  0.00  0.00    +0.048 C 
ATOM     19  C   UNL     1      32.221 -12.123 -20.870  0.00  0.00    +0.115 C 
ATOM     20  C   UNL     1      31.795  -9.914 -21.841  0.00  0.00    +0.145 C 
ATOM     21  C   UNL     1      31.805 -11.615 -19.643  0.00  0.00    +0.085 C 
ATOM     22  C   UNL     1      31.383  -9.439 -20.600  0.00  0.00    +0.020 C 
ATOM     23  C   UNL     1      31.389 -10.290 -19.501  0.00  0.00    -0.017 C 
ENDROOT
BRANCH  20  26
ATOM     24  O   UNL     1      30.661  -8.666 -23.415  0.00  0.00    -0.126 OA
ATOM     25  O   UNL     1      32.853  -8.554 -23.375  0.00  0.00    -0.126 OA
ATOM     26  N   UNL     1      31.768  -8.998 -22.933  0.00  0.00    +0.058 N 
ENDBRANCH  20  26
BRANCH   6  27
ATOM     27  O   UNL     1      34.720 -18.359 -20.235  0.00  0.00    -0.373 OA
ATOM     28  H   UNL     1      33.971 -18.075 -19.688  0.00  0.00    +0.211 HD
ENDBRANCH   6  27
BRANCH   6  29
ATOM     29  C   UNL     1      32.920 -19.450 -21.408  0.00  0.00    +0.042 C 
ATOM     30  C   UNL     1      32.918 -20.364 -20.199  0.00  0.00    +0.003 C 
ENDBRANCH   6  29
TORSDOF 3
ENDMDL
MODEL 2
REMARK VINA RESULT:      -8.9      1.983      8.786
REMARK  Name = 472335
REMARK  3 active torsions:
REMARK  status: ('A' for Active; 'I' for Inactive)
REMARK    1  A    between atoms: C_6  and  O_27
REMARK    2  A    between atoms: C_6  and  C_29
REMARK    3  A    between atoms: C_20  and  N_26
REMARK                            x       y       z     vdW  Elec       q    Type
REMARK                         _______ _______ _______ _____ _____    ______ ____
ROOT
ATOM      1  O   UNL     1      31.894  -7.734 -20.795  0.00  0.00    -0.442 OA
ATOM      2  O   UNL     1      31.482 -11.439 -18.790  0.00  0.00    -0.270 OA
ATOM      3  O   UNL     1      32.987  -6.673 -22.444  0.00  0.00    -0.247 OA
ATOM      4  N   UNL     1      32.390 -12.575 -20.587  0.00  0.00    -0.249 N 
ATOM      5  N   UNL     1      33.761 -14.337 -23.408  0.00  0.00    -0.405 NA
ATOM      6  C   UNL     1      32.365  -8.967 -22.869  0.00  0.00    +0.196 C 
ATOM      7  C   UNL     1      32.387 -10.219 -22.039  0.00  0.00    +0.017 C 
ATOM      8  C   UNL     1      32.849 -12.575 -21.893  0.00  0.00    +0.084 C 
ATOM      9  C   UNL     1      31.923 -10.196 -20.776  0.00  0.00    +0.074 C 
ATOM     10  C   UNL     1      32.478 -13.925 -19.994  0.00  0.00    +0.128 C 
ATOM     11  C   UNL     1      32.860 -11.462 -22.631  0.00  0.00    +0.016 C 
ATOM     12  C   UNL     1      33.047 -14.727 -21.118  0.00  0.00    +0.029 C 
ATOM     13  C   UNL     1      33.262 -13.929 -22.233  0.00  0.00    +0.142 C 
ATOM     14  C   UNL     1      31.905 -11.451 -19.943  0.00  0.00    +0.252 C 
ATOM     15  C   UNL     1      31.401  -8.939 -20.169  0.00  0.00    +0.239 C 
ATOM     16  C   UNL     1      32.462  -7.702 -22.024  0.00  0.00    +0.346 C 
ATOM     17  C   UNL     1      33.366 -16.062 -21.197  0.00  0.00    +0.004 C 
ATOM     18  C   UNL     1      33.896 -16.547 -22.405  0.00  0.00    +0.048 C 
ATOM     19  C   UNL     1      34.078 -15.646 -23.491  0.00  0.00    +0.115 C 
ATOM     20  C   UNL     1      34.244 -17.900 -22.546  0.00  0.00    +0.145 C 
ATOM     21  C   UNL     1      34.605 -16.150 -24.675  0.00  0.00    +0.085 C 
ATOM     22  C   UNL     1      34.768 -18.372 -23.746  0.00  0.00    +0.020 C 
ATOM     23  C   UNL     1      34.949 -17.497 -24.810  0.00  0.00    -0.017 C 
ENDROOT
BRANCH  20  26
ATOM     24  O   UNL     1      33.019 -19.506 -21.433  0.00  0.00    -0.126 OA
ATOM     25  O   UNL     1      35.000 -18.976 -20.651  0.00  0.00    -0.126 OA
ATOM     26  N   UNL     1      34.079 -18.842 -21.489  0.00  0.00    +0.058 N 
ENDBRANCH  20  26
BRANCH   6  27
ATOM     27  O   UNL     1      33.521  -8.924 -23.709  0.00  0.00    -0.373 OA
ATOM     28  H   UNL     1      33.956  -8.062 -23.617  0.00  0.00    +0.211 HD
ENDBRANCH   6  27
BRANCH   6  29
ATOM     29  C   UNL     1      31.112  -8.892 -23.746  0.00  0.00    +0.042 C 
ATOM     30  C   UNL     1      30.859  -7.477 -24.225  0.00  0.00    +0.003 C 
ENDBRANCH   6  29
TORSDOF 3
ENDMDL
MODEL 3
REMARK VINA RESULT:      -8.8      2.307      3.204
REMARK  Name = 472335
REMARK  3 active torsions:
REMARK  status: ('A' for Active; 'I' for Inactive)
REMARK    1  A    between atoms: C_6  and  O_27
REMARK    2  A    between atoms: C_6  and  C_29
REMARK    3  A    between atoms: C_20  and  N_26
REMARK                            x       y       z     vdW  Elec       q    Type
REMARK                         _______ _______ _______ _____ _____    ______ ____
ROOT
ATOM      1  O   UNL     1      34.807 -16.995 -23.428  0.00  0.00    -0.442 OA
ATOM      2  O   UNL     1      33.643 -13.942 -26.119  0.00  0.00    -0.270 OA
ATOM      3  O   UNL     1      35.596 -17.394 -21.366  0.00  0.00    -0.247 OA
ATOM      4  N   UNL     1      33.336 -12.450 -24.380  0.00  0.00    -0.249 N 
ATOM      5  N   UNL     1      32.815 -10.152 -21.661  0.00  0.00    -0.405 NA
ATOM      6  C   UNL     1      33.993 -15.601 -21.574  0.00  0.00    +0.196 C 
ATOM      7  C   UNL     1      33.790 -14.503 -22.580  0.00  0.00    +0.017 C 
ATOM      8  C   UNL     1      33.276 -12.195 -23.020  0.00  0.00    +0.084 C 
ATOM      9  C   UNL     1      33.839 -14.780 -23.896  0.00  0.00    +0.074 C 
ATOM     10  C   UNL     1      33.066 -11.226 -25.161  0.00  0.00    +0.128 C 
ATOM     11  C   UNL     1      33.484 -13.157 -22.117  0.00  0.00    +0.016 C 
ATOM     12  C   UNL     1      32.837 -10.211 -24.089  0.00  0.00    +0.029 C 
ATOM     13  C   UNL     1      32.960 -10.786 -22.832  0.00  0.00    +0.142 C 
ATOM     14  C   UNL     1      33.602 -13.697 -24.916  0.00  0.00    +0.252 C 
ATOM     15  C   UNL     1      34.116 -16.160 -24.384  0.00  0.00    +0.239 C 
ATOM     16  C   UNL     1      34.878 -16.723 -22.104  0.00  0.00    +0.346 C 
ATOM     17  C   UNL     1      32.539  -8.872 -24.171  0.00  0.00    +0.004 C 
ATOM     18  C   UNL     1      32.378  -8.155 -22.973  0.00  0.00    +0.048 C 
ATOM     19  C   UNL     1      32.524  -8.838 -21.734  0.00  0.00    +0.115 C 
ATOM     20  C   UNL     1      32.075  -6.784 -22.991  0.00  0.00    +0.145 C 
ATOM     21  C   UNL     1      32.360  -8.105 -20.563  0.00  0.00    +0.085 C 
ATOM     22  C   UNL     1      31.916  -6.081 -21.800  0.00  0.00    +0.020 C 
ATOM     23  C   UNL     1      32.059  -6.742 -20.586  0.00  0.00    -0.017 C 
ENDROOT
BRANCH  20  26
ATOM     24  O   UNL     1      30.758  -5.823 -24.623  0.00  0.00    -0.126 OA
ATOM     25  O   UNL     1      32.939  -5.670 -24.816  0.00  0.00    -0.126 OA
ATOM     26  N   UNL     1      31.916  -6.055 -24.206  0.00  0.00    +0.058 N 
ENDBRANCH  20  26
BRANCH   6  27
ATOM     27  O   UNL     1      34.702 -15.092 -20.441  0.00  0.00    -0.373 OA
ATOM     28  H   UNL     1      35.232 -15.802 -20.046  0.00  0.00    +0.211 HD
ENDBRANCH   6  27
BRANCH   6  29
ATOM     29  C   UNL     1      32.661 -16.190 -21.103  0.00  0.00    +0.042 C 
ATOM     30  C   UNL     1      32.038 -15.338 -20.016  0.00  0.00    +0.003 C 
ENDBRANCH   6  29
TORSDOF 3
ENDMDL
MODEL 4
REMARK VINA RESULT:      -8.2      6.717     10.728
REMARK  Name = 472335
REMARK  3 active torsions:
REMARK  status: ('A' for Active; 'I' for Inactive)
REMARK    1  A    between atoms: C_6  and  O_27
REMARK    2  A    between atoms: C_6  and  C_29
REMARK    3  A    between atoms: C_20  and  N_26
REMARK                            x       y       z     vdW  Elec       q    Type
REMARK                         _______ _______ _______ _____ _____    ______ ____
ROOT
ATOM      1  O   UNL     1      36.419 -25.805 -12.751  0.00  0.00    -0.442 OA
ATOM      2  O   UNL     1      33.171 -24.519 -15.143  0.00  0.00    -0.270 OA
ATOM      3  O   UNL     1      38.649 -26.045 -12.694  0.00  0.00    -0.247 OA
ATOM      4  N   UNL     1      34.576 -23.234 -16.455  0.00  0.00    -0.249 N 
ATOM      5  N   UNL     1      36.764 -21.200 -18.460  0.00  0.00    -0.405 NA
ATOM      6  C   UNL     1      37.809 -24.066 -13.794  0.00  0.00    +0.196 C 
ATOM      7  C   UNL     1      36.662 -23.807 -14.730  0.00  0.00    +0.017 C 
ATOM      8  C   UNL     1      35.830 -22.698 -16.694  0.00  0.00    +0.084 C 
ATOM      9  C   UNL     1      35.450 -24.329 -14.467  0.00  0.00    +0.074 C 
ATOM     10  C   UNL     1      33.611 -22.808 -17.489  0.00  0.00    +0.128 C 
ATOM     11  C   UNL     1      36.863 -22.945 -15.885  0.00  0.00    +0.016 C 
ATOM     12  C   UNL     1      34.454 -21.948 -18.373  0.00  0.00    +0.029 C 
ATOM     13  C   UNL     1      35.757 -21.886 -17.901  0.00  0.00    +0.142 C 
ATOM     14  C   UNL     1      34.282 -24.049 -15.376  0.00  0.00    +0.252 C 
ATOM     15  C   UNL     1      35.221 -25.184 -13.268  0.00  0.00    +0.239 C 
ATOM     16  C   UNL     1      37.672 -25.392 -13.053  0.00  0.00    +0.346 C 
ATOM     17  C   UNL     1      34.138 -21.254 -19.516  0.00  0.00    +0.004 C 
ATOM     18  C   UNL     1      35.154 -20.518 -20.148  0.00  0.00    +0.048 C 
ATOM     19  C   UNL     1      36.460 -20.518 -19.583  0.00  0.00    +0.115 C 
ATOM     20  C   UNL     1      34.894 -19.790 -21.320  0.00  0.00    +0.145 C 
ATOM     21  C   UNL     1      37.449 -19.783 -20.228  0.00  0.00    +0.085 C 
ATOM     22  C   UNL     1      35.906 -19.064 -21.939  0.00  0.00    +0.020 C 
ATOM     23  C   UNL     1      37.184 -19.061 -21.393  0.00  0.00    -0.017 C 
ENDROOT
BRANCH  20  26
ATOM     24  O   UNL     1      32.601 -20.022 -21.220  0.00  0.00    -0.126 OA
ATOM     25  O   UNL     1      33.511 -19.462 -23.137  0.00  0.00    -0.126 OA
ATOM     26  N   UNL     1      33.602 -19.757 -21.923  0.00  0.00    +0.058 N 
ENDBRANCH  20  26
BRANCH   6  27
ATOM     27  O   UNL     1      39.021 -24.199 -14.540  0.00  0.00    -0.373 OA
ATOM     28  H   UNL     1      39.523 -23.370 -14.492  0.00  0.00    +0.211 HD
ENDBRANCH   6  27
BRANCH   6  29
ATOM     29  C   UNL     1      37.975 -22.935 -12.776  0.00  0.00    +0.042 C 
ATOM     30  C   UNL     1      37.115 -23.168 -11.550  0.00  0.00    +0.003 C 
ENDBRANCH   6  29
TORSDOF 3
ENDMDL
MODEL 5
REMARK VINA RESULT:      -8.1      2.156      8.381
REMARK  Name = 472335
REMARK  3 active torsions:
REMARK  status: ('A' for Active; 'I' for Inactive)
REMARK    1  A    between atoms: C_6  and  O_27
REMARK    2  A    between atoms: C_6  and  C_29
REMARK    3  A    between atoms: C_20  and  N_26
REMARK                            x       y       z     vdW  Elec       q    Type
REMARK                         _______ _______ _______ _____ _____    ______ ____
ROOT
ATOM      1  O   UNL     1      32.621  -8.749 -22.804  0.00  0.00    -0.442 OA
ATOM      2  O   UNL     1      30.779 -11.963 -20.757  0.00  0.00    -0.270 OA
ATOM      3  O   UNL     1      34.528  -8.063 -23.768  0.00  0.00    -0.247 OA
ATOM      4  N   UNL     1      32.338 -13.456 -21.587  0.00  0.00    -0.249 N 
ATOM      5  N   UNL     1      34.740 -15.778 -22.922  0.00  0.00    -0.405 NA
ATOM      6  C   UNL     1      33.939 -10.383 -24.082  0.00  0.00    +0.196 C 
ATOM      7  C   UNL     1      33.375 -11.443 -23.177  0.00  0.00    +0.017 C 
ATOM      8  C   UNL     1      33.402 -13.728 -22.431  0.00  0.00    +0.084 C 
ATOM      9  C   UNL     1      32.332 -11.156 -22.376  0.00  0.00    +0.074 C 
ATOM     10  C   UNL     1      31.940 -14.660 -20.829  0.00  0.00    +0.128 C 
ATOM     11  C   UNL     1      33.929 -12.788 -23.219  0.00  0.00    +0.016 C 
ATOM     12  C   UNL     1      32.904 -15.684 -21.334  0.00  0.00    +0.029 C 
ATOM     13  C   UNL     1      33.761 -15.131 -22.276  0.00  0.00    +0.142 C 
ATOM     14  C   UNL     1      31.733 -12.216 -21.490  0.00  0.00    +0.252 C 
ATOM     15  C   UNL     1      31.731  -9.792 -22.350  0.00  0.00    +0.239 C 
ATOM     16  C   UNL     1      33.740  -8.976 -23.531  0.00  0.00    +0.346 C 
ATOM     17  C   UNL     1      33.051 -17.012 -21.015  0.00  0.00    +0.004 C 
ATOM     18  C   UNL     1      34.064 -17.741 -21.660  0.00  0.00    +0.048 C 
ATOM     19  C   UNL     1      34.890 -17.081 -22.612  0.00  0.00    +0.115 C 
ATOM     20  C   UNL     1      34.266 -19.101 -21.375  0.00  0.00    +0.145 C 
ATOM     21  C   UNL     1      35.887 -17.824 -23.236  0.00  0.00    +0.085 C 
ATOM     22  C   UNL     1      35.271 -19.816 -22.019  0.00  0.00    +0.020 C 
ATOM     23  C   UNL     1      36.082 -19.177 -22.949  0.00  0.00    -0.017 C 
ENDROOT
BRANCH  20  26
ATOM     24  O   UNL     1      32.220 -19.667 -20.472  0.00  0.00    -0.126 OA
ATOM     25  O   UNL     1      34.029 -20.546 -19.593  0.00  0.00    -0.126 OA
ATOM     26  N   UNL     1      33.464 -19.808 -20.431  0.00  0.00    +0.058 N 
ENDBRANCH  20  26
BRANCH   6  27
ATOM     27  O   UNL     1      35.358 -10.533 -24.174  0.00  0.00    -0.373 OA
ATOM     28  H   UNL     1      35.746  -9.722 -24.537  0.00  0.00    +0.211 HD
ENDBRANCH   6  27
BRANCH   6  29
ATOM     29  C   UNL     1      33.340 -10.464 -25.488  0.00  0.00    +0.042 C 
ATOM     30  C   UNL     1      33.881 -11.656 -26.250  0.00  0.00    +0.003 C 
ENDBRANCH   6  29
TORSDOF 3
ENDMDL
MODEL 6
REMARK VINA RESULT:      -8.1     10.358     12.508
REMARK  Name = 472335
REMARK  3 active torsions:
REMARK  status: ('A' for Active; 'I' for Inactive)
REMARK    1  A    between atoms: C_6  and  O_27
REMARK    2  A    between atoms: C_6  and  C_29
REMARK    3  A    between atoms: C_20  and  N_26
REMARK                            x       y       z     vdW  Elec       q    Type
REMARK                         _______ _______ _______ _____ _____    ______ ____
ROOT
ATOM      1  O   UNL     1      39.348 -23.699 -14.841  0.00  0.00    -0.442 OA
ATOM      2  O   UNL     1      36.491 -22.022 -17.477  0.00  0.00    -0.270 OA
ATOM      3  O   UNL     1      39.623 -24.643 -12.824  0.00  0.00    -0.247 OA
ATOM      4  N   UNL     1      34.767 -23.110 -16.387  0.00  0.00    -0.249 N 
ATOM      5  N   UNL     1      32.096 -24.844 -14.713  0.00  0.00    -0.405 NA
ATOM      6  C   UNL     1      37.614 -25.239 -14.023  0.00  0.00    +0.196 C 
ATOM      7  C   UNL     1      36.630 -24.459 -14.849  0.00  0.00    +0.017 C 
ATOM      8  C   UNL     1      34.340 -24.027 -15.441  0.00  0.00    +0.084 C 
ATOM      9  C   UNL     1      37.071 -23.584 -15.771  0.00  0.00    +0.074 C 
ATOM     10  C   UNL     1      33.620 -22.503 -17.093  0.00  0.00    +0.128 C 
ATOM     11  C   UNL     1      35.205 -24.704 -14.682  0.00  0.00    +0.016 C 
ATOM     12  C   UNL     1      32.456 -23.180 -16.446  0.00  0.00    +0.029 C 
ATOM     13  C   UNL     1      32.885 -24.076 -15.476  0.00  0.00    +0.142 C 
ATOM     14  C   UNL     1      36.097 -22.822 -16.632  0.00  0.00    +0.252 C 
ATOM     15  C   UNL     1      38.528 -23.351 -15.979  0.00  0.00    +0.239 C 
ATOM     16  C   UNL     1      38.932 -24.497 -13.830  0.00  0.00    +0.346 C 
ATOM     17  C   UNL     1      31.106 -23.048 -16.664  0.00  0.00    +0.004 C 
ATOM     18  C   UNL     1      30.229 -23.827 -15.890  0.00  0.00    +0.048 C 
ATOM     19  C   UNL     1      30.770 -24.718 -14.921  0.00  0.00    +0.115 C 
ATOM     20  C   UNL     1      28.839 -23.735 -16.065  0.00  0.00    +0.145 C 
ATOM     21  C   UNL     1      29.882 -25.477 -14.167  0.00  0.00    +0.085 C 
ATOM     22  C   UNL     1      27.978 -24.511 -15.295  0.00  0.00    +0.020 C 
ATOM     23  C   UNL     1      28.500 -25.381 -14.345  0.00  0.00    -0.017 C 
ENDROOT
BRANCH  20  26
ATOM     24  O   UNL     1      27.794 -23.347 -18.084  0.00  0.00    -0.126 OA
ATOM     25  O   UNL     1      28.204 -21.634 -16.774  0.00  0.00    -0.126 OA
ATOM     26  N   UNL     1      28.249 -22.860 -17.024  0.00  0.00    +0.058 N 
ENDBRANCH  20  26
BRANCH   6  27
ATOM     27  O   UNL     1      37.104 -25.411 -12.699  0.00  0.00    -0.373 OA
ATOM     28  H   UNL     1      37.464 -24.720 -12.121  0.00  0.00    +0.211 HD
ENDBRANCH   6  27
BRANCH   6  29
ATOM     29  C   UNL     1      37.896 -26.616 -14.629  0.00  0.00    +0.042 C 
ATOM     30  C   UNL     1      36.746 -27.079 -15.500  0.00  0.00    +0.003 C 
ENDBRANCH   6  29
TORSDOF 3
ENDMDL
MODEL 7
REMARK VINA RESULT:      -8.1      1.964      3.333
REMARK  Name = 472335
REMARK  3 active torsions:
REMARK  status: ('A' for Active; 'I' for Inactive)
REMARK    1  A    between atoms: C_6  and  O_27
REMARK    2  A    between atoms: C_6  and  C_29
REMARK    3  A    between atoms: C_20  and  N_26
REMARK                            x       y       z     vdW  Elec       q    Type
REMARK                         _______ _______ _______ _____ _____    ______ ____
ROOT
ATOM      1  O   UNL     1      33.760 -19.292 -22.078  0.00  0.00    -0.442 OA
ATOM      2  O   UNL     1      31.592 -16.107 -20.325  0.00  0.00    -0.270 OA
ATOM      3  O   UNL     1      34.925 -19.914 -23.892  0.00  0.00    -0.247 OA
ATOM      4  N   UNL     1      32.638 -14.568 -21.696  0.00  0.00    -0.249 N 
ATOM      5  N   UNL     1      34.307 -12.176 -23.803  0.00  0.00    -0.405 NA
ATOM      6  C   UNL     1      35.226 -17.636 -23.151  0.00  0.00    +0.196 C 
ATOM      7  C   UNL     1      34.287 -16.577 -22.643  0.00  0.00    +0.017 C 
ATOM      8  C   UNL     1      33.608 -14.271 -22.639  0.00  0.00    +0.084 C 
ATOM      9  C   UNL     1      33.362 -16.889 -21.717  0.00  0.00    +0.074 C 
ATOM     10  C   UNL     1      31.869 -13.361 -21.328  0.00  0.00    +0.128 C 
ATOM     11  C   UNL     1      34.429 -15.209 -23.118  0.00  0.00    +0.016 C 
ATOM     12  C   UNL     1      32.510 -12.309 -22.172  0.00  0.00    +0.029 C 
ATOM     13  C   UNL     1      33.533 -12.848 -22.940  0.00  0.00    +0.142 C 
ATOM     14  C   UNL     1      32.438 -15.832 -21.171  0.00  0.00    +0.252 C 
ATOM     15  C   UNL     1      33.231 -18.279 -21.195  0.00  0.00    +0.239 C 
ATOM     16  C   UNL     1      34.620 -19.033 -23.091  0.00  0.00    +0.346 C 
ATOM     17  C   UNL     1      32.244 -10.965 -22.287  0.00  0.00    +0.004 C 
ATOM     18  C   UNL     1      33.023 -10.209 -23.179  0.00  0.00    +0.048 C 
ATOM     19  C   UNL     1      34.050 -10.857 -23.921  0.00  0.00    +0.115 C 
ATOM     20  C   UNL     1      32.799  -8.832 -23.342  0.00  0.00    +0.145 C 
ATOM     21  C   UNL     1      34.806 -10.087 -24.798  0.00  0.00    +0.085 C 
ATOM     22  C   UNL     1      33.575  -8.090 -24.227  0.00  0.00    +0.020 C 
ATOM     23  C   UNL     1      34.578  -8.718 -24.955  0.00  0.00    -0.017 C 
ENDROOT
BRANCH  20  26
ATOM     24  O   UNL     1      31.992  -7.842 -21.421  0.00  0.00    -0.126 OA
ATOM     25  O   UNL     1      30.720  -7.841 -23.210  0.00  0.00    -0.126 OA
ATOM     26  N   UNL     1      31.784  -8.136 -22.620  0.00  0.00    +0.058 N 
ENDBRANCH  20  26
BRANCH   6  27
ATOM     27  O   UNL     1      35.489 -17.421 -24.540  0.00  0.00    -0.373 OA
ATOM     28  H   UNL     1      34.700 -17.644 -25.057  0.00  0.00    +0.211 HD
ENDBRANCH   6  27
BRANCH   6  29
ATOM     29  C   UNL     1      36.553 -17.629 -22.388  0.00  0.00    +0.042 C 
ATOM     30  C   UNL     1      36.592 -18.725 -21.343  0.00  0.00    +0.003 C 
ENDBRANCH   6  29
TORSDOF 3
ENDMDL
MODEL 8
REMARK VINA RESULT:      -7.9      5.987     10.727
REMARK  Name = 472335
REMARK  3 active torsions:
REMARK  status: ('A' for Active; 'I' for Inactive)
REMARK    1  A    between atoms: C_6  and  O_27
REMARK    2  A    between atoms: C_6  and  C_29
REMARK    3  A    between atoms: C_20  and  N_26
REMARK                            x       y       z     vdW  Elec       q    Type
REMARK                         _______ _______ _______ _____ _____    ______ ____
ROOT
ATOM      1  O   UNL     1      36.476 -19.514 -22.333  0.00  0.00    -0.442 OA
ATOM      2  O   UNL     1      37.153 -21.681 -18.760  0.00  0.00    -0.270 OA
ATOM      3  O   UNL     1      34.966 -19.077 -23.934  0.00  0.00    -0.247 OA
ATOM      4  N   UNL     1      34.880 -21.883 -18.388  0.00  0.00    -0.249 N 
ATOM      5  N   UNL     1      31.341 -22.149 -17.795  0.00  0.00    -0.405 NA
ATOM      6  C   UNL     1      34.118 -19.276 -21.683  0.00  0.00    +0.196 C 
ATOM      7  C   UNL     1      34.409 -20.211 -20.543  0.00  0.00    +0.017 C 
ATOM      8  C   UNL     1      33.578 -21.554 -18.730  0.00  0.00    +0.084 C 
ATOM      9  C   UNL     1      35.683 -20.503 -20.223  0.00  0.00    +0.074 C 
ATOM     10  C   UNL     1      34.910 -22.782 -17.217  0.00  0.00    +0.128 C 
ATOM     11  C   UNL     1      33.307 -20.747 -19.758  0.00  0.00    +0.016 C 
ATOM     12  C   UNL     1      33.458 -22.944 -16.906  0.00  0.00    +0.029 C 
ATOM     13  C   UNL     1      32.679 -22.219 -17.797  0.00  0.00    +0.142 C 
ATOM     14  C   UNL     1      35.993 -21.410 -19.061  0.00  0.00    +0.252 C 
ATOM     15  C   UNL     1      36.823 -19.932 -20.994  0.00  0.00    +0.239 C 
ATOM     16  C   UNL     1      35.207 -19.296 -22.749  0.00  0.00    +0.346 C 
ATOM     17  C   UNL     1      32.826 -23.665 -15.921  0.00  0.00    +0.004 C 
ATOM     18  C   UNL     1      31.423 -23.632 -15.871  0.00  0.00    +0.048 C 
ATOM     19  C   UNL     1      30.715 -22.856 -16.832  0.00  0.00    +0.115 C 
ATOM     20  C   UNL     1      30.720 -24.349 -14.890  0.00  0.00    +0.145 C 
ATOM     21  C   UNL     1      29.327 -22.840 -16.762  0.00  0.00    +0.085 C 
ATOM     22  C   UNL     1      29.329 -24.310 -14.847  0.00  0.00    +0.020 C 
ATOM     23  C   UNL     1      28.633 -23.556 -15.784  0.00  0.00    -0.017 C 
ENDROOT
BRANCH  20  26
ATOM     24  O   UNL     1      32.357 -25.843 -14.251  0.00  0.00    -0.126 OA
ATOM     25  O   UNL     1      30.967 -25.101 -12.723  0.00  0.00    -0.126 OA
ATOM     26  N   UNL     1      31.382 -25.139 -13.904  0.00  0.00    +0.058 N 
ENDBRANCH  20  26
BRANCH   6  27
ATOM     27  O   UNL     1      32.939 -19.704 -22.369  0.00  0.00    -0.373 OA
ATOM     28  H   UNL     1      32.548 -20.458 -21.900  0.00  0.00    +0.211 HD
ENDBRANCH   6  27
BRANCH   6  29
ATOM     29  C   UNL     1      33.915 -17.838 -21.197  0.00  0.00    +0.042 C 
ATOM     30  C   UNL     1      34.935 -16.901 -21.811  0.00  0.00    +0.003 C 
ENDBRANCH   6  29
TORSDOF 3
ENDMDL
MODEL 9
REMARK VINA RESULT:      -7.5      7.121     12.408
REMARK  Name = 472335
REMARK  3 active torsions:
REMARK  status: ('A' for Active; 'I' for Inactive)
REMARK    1  A    between atoms: C_6  and  O_27
REMARK    2  A    between atoms: C_6  and  C_29
REMARK    3  A    between atoms: C_20  and  N_26
REMARK                            x       y       z     vdW  Elec       q    Type
REMARK                         _______ _______ _______ _____ _____    ______ ____
ROOT
ATOM      1  O   UNL     1      33.007 -19.342 -20.841  0.00  0.00    -0.442 OA
ATOM      2  O   UNL     1      31.981 -22.413 -18.115  0.00  0.00    -0.270 OA
ATOM      3  O   UNL     1      34.572 -17.817 -21.353  0.00  0.00    -0.247 OA
ATOM      4  N   UNL     1      34.190 -22.664 -17.481  0.00  0.00    -0.249 N 
ATOM      5  N   UNL     1      37.637 -23.077 -16.537  0.00  0.00    -0.405 NA
ATOM      6  C   UNL     1      35.372 -19.952 -20.560  0.00  0.00    +0.196 C 
ATOM      7  C   UNL     1      34.930 -20.884 -19.467  0.00  0.00    +0.017 C 
ATOM      8  C   UNL     1      35.528 -22.355 -17.661  0.00  0.00    +0.084 C 
ATOM      9  C   UNL     1      33.625 -21.178 -19.321  0.00  0.00    +0.074 C 
ATOM     10  C   UNL     1      34.012 -23.625 -16.374  0.00  0.00    +0.128 C 
ATOM     11  C   UNL     1      35.930 -21.506 -18.611  0.00  0.00    +0.016 C 
ATOM     12  C   UNL     1      35.418 -23.851 -15.922  0.00  0.00    +0.029 C 
ATOM     13  C   UNL     1      36.305 -23.103 -16.683  0.00  0.00    +0.142 C 
ATOM     14  C   UNL     1      33.170 -22.138 -18.254  0.00  0.00    +0.252 C 
ATOM     15  C   UNL     1      32.595 -20.576 -20.214  0.00  0.00    +0.239 C 
ATOM     16  C   UNL     1      34.296 -18.939 -20.935  0.00  0.00    +0.346 C 
ATOM     17  C   UNL     1      35.922 -24.646 -14.921  0.00  0.00    +0.004 C 
ATOM     18  C   UNL     1      37.312 -24.657 -14.719  0.00  0.00    +0.048 C 
ATOM     19  C   UNL     1      38.138 -23.854 -15.555  0.00  0.00    +0.115 C 
ATOM     20  C   UNL     1      37.887 -25.448 -13.711  0.00  0.00    +0.145 C 
ATOM     21  C   UNL     1      39.511 -23.882 -15.335  0.00  0.00    +0.085 C 
ATOM     22  C   UNL     1      39.265 -25.454 -13.519  0.00  0.00    +0.020 C 
ATOM     23  C   UNL     1      40.077 -24.670 -14.330  0.00  0.00    -0.017 C 
ENDROOT
BRANCH  20  26
ATOM     24  O   UNL     1      36.871 -27.452 -13.194  0.00  0.00    -0.126 OA
ATOM     25  O   UNL     1      36.675 -25.786 -11.778  0.00  0.00    -0.126 OA
ATOM     26  N   UNL     1      37.104 -26.271 -12.850  0.00  0.00    +0.058 N 
ENDBRANCH  20  26
BRANCH   6  27
ATOM     27  O   UNL     1      36.467 -19.155 -20.101  0.00  0.00    -0.373 OA
ATOM     28  H   UNL     1      36.129 -18.401 -19.595  0.00  0.00    +0.211 HD
ENDBRANCH   6  27
BRANCH   6  29
ATOM     29  C   UNL     1      35.805 -20.715 -21.814  0.00  0.00    +0.042 C 
ATOM     30  C   UNL     1      35.436 -19.958 -23.073  0.00  0.00    +0.003 C 
ENDBRANCH   6  29
TORSDOF 3
ENDMDL
