MODEL 1
REMARK VINA RESULT:     -11.3      0.000      0.000
REMARK  Name = 59657596
REMARK  4 active torsions:
REMARK  status: ('A' for Active; 'I' for Inactive)
REMARK    1  A    between atoms: C_13  and  C_19
REMARK    2  A    between atoms: N_18  and  C_27
REMARK    3  A    between atoms: C_27  and  C_28
REMARK    4  A    between atoms: C_28  and  N_29
REMARK                            x       y       z     vdW  Elec       q    Type
REMARK                         _______ _______ _______ _____ _____    ______ ____
ROOT
ATOM      1  O   UNL     1      34.900 -19.979 -22.498  0.00  0.00    -0.350 OA
ATOM      2  O   UNL     1      32.324 -22.504 -18.094  0.00  0.00    -0.270 OA
ATOM      3  N   UNL     1      33.940 -21.618 -19.532  0.00  0.00    -0.276 N 
ATOM      4  C   UNL     1      34.516 -19.350 -21.241  0.00  0.00    +0.115 C 
ATOM      5  C   UNL     1      33.072 -19.769 -20.901  0.00  0.00    +0.053 C 
ATOM      6  C   UNL     1      35.499 -19.818 -20.155  0.00  0.00    +0.053 C 
ATOM      7  C   UNL     1      34.617 -17.887 -21.536  0.00  0.00    +0.001 C 
ATOM      8  C   UNL     1      35.338 -21.309 -19.858  0.00  0.00    +0.096 C 
ATOM      9  C   UNL     1      32.980 -21.260 -20.575  0.00  0.00    +0.096 C 
ATOM     10  C   UNL     1      34.804 -17.705 -22.902  0.00  0.00    +0.005 C 
ATOM     11  C   UNL     1      34.831 -19.021 -23.579  0.00  0.00    +0.169 C 
ATOM     12  C   UNL     1      34.534 -16.800 -20.681  0.00  0.00    -0.002 C 
ATOM     13  C   UNL     1      33.492 -22.225 -18.357  0.00  0.00    +0.250 C 
ATOM     14  C   UNL     1      34.910 -16.440 -23.454  0.00  0.00    -0.002 C 
ATOM     15  C   UNL     1      34.647 -15.518 -21.221  0.00  0.00    -0.000 C 
ATOM     16  C   UNL     1      34.834 -15.339 -22.599  0.00  0.00    -0.000 C 
ENDROOT
BRANCH  13  19
ATOM     17 CL   UNL     1      34.633 -24.590 -11.776  0.00  0.00    -0.082 Cl
ATOM     18  N   UNL     1      36.452 -22.830 -16.336  0.00  0.00    -0.288 N 
ATOM     19  C   UNL     1      34.485 -22.557 -17.328  0.00  0.00    +0.070 C 
ATOM     20  C   UNL     1      34.256 -23.051 -16.013  0.00  0.00    +0.019 C 
ATOM     21  C   UNL     1      35.845 -22.432 -17.496  0.00  0.00    +0.070 C 
ATOM     22  C   UNL     1      35.506 -23.214 -15.412  0.00  0.00    +0.053 C 
ATOM     23  C   UNL     1      33.100 -23.377 -15.274  0.00  0.00    +0.002 C 
ATOM     24  C   UNL     1      35.660 -23.687 -14.105  0.00  0.00    +0.026 C 
ATOM     25  C   UNL     1      33.239 -23.852 -13.965  0.00  0.00    +0.011 C 
ATOM     26  C   UNL     1      34.500 -24.004 -13.391  0.00  0.00    +0.059 C 
BRANCH  18  27
ATOM     27  C   UNL     1      37.884 -22.840 -16.127  0.00  0.00    +0.073 C 
BRANCH  27  28
ATOM     28  C   UNL     1      38.273 -23.731 -14.948  0.00  0.00    -0.055 C 
BRANCH  28  29
ATOM     29  N   UNL     1      38.760 -25.019 -15.428  0.00  0.00    +0.385 N 
ATOM     30  C   UNL     1      37.949 -26.111 -14.887  0.00  0.00    -0.101 C 
ATOM     31  C   UNL     1      40.166 -25.205 -15.067  0.00  0.00    -0.101 C 
ATOM     32  H   UNL     1      38.683 -25.030 -16.445  0.00  0.00    -0.080 HD
ENDBRANCH  28  29
ENDBRANCH  27  28
ENDBRANCH  18  27
ENDBRANCH  13  19
TORSDOF 4
ENDMDL
MODEL 2
REMARK VINA RESULT:      -9.7      7.945     13.366
REMARK  Name = 59657596
REMARK  4 active torsions:
REMARK  status: ('A' for Active; 'I' for Inactive)
REMARK    1  A    between atoms: C_13  and  C_19
REMARK    2  A    between atoms: N_18  and  C_27
REMARK    3  A    between atoms: C_27  and  C_28
REMARK    4  A    between atoms: C_28  and  N_29
REMARK                            x       y       z     vdW  Elec       q    Type
REMARK                         _______ _______ _______ _____ _____    ______ ____
ROOT
ATOM      1  O   UNL     1      34.659 -16.070 -20.858  0.00  0.00    -0.350 OA
ATOM      2  O   UNL     1      30.716 -12.037 -21.629  0.00  0.00    -0.270 OA
ATOM      3  N   UNL     1      32.749 -13.185 -21.518  0.00  0.00    -0.276 N 
ATOM      4  C   UNL     1      33.998 -15.732 -22.112  0.00  0.00    +0.115 C 
ATOM      5  C   UNL     1      32.484 -15.607 -21.854  0.00  0.00    +0.053 C 
ATOM      6  C   UNL     1      34.586 -14.402 -22.615  0.00  0.00    +0.053 C 
ATOM      7  C   UNL     1      34.319 -16.891 -23.001  0.00  0.00    +0.001 C 
ATOM      8  C   UNL     1      34.205 -13.238 -21.699  0.00  0.00    +0.096 C 
ATOM      9  C   UNL     1      32.161 -14.404 -20.966  0.00  0.00    +0.096 C 
ATOM     10  C   UNL     1      34.899 -17.903 -22.246  0.00  0.00    +0.005 C 
ATOM     11  C   UNL     1      34.989 -17.477 -20.831  0.00  0.00    +0.169 C 
ATOM     12  C   UNL     1      34.103 -17.055 -24.360  0.00  0.00    -0.002 C 
ATOM     13  C   UNL     1      31.932 -12.089 -21.802  0.00  0.00    +0.250 C 
ATOM     14  C   UNL     1      35.278 -19.105 -22.818  0.00  0.00    -0.002 C 
ATOM     15  C   UNL     1      34.486 -18.259 -24.954  0.00  0.00    -0.000 C 
ATOM     16  C   UNL     1      35.070 -19.278 -24.188  0.00  0.00    -0.000 C 
ENDROOT
BRANCH  13  19
ATOM     17 CL   UNL     1      36.043  -9.407 -26.912  0.00  0.00    -0.082 Cl
ATOM     18  N   UNL     1      33.140  -8.762 -22.628  0.00  0.00    -0.288 N 
ATOM     19  C   UNL     1      32.558 -10.888 -22.369  0.00  0.00    +0.070 C 
ATOM     20  C   UNL     1      33.389 -10.791 -23.520  0.00  0.00    +0.019 C 
ATOM     21  C   UNL     1      32.424  -9.624 -21.843  0.00  0.00    +0.070 C 
ATOM     22  C   UNL     1      33.740  -9.446 -23.661  0.00  0.00    +0.053 C 
ATOM     23  C   UNL     1      33.878 -11.721 -24.460  0.00  0.00    +0.002 C 
ATOM     24  C   UNL     1      34.558  -8.984 -24.697  0.00  0.00    +0.026 C 
ATOM     25  C   UNL     1      34.697 -11.272 -25.502  0.00  0.00    +0.011 C 
ATOM     26  C   UNL     1      35.031  -9.924 -25.617  0.00  0.00    +0.059 C 
BRANCH  18  27
ATOM     27  C   UNL     1      33.240  -7.338 -22.393  0.00  0.00    +0.073 C 
BRANCH  27  28
ATOM     28  C   UNL     1      32.046  -6.815 -21.595  0.00  0.00    -0.055 C 
BRANCH  28  29
ATOM     29  N   UNL     1      31.062  -6.219 -22.491  0.00  0.00    +0.385 N 
ATOM     30  C   UNL     1      31.708  -5.716 -23.704  0.00  0.00    -0.101 C 
ATOM     31  C   UNL     1      30.339  -5.139 -21.817  0.00  0.00    -0.101 C 
ATOM     32  H   UNL     1      30.393  -6.942 -22.755  0.00  0.00    -0.080 HD
ENDBRANCH  28  29
ENDBRANCH  27  28
ENDBRANCH  18  27
ENDBRANCH  13  19
TORSDOF 4
ENDMDL
MODEL 3
REMARK VINA RESULT:      -9.6      9.983     14.706
REMARK  Name = 59657596
REMARK  4 active torsions:
REMARK  status: ('A' for Active; 'I' for Inactive)
REMARK    1  A    between atoms: C_13  and  C_19
REMARK    2  A    between atoms: N_18  and  C_27
REMARK    3  A    between atoms: C_27  and  C_28
REMARK    4  A    between atoms: C_28  and  N_29
REMARK                            x       y       z     vdW  Elec       q    Type
REMARK                         _______ _______ _______ _____ _____    ______ ____
ROOT
ATOM      1  O   UNL     1      30.363  -4.668 -24.422  0.00  0.00    -0.350 OA
ATOM      2  O   UNL     1      33.009  -7.639 -20.349  0.00  0.00    -0.270 OA
ATOM      3  N   UNL     1      31.778  -7.051 -22.247  0.00  0.00    -0.276 N 
ATOM      4  C   UNL     1      31.717  -5.204 -24.480  0.00  0.00    +0.115 C 
ATOM      5  C   UNL     1      32.439  -4.866 -23.161  0.00  0.00    +0.053 C 
ATOM      6  C   UNL     1      31.618  -6.726 -24.682  0.00  0.00    +0.053 C 
ATOM      7  C   UNL     1      32.326  -4.494 -25.648  0.00  0.00    +0.001 C 
ATOM      8  C   UNL     1      31.025  -7.418 -23.454  0.00  0.00    +0.096 C 
ATOM      9  C   UNL     1      31.829  -5.616 -21.975  0.00  0.00    +0.096 C 
ATOM     10  C   UNL     1      31.476  -3.474 -26.059  0.00  0.00    +0.005 C 
ATOM     11  C   UNL     1      30.275  -3.449 -25.193  0.00  0.00    +0.169 C 
ATOM     12  C   UNL     1      33.536  -4.711 -26.287  0.00  0.00    -0.002 C 
ATOM     13  C   UNL     1      32.398  -7.944 -21.371  0.00  0.00    +0.250 C 
ATOM     14  C   UNL     1      31.806  -2.641 -27.114  0.00  0.00    -0.002 C 
ATOM     15  C   UNL     1      33.879  -3.883 -27.358  0.00  0.00    -0.000 C 
ATOM     16  C   UNL     1      33.020  -2.855 -27.769  0.00  0.00    -0.000 C 
ENDROOT
BRANCH  13  19
ATOM     17 CL   UNL     1      34.133 -13.083 -25.931  0.00  0.00    -0.082 Cl
ATOM     18  N   UNL     1      31.867 -11.538 -21.495  0.00  0.00    -0.288 N 
ATOM     19  C   UNL     1      32.336  -9.377 -21.686  0.00  0.00    +0.070 C 
ATOM     20  C   UNL     1      32.870 -10.051 -22.821  0.00  0.00    +0.019 C 
ATOM     21  C   UNL     1      31.726 -10.318 -20.890  0.00  0.00    +0.070 C 
ATOM     22  C   UNL     1      32.562 -11.405 -22.676  0.00  0.00    +0.053 C 
ATOM     23  C   UNL     1      33.588  -9.636 -23.961  0.00  0.00    +0.002 C 
ATOM     24  C   UNL     1      32.936 -12.369 -23.618  0.00  0.00    +0.026 C 
ATOM     25  C   UNL     1      33.970 -10.590 -24.911  0.00  0.00    +0.011 C 
ATOM     26  C   UNL     1      33.648 -11.935 -24.740  0.00  0.00    +0.059 C 
BRANCH  18  27
ATOM     27  C   UNL     1      31.353 -12.779 -20.957  0.00  0.00    +0.073 C 
BRANCH  27  28
ATOM     28  C   UNL     1      32.436 -13.558 -20.211  0.00  0.00    -0.055 C 
BRANCH  28  29
ATOM     29  N   UNL     1      32.938 -14.646 -21.042  0.00  0.00    +0.385 N 
ATOM     30  C   UNL     1      32.286 -15.908 -20.687  0.00  0.00    -0.101 C 
ATOM     31  C   UNL     1      34.390 -14.770 -20.907  0.00  0.00    -0.101 C 
ATOM     32  H   UNL     1      32.720 -14.431 -22.014  0.00  0.00    -0.080 HD
ENDBRANCH  28  29
ENDBRANCH  27  28
ENDBRANCH  18  27
ENDBRANCH  13  19
TORSDOF 4
ENDMDL
MODEL 4
REMARK VINA RESULT:      -9.1      3.909      8.696
REMARK  Name = 59657596
REMARK  4 active torsions:
REMARK  status: ('A' for Active; 'I' for Inactive)
REMARK    1  A    between atoms: C_13  and  C_19
REMARK    2  A    between atoms: N_18  and  C_27
REMARK    3  A    between atoms: C_27  and  C_28
REMARK    4  A    between atoms: C_28  and  N_29
REMARK                            x       y       z     vdW  Elec       q    Type
REMARK                         _______ _______ _______ _____ _____    ______ ____
ROOT
ATOM      1  O   UNL     1      37.501 -23.316 -12.626  0.00  0.00    -0.350 OA
ATOM      2  O   UNL     1      32.128 -25.119 -13.164  0.00  0.00    -0.270 OA
ATOM      3  N   UNL     1      34.150 -23.990 -13.479  0.00  0.00    -0.276 N 
ATOM      4  C   UNL     1      37.023 -24.366 -13.517  0.00  0.00    +0.115 C 
ATOM      5  C   UNL     1      36.089 -25.300 -12.723  0.00  0.00    +0.053 C 
ATOM      6  C   UNL     1      36.276 -23.697 -14.683  0.00  0.00    +0.053 C 
ATOM      7  C   UNL     1      38.278 -25.062 -13.943  0.00  0.00    +0.001 C 
ATOM      8  C   UNL     1      34.984 -23.030 -14.213  0.00  0.00    +0.096 C 
ATOM      9  C   UNL     1      34.797 -24.591 -12.314  0.00  0.00    +0.096 C 
ATOM     10  C   UNL     1      39.341 -24.604 -13.173  0.00  0.00    +0.005 C 
ATOM     11  C   UNL     1      38.855 -23.596 -12.204  0.00  0.00    +0.169 C 
ATOM     12  C   UNL     1      38.470 -26.033 -14.913  0.00  0.00    -0.002 C 
ATOM     13  C   UNL     1      32.833 -24.332 -13.792  0.00  0.00    +0.250 C 
ATOM     14  C   UNL     1      40.622 -25.098 -13.345  0.00  0.00    -0.002 C 
ATOM     15  C   UNL     1      39.758 -26.536 -15.103  0.00  0.00    -0.000 C 
ATOM     16  C   UNL     1      40.828 -26.072 -14.325  0.00  0.00    -0.000 C 
ENDROOT
BRANCH  13  19
ATOM     17 CL   UNL     1      26.866 -22.103 -16.896  0.00  0.00    -0.082 Cl
ATOM     18  N   UNL     1      32.034 -22.798 -16.989  0.00  0.00    -0.288 N 
ATOM     19  C   UNL     1      32.223 -23.719 -14.978  0.00  0.00    +0.070 C 
ATOM     20  C   UNL     1      30.849 -23.422 -15.205  0.00  0.00    +0.019 C 
ATOM     21  C   UNL     1      32.925 -23.324 -16.093  0.00  0.00    +0.070 C 
ATOM     22  C   UNL     1      30.759 -22.845 -16.474  0.00  0.00    +0.053 C 
ATOM     23  C   UNL     1      29.671 -23.589 -14.450  0.00  0.00    +0.002 C 
ATOM     24  C   UNL     1      29.544 -22.426 -17.028  0.00  0.00    +0.026 C 
ATOM     25  C   UNL     1      28.449 -23.174 -14.991  0.00  0.00    +0.011 C 
ATOM     26  C   UNL     1      28.389 -22.602 -16.260  0.00  0.00    +0.059 C 
BRANCH  18  27
ATOM     27  C   UNL     1      32.398 -22.273 -18.288  0.00  0.00    +0.073 C 
BRANCH  27  28
ATOM     28  C   UNL     1      33.903 -22.375 -18.533  0.00  0.00    -0.055 C 
BRANCH  28  29
ATOM     29  N   UNL     1      34.257 -21.710 -19.781  0.00  0.00    +0.385 N 
ATOM     30  C   UNL     1      35.632 -21.208 -19.725  0.00  0.00    -0.101 C 
ATOM     31  C   UNL     1      33.328 -20.614 -20.062  0.00  0.00    -0.101 C 
ATOM     32  H   UNL     1      34.192 -22.392 -20.536  0.00  0.00    -0.080 HD
ENDBRANCH  28  29
ENDBRANCH  27  28
ENDBRANCH  18  27
ENDBRANCH  13  19
TORSDOF 4
ENDMDL
MODEL 5
REMARK VINA RESULT:      -8.8      7.825     12.399
REMARK  Name = 59657596
REMARK  4 active torsions:
REMARK  status: ('A' for Active; 'I' for Inactive)
REMARK    1  A    between atoms: C_13  and  C_19
REMARK    2  A    between atoms: N_18  and  C_27
REMARK    3  A    between atoms: C_27  and  C_28
REMARK    4  A    between atoms: C_28  and  N_29
REMARK                            x       y       z     vdW  Elec       q    Type
REMARK                         _______ _______ _______ _____ _____    ______ ____
ROOT
ATOM      1  O   UNL     1      35.162 -16.313 -20.971  0.00  0.00    -0.350 OA
ATOM      2  O   UNL     1      30.775 -12.696 -20.681  0.00  0.00    -0.270 OA
ATOM      3  N   UNL     1      32.882 -13.629 -21.072  0.00  0.00    -0.276 N 
ATOM      4  C   UNL     1      34.206 -16.022 -22.032  0.00  0.00    +0.115 C 
ATOM      5  C   UNL     1      32.784 -16.059 -21.438  0.00  0.00    +0.053 C 
ATOM      6  C   UNL     1      34.533 -14.630 -22.598  0.00  0.00    +0.053 C 
ATOM      7  C   UNL     1      34.429 -17.126 -23.016  0.00  0.00    +0.001 C 
ATOM      8  C   UNL     1      34.258 -13.529 -21.574  0.00  0.00    +0.096 C 
ATOM      9  C   UNL     1      32.554 -14.913 -20.452  0.00  0.00    +0.096 C 
ATOM     10  C   UNL     1      35.259 -18.086 -22.451  0.00  0.00    +0.005 C 
ATOM     11  C   UNL     1      35.624 -17.679 -21.075  0.00  0.00    +0.169 C 
ATOM     12  C   UNL     1      33.929 -17.287 -24.299  0.00  0.00    -0.002 C 
ATOM     13  C   UNL     1      31.920 -12.619 -21.122  0.00  0.00    +0.250 C 
ATOM     14  C   UNL     1      35.614 -19.232 -23.142  0.00  0.00    -0.002 C 
ATOM     15  C   UNL     1      34.283 -18.434 -25.012  0.00  0.00    -0.000 C 
ATOM     16  C   UNL     1      35.121 -19.401 -24.437  0.00  0.00    -0.000 C 
ENDROOT
BRANCH  13  19
ATOM     17 CL   UNL     1      32.396  -5.579 -20.473  0.00  0.00    -0.082 Cl
ATOM     18  N   UNL     1      32.992  -9.918 -23.305  0.00  0.00    -0.288 N 
ATOM     19  C   UNL     1      32.283 -11.350 -21.764  0.00  0.00    +0.070 C 
ATOM     20  C   UNL     1      32.216 -10.038 -21.217  0.00  0.00    +0.019 C 
ATOM     21  C   UNL     1      32.764 -11.243 -23.049  0.00  0.00    +0.070 C 
ATOM     22  C   UNL     1      32.667  -9.158 -22.204  0.00  0.00    +0.053 C 
ATOM     23  C   UNL     1      31.815  -9.512 -19.972  0.00  0.00    +0.002 C 
ATOM     24  C   UNL     1      32.736  -7.775 -22.008  0.00  0.00    +0.026 C 
ATOM     25  C   UNL     1      31.879  -8.130 -19.762  0.00  0.00    +0.011 C 
ATOM     26  C   UNL     1      32.332  -7.277 -20.766  0.00  0.00    +0.059 C 
BRANCH  18  27
ATOM     27  C   UNL     1      33.502  -9.406 -24.558  0.00  0.00    +0.073 C 
BRANCH  27  28
ATOM     28  C   UNL     1      35.020  -9.557 -24.650  0.00  0.00    -0.055 C 
BRANCH  28  29
ATOM     29  N   UNL     1      35.365 -10.682 -25.511  0.00  0.00    +0.385 N 
ATOM     30  C   UNL     1      36.075 -10.219 -26.705  0.00  0.00    -0.101 C 
ATOM     31  C   UNL     1      34.163 -11.426 -25.893  0.00  0.00    -0.101 C 
ATOM     32  H   UNL     1      35.980 -11.306 -24.990  0.00  0.00    -0.080 HD
ENDBRANCH  28  29
ENDBRANCH  27  28
ENDBRANCH  18  27
ENDBRANCH  13  19
TORSDOF 4
ENDMDL
MODEL 6
REMARK VINA RESULT:      -8.8      8.568     13.146
REMARK  Name = 59657596
REMARK  4 active torsions:
REMARK  status: ('A' for Active; 'I' for Inactive)
REMARK    1  A    between atoms: C_13  and  C_19
REMARK    2  A    between atoms: N_18  and  C_27
REMARK    3  A    between atoms: C_27  and  C_28
REMARK    4  A    between atoms: C_28  and  N_29
REMARK                            x       y       z     vdW  Elec       q    Type
REMARK                         _______ _______ _______ _____ _____    ______ ____
ROOT
ATOM      1  O   UNL     1      30.751  -6.353 -24.091  0.00  0.00    -0.350 OA
ATOM      2  O   UNL     1      32.763  -9.676 -19.928  0.00  0.00    -0.270 OA
ATOM      3  N   UNL     1      31.849  -8.921 -21.943  0.00  0.00    -0.276 N 
ATOM      4  C   UNL     1      32.110  -6.867 -23.971  0.00  0.00    +0.115 C 
ATOM      5  C   UNL     1      32.593  -6.650 -22.524  0.00  0.00    +0.053 C 
ATOM      6  C   UNL     1      32.086  -8.362 -24.328  0.00  0.00    +0.053 C 
ATOM      7  C   UNL     1      32.884  -6.040 -24.948  0.00  0.00    +0.001 C 
ATOM      8  C   UNL     1      31.316  -9.176 -23.287  0.00  0.00    +0.096 C 
ATOM      9  C   UNL     1      31.816  -7.517 -21.533  0.00  0.00    +0.096 C 
ATOM     10  C   UNL     1      32.088  -4.994 -25.398  0.00  0.00    +0.005 C 
ATOM     11  C   UNL     1      30.759  -5.066 -24.748  0.00  0.00    +0.169 C 
ATOM     12  C   UNL     1      34.189  -6.181 -25.393  0.00  0.00    -0.002 C 
ATOM     13  C   UNL     1      32.338  -9.887 -21.062  0.00  0.00    +0.250 C 
ATOM     14  C   UNL     1      32.565  -4.059 -26.300  0.00  0.00    -0.002 C 
ATOM     15  C   UNL     1      34.683  -5.250 -26.309  0.00  0.00    -0.000 C 
ATOM     16  C   UNL     1      33.877  -4.196 -26.760  0.00  0.00    -0.000 C 
ENDROOT
BRANCH  13  19
ATOM     17 CL   UNL     1      33.805 -14.362 -26.358  0.00  0.00    -0.082 Cl
ATOM     18  N   UNL     1      32.152 -13.492 -21.488  0.00  0.00    -0.288 N 
ATOM     19  C   UNL     1      32.368 -11.284 -21.516  0.00  0.00    +0.070 C 
ATOM     20  C   UNL     1      32.773 -11.787 -22.784  0.00  0.00    +0.019 C 
ATOM     21  C   UNL     1      31.992 -12.357 -20.742  0.00  0.00    +0.070 C 
ATOM     22  C   UNL     1      32.628 -13.175 -22.740  0.00  0.00    +0.053 C 
ATOM     23  C   UNL     1      33.252 -11.192 -23.970  0.00  0.00    +0.002 C 
ATOM     24  C   UNL     1      32.938 -14.001 -23.826  0.00  0.00    +0.026 C 
ATOM     25  C   UNL     1      33.566 -12.006 -25.063  0.00  0.00    +0.011 C 
ATOM     26  C   UNL     1      33.410 -13.389 -24.991  0.00  0.00    +0.059 C 
BRANCH  18  27
ATOM     27  C   UNL     1      31.858 -14.827 -21.014  0.00  0.00    +0.073 C 
BRANCH  27  28
ATOM     28  C   UNL     1      33.115 -15.531 -20.505  0.00  0.00    -0.055 C 
BRANCH  28  29
ATOM     29  N   UNL     1      33.601 -16.480 -21.500  0.00  0.00    +0.385 N 
ATOM     30  C   UNL     1      33.578 -17.844 -20.967  0.00  0.00    -0.101 C 
ATOM     31  C   UNL     1      34.954 -16.127 -21.931  0.00  0.00    -0.101 C 
ATOM     32  H   UNL     1      32.981 -16.438 -22.309  0.00  0.00    -0.080 HD
ENDBRANCH  28  29
ENDBRANCH  27  28
ENDBRANCH  18  27
ENDBRANCH  13  19
TORSDOF 4
ENDMDL
MODEL 7
REMARK VINA RESULT:      -8.8     10.780     15.013
REMARK  Name = 59657596
REMARK  4 active torsions:
REMARK  status: ('A' for Active; 'I' for Inactive)
REMARK    1  A    between atoms: C_13  and  C_19
REMARK    2  A    between atoms: N_18  and  C_27
REMARK    3  A    between atoms: C_27  and  C_28
REMARK    4  A    between atoms: C_28  and  N_29
REMARK                            x       y       z     vdW  Elec       q    Type
REMARK                         _______ _______ _______ _____ _____    ______ ____
ROOT
ATOM      1  O   UNL     1      30.255  -4.437 -24.703  0.00  0.00    -0.350 OA
ATOM      2  O   UNL     1      32.947  -7.646 -20.848  0.00  0.00    -0.270 OA
ATOM      3  N   UNL     1      31.810  -6.930 -22.760  0.00  0.00    -0.276 N 
ATOM      4  C   UNL     1      31.672  -4.776 -24.694  0.00  0.00    +0.115 C 
ATOM      5  C   UNL     1      32.222  -4.560 -23.271  0.00  0.00    +0.053 C 
ATOM      6  C   UNL     1      31.811  -6.246 -25.124  0.00  0.00    +0.053 C 
ATOM      7  C   UNL     1      32.268  -3.817 -25.675  0.00  0.00    +0.001 C 
ATOM      8  C   UNL     1      31.223  -7.195 -24.080  0.00  0.00    +0.096 C 
ATOM      9  C   UNL     1      31.629  -5.562 -22.279  0.00  0.00    +0.096 C 
ATOM     10  C   UNL     1      31.317  -2.863 -26.021  0.00  0.00    +0.005 C 
ATOM     11  C   UNL     1      30.056  -3.133 -25.294  0.00  0.00    +0.169 C 
ATOM     12  C   UNL     1      33.546  -3.770 -26.208  0.00  0.00    -0.002 C 
ATOM     13  C   UNL     1      32.475  -7.863 -21.962  0.00  0.00    +0.250 C 
ATOM     14  C   UNL     1      31.611  -1.838 -26.903  0.00  0.00    -0.002 C 
ATOM     15  C   UNL     1      33.856  -2.746 -27.104  0.00  0.00    -0.000 C 
ATOM     16  C   UNL     1      32.895  -1.786 -27.450  0.00  0.00    -0.000 C 
ENDROOT
BRANCH  13  19
ATOM     17 CL   UNL     1      31.898 -14.812 -20.702  0.00  0.00    -0.082 Cl
ATOM     18  N   UNL     1      33.143 -10.873 -23.886  0.00  0.00    -0.288 N 
ATOM     19  C   UNL     1      32.649  -9.223 -22.487  0.00  0.00    +0.070 C 
ATOM     20  C   UNL     1      32.386 -10.458 -21.830  0.00  0.00    +0.019 C 
ATOM     21  C   UNL     1      33.113  -9.512 -23.749  0.00  0.00    +0.070 C 
ATOM     22  C   UNL     1      32.703 -11.477 -22.730  0.00  0.00    +0.053 C 
ATOM     23  C   UNL     1      31.905 -10.807 -20.551  0.00  0.00    +0.002 C 
ATOM     24  C   UNL     1      32.565 -12.833 -22.415  0.00  0.00    +0.026 C 
ATOM     25  C   UNL     1      31.761 -12.160 -20.222  0.00  0.00    +0.011 C 
ATOM     26  C   UNL     1      32.087 -13.156 -21.141  0.00  0.00    +0.059 C 
BRANCH  18  27
ATOM     27  C   UNL     1      33.576 -11.562 -25.083  0.00  0.00    +0.073 C 
BRANCH  27  28
ATOM     28  C   UNL     1      33.732 -13.063 -24.840  0.00  0.00    -0.055 C 
BRANCH  28  29
ATOM     29  N   UNL     1      33.047 -13.817 -25.884  0.00  0.00    +0.385 N 
ATOM     30  C   UNL     1      33.373 -15.241 -25.790  0.00  0.00    -0.101 C 
ATOM     31  C   UNL     1      33.400 -13.302 -27.208  0.00  0.00    -0.101 C 
ATOM     32  H   UNL     1      32.042 -13.705 -25.750  0.00  0.00    -0.080 HD
ENDBRANCH  28  29
ENDBRANCH  27  28
ENDBRANCH  18  27
ENDBRANCH  13  19
TORSDOF 4
ENDMDL
