MODEL 1
REMARK VINA RESULT:      -9.0      0.000      0.000
REMARK  Name = 7573
REMARK  4 active torsions:
REMARK  status: ('A' for Active; 'I' for Inactive)
REMARK    1  A    between atoms: C_1  and  N_7
REMARK    2  A    between atoms: C_2  and  N_12
REMARK    3  A    between atoms: N_7  and  C_9
REMARK    4  A    between atoms: N_12  and  C_14
REMARK                            x       y       z     vdW  Elec       q    Type
REMARK                         _______ _______ _______ _____ _____    ______ ____
ROOT
ATOM      1  C   UNL     1      33.911 -21.993 -19.174  0.00  0.00    +0.045 C 
ATOM      2  C   UNL     1      35.104 -19.983 -20.759  0.00  0.00    +0.048 C 
ATOM      3  C   UNL     1      33.131 -20.998 -19.803  0.00  0.00    +0.016 C 
ATOM      4  C   UNL     1      35.309 -21.947 -19.366  0.00  0.00    +0.016 C 
ATOM      5  C   UNL     1      33.721 -20.006 -20.586  0.00  0.00    +0.016 C 
ATOM      6  C   UNL     1      35.899 -20.954 -20.149  0.00  0.00    +0.016 C 
ENDROOT
BRANCH   1   7
ATOM      7  N   UNL     1      33.330 -22.972 -18.401  0.00  0.00    -0.334 N 
ATOM      8  H   UNL     1      33.006 -23.789 -18.843  0.00  0.00    +0.147 HD
BRANCH   7   9
ATOM      9  C   UNL     1      33.173 -22.855 -16.951  0.00  0.00    +0.069 C 
ATOM     10  C   UNL     1      34.243 -23.674 -16.235  0.00  0.00    +0.021 C 
ATOM     11  C   UNL     1      31.774 -23.314 -16.553  0.00  0.00    +0.021 C 
ENDBRANCH   7   9
ENDBRANCH   1   7
BRANCH   2  12
ATOM     12  N   UNL     1      35.700 -18.980 -21.550  0.00  0.00    -0.313 N 
ATOM     13  H   UNL     1      36.578 -18.682 -21.217  0.00  0.00    +0.152 HD
BRANCH  12  14
ATOM     14  C   UNL     1      35.287 -18.319 -22.724  0.00  0.00    +0.048 C 
ATOM     15  C   UNL     1      35.237 -16.924 -22.762  0.00  0.00    +0.015 C 
ATOM     16  C   UNL     1      34.927 -19.058 -23.853  0.00  0.00    +0.015 C 
ATOM     17  C   UNL     1      34.828 -16.271 -23.923  0.00  0.00    +0.001 C 
ATOM     18  C   UNL     1      34.517 -18.403 -25.015  0.00  0.00    +0.001 C 
ATOM     19  C   UNL     1      34.468 -17.010 -25.051  0.00  0.00    +0.000 C 
ENDBRANCH  12  14
ENDBRANCH   2  12
TORSDOF 4
ENDMDL
MODEL 2
REMARK VINA RESULT:      -8.9      0.743      7.604
REMARK  Name = 7573
REMARK  4 active torsions:
REMARK  status: ('A' for Active; 'I' for Inactive)
REMARK    1  A    between atoms: C_1  and  N_7
REMARK    2  A    between atoms: C_2  and  N_12
REMARK    3  A    between atoms: N_7  and  C_9
REMARK    4  A    between atoms: N_12  and  C_14
REMARK                            x       y       z     vdW  Elec       q    Type
REMARK                         _______ _______ _______ _____ _____    ______ ____
ROOT
ATOM      1  C   UNL     1      34.961 -19.783 -20.830  0.00  0.00    +0.045 C 
ATOM      2  C   UNL     1      33.936 -21.927 -19.304  0.00  0.00    +0.048 C 
ATOM      3  C   UNL     1      35.819 -20.739 -20.242  0.00  0.00    +0.016 C 
ATOM      4  C   UNL     1      33.572 -19.939 -20.627  0.00  0.00    +0.016 C 
ATOM      5  C   UNL     1      35.312 -21.798 -19.489  0.00  0.00    +0.016 C 
ATOM      6  C   UNL     1      33.065 -20.998 -19.873  0.00  0.00    +0.016 C 
ENDROOT
BRANCH   1   7
ATOM      7  N   UNL     1      35.460 -18.738 -21.572  0.00  0.00    -0.334 N 
ATOM      8  H   UNL     1      36.333 -18.358 -21.321  0.00  0.00    +0.147 HD
BRANCH   7   9
ATOM      9  C   UNL     1      34.755 -18.165 -22.718  0.00  0.00    +0.069 C 
ATOM     10  C   UNL     1      34.957 -19.038 -23.954  0.00  0.00    +0.021 C 
ATOM     11  C   UNL     1      35.254 -16.745 -22.963  0.00  0.00    +0.021 C 
ENDBRANCH   7   9
ENDBRANCH   1   7
BRANCH   2  12
ATOM     12  N   UNL     1      33.425 -22.998 -18.542  0.00  0.00    -0.313 N 
ATOM     13  H   UNL     1      33.280 -23.821 -19.064  0.00  0.00    +0.152 HD
BRANCH  12  14
ATOM     14  C   UNL     1      33.080 -23.123 -17.181  0.00  0.00    +0.048 C 
ATOM     15  C   UNL     1      31.747 -23.004 -16.783  0.00  0.00    +0.015 C 
ATOM     16  C   UNL     1      34.071 -23.367 -16.229  0.00  0.00    +0.015 C 
ATOM     17  C   UNL     1      31.407 -23.128 -15.437  0.00  0.00    +0.001 C 
ATOM     18  C   UNL     1      33.730 -23.491 -14.881  0.00  0.00    +0.001 C 
ATOM     19  C   UNL     1      32.398 -23.372 -14.486  0.00  0.00    +0.000 C 
ENDBRANCH  12  14
ENDBRANCH   2  12
TORSDOF 4
ENDMDL
MODEL 3
REMARK VINA RESULT:      -8.8      2.272      7.581
REMARK  Name = 7573
REMARK  4 active torsions:
REMARK  status: ('A' for Active; 'I' for Inactive)
REMARK    1  A    between atoms: C_1  and  N_7
REMARK    2  A    between atoms: C_2  and  N_12
REMARK    3  A    between atoms: N_7  and  C_9
REMARK    4  A    between atoms: N_12  and  C_14
REMARK                            x       y       z     vdW  Elec       q    Type
REMARK                         _______ _______ _______ _____ _____    ______ ____
ROOT
ATOM      1  C   UNL     1      34.342 -15.526 -23.428  0.00  0.00    +0.045 C 
ATOM      2  C   UNL     1      35.355 -17.808 -22.111  0.00  0.00    +0.048 C 
ATOM      3  C   UNL     1      34.507 -15.548 -22.026  0.00  0.00    +0.016 C 
ATOM      4  C   UNL     1      34.702 -16.686 -24.148  0.00  0.00    +0.016 C 
ATOM      5  C   UNL     1      35.008 -16.676 -21.376  0.00  0.00    +0.016 C 
ATOM      6  C   UNL     1      35.203 -17.814 -23.498  0.00  0.00    +0.016 C 
ENDROOT
BRANCH   1   7
ATOM      7  N   UNL     1      33.847 -14.414 -24.070  0.00  0.00    -0.334 N 
ATOM      8  H   UNL     1      33.603 -14.490 -25.021  0.00  0.00    +0.147 HD
BRANCH   7   9
ATOM      9  C   UNL     1      33.663 -13.124 -23.405  0.00  0.00    +0.069 C 
ATOM     10  C   UNL     1      32.272 -13.042 -22.783  0.00  0.00    +0.021 C 
ATOM     11  C   UNL     1      33.880 -11.999 -24.412  0.00  0.00    +0.021 C 
ENDBRANCH   7   9
ENDBRANCH   1   7
BRANCH   2  12
ATOM     12  N   UNL     1      35.862 -18.948 -21.453  0.00  0.00    -0.313 N 
ATOM     13  H   UNL     1      36.836 -19.059 -21.546  0.00  0.00    +0.152 HD
BRANCH  12  14
ATOM     14  C   UNL     1      35.249 -19.961 -20.688  0.00  0.00    +0.048 C 
ATOM     15  C   UNL     1      36.032 -20.880 -19.988  0.00  0.00    +0.015 C 
ATOM     16  C   UNL     1      33.856 -20.046 -20.628  0.00  0.00    +0.015 C 
ATOM     17  C   UNL     1      35.425 -21.882 -19.231  0.00  0.00    +0.001 C 
ATOM     18  C   UNL     1      33.250 -21.048 -19.871  0.00  0.00    +0.001 C 
ATOM     19  C   UNL     1      34.034 -21.966 -19.172  0.00  0.00    +0.000 C 
ENDBRANCH  12  14
ENDBRANCH   2  12
TORSDOF 4
ENDMDL
MODEL 4
REMARK VINA RESULT:      -8.7      1.123      1.723
REMARK  Name = 7573
REMARK  4 active torsions:
REMARK  status: ('A' for Active; 'I' for Inactive)
REMARK    1  A    between atoms: C_1  and  N_7
REMARK    2  A    between atoms: C_2  and  N_12
REMARK    3  A    between atoms: N_7  and  C_9
REMARK    4  A    between atoms: N_12  and  C_14
REMARK                            x       y       z     vdW  Elec       q    Type
REMARK                         _______ _______ _______ _____ _____    ______ ____
ROOT
ATOM      1  C   UNL     1      33.881 -21.762 -19.395  0.00  0.00    +0.045 C 
ATOM      2  C   UNL     1      34.961 -19.653 -20.930  0.00  0.00    +0.048 C 
ATOM      3  C   UNL     1      33.045 -20.867 -20.099  0.00  0.00    +0.016 C 
ATOM      4  C   UNL     1      35.276 -21.565 -19.488  0.00  0.00    +0.016 C 
ATOM      5  C   UNL     1      33.580 -19.825 -20.857  0.00  0.00    +0.016 C 
ATOM      6  C   UNL     1      35.810 -20.523 -20.246  0.00  0.00    +0.016 C 
ENDROOT
BRANCH   1   7
ATOM      7  N   UNL     1      33.355 -22.789 -18.646  0.00  0.00    -0.334 N 
ATOM      8  H   UNL     1      33.079 -23.614 -19.108  0.00  0.00    +0.147 HD
BRANCH   7   9
ATOM      9  C   UNL     1      33.187 -22.714 -17.196  0.00  0.00    +0.069 C 
ATOM     10  C   UNL     1      34.224 -23.588 -16.496  0.00  0.00    +0.021 C 
ATOM     11  C   UNL     1      31.771 -23.143 -16.825  0.00  0.00    +0.021 C 
ENDBRANCH   7   9
ENDBRANCH   1   7
BRANCH   2  12
ATOM     12  N   UNL     1      35.501 -18.599 -21.698  0.00  0.00    -0.313 N 
ATOM     13  H   UNL     1      36.297 -18.856 -22.218  0.00  0.00    +0.152 HD
BRANCH  12  14
ATOM     14  C   UNL     1      35.125 -17.252 -21.867  0.00  0.00    +0.048 C 
ATOM     15  C   UNL     1      34.810 -16.468 -20.755  0.00  0.00    +0.015 C 
ATOM     16  C   UNL     1      35.068 -16.698 -23.147  0.00  0.00    +0.015 C 
ATOM     17  C   UNL     1      34.439 -15.135 -20.923  0.00  0.00    +0.001 C 
ATOM     18  C   UNL     1      34.696 -15.363 -23.315  0.00  0.00    +0.001 C 
ATOM     19  C   UNL     1      34.382 -14.582 -22.203  0.00  0.00    +0.000 C 
ENDBRANCH  12  14
ENDBRANCH   2  12
TORSDOF 4
ENDMDL
MODEL 5
REMARK VINA RESULT:      -8.5      3.859      7.964
REMARK  Name = 7573
REMARK  4 active torsions:
REMARK  status: ('A' for Active; 'I' for Inactive)
REMARK    1  A    between atoms: C_1  and  N_7
REMARK    2  A    between atoms: C_2  and  N_12
REMARK    3  A    between atoms: N_7  and  C_9
REMARK    4  A    between atoms: N_12  and  C_14
REMARK                            x       y       z     vdW  Elec       q    Type
REMARK                         _______ _______ _______ _____ _____    ______ ____
ROOT
ATOM      1  C   UNL     1      32.566 -13.756 -22.223  0.00  0.00    +0.045 C 
ATOM      2  C   UNL     1      34.346 -15.936 -21.994  0.00  0.00    +0.048 C 
ATOM      3  C   UNL     1      32.908 -14.292 -20.962  0.00  0.00    +0.016 C 
ATOM      4  C   UNL     1      33.147 -14.348 -23.365  0.00  0.00    +0.016 C 
ATOM      5  C   UNL     1      33.787 -15.369 -20.849  0.00  0.00    +0.016 C 
ATOM      6  C   UNL     1      34.027 -15.425 -23.253  0.00  0.00    +0.016 C 
ENDROOT
BRANCH   1   7
ATOM      7  N   UNL     1      31.698 -12.694 -22.334  0.00  0.00    -0.334 N 
ATOM      8  H   UNL     1      30.911 -12.791 -22.918  0.00  0.00    +0.147 HD
BRANCH   7   9
ATOM      9  C   UNL     1      31.888 -11.430 -21.624  0.00  0.00    +0.069 C 
ATOM     10  C   UNL     1      30.754 -11.207 -20.626  0.00  0.00    +0.021 C 
ATOM     11  C   UNL     1      31.962 -10.288 -22.632  0.00  0.00    +0.021 C 
ENDBRANCH   7   9
ENDBRANCH   1   7
BRANCH   2  12
ATOM     12  N   UNL     1      35.236 -17.024 -21.880  0.00  0.00    -0.313 N 
ATOM     13  H   UNL     1      36.119 -16.857 -22.284  0.00  0.00    +0.152 HD
BRANCH  12  14
ATOM     14  C   UNL     1      35.110 -18.303 -21.302  0.00  0.00    +0.048 C 
ATOM     15  C   UNL     1      33.848 -18.874 -21.133  0.00  0.00    +0.015 C 
ATOM     16  C   UNL     1      36.249 -19.002 -20.898  0.00  0.00    +0.015 C 
ATOM     17  C   UNL     1      33.724 -20.140 -20.562  0.00  0.00    +0.001 C 
ATOM     18  C   UNL     1      36.125 -20.269 -20.325  0.00  0.00    +0.001 C 
ATOM     19  C   UNL     1      34.863 -20.838 -20.158  0.00  0.00    +0.000 C 
ENDBRANCH  12  14
ENDBRANCH   2  12
TORSDOF 4
ENDMDL
MODEL 6
REMARK VINA RESULT:      -8.4      5.211      7.964
REMARK  Name = 7573
REMARK  4 active torsions:
REMARK  status: ('A' for Active; 'I' for Inactive)
REMARK    1  A    between atoms: C_1  and  N_7
REMARK    2  A    between atoms: C_2  and  N_12
REMARK    3  A    between atoms: N_7  and  C_9
REMARK    4  A    between atoms: N_12  and  C_14
REMARK                            x       y       z     vdW  Elec       q    Type
REMARK                         _______ _______ _______ _____ _____    ______ ____
ROOT
ATOM      1  C   UNL     1      34.396 -15.833 -22.675  0.00  0.00    +0.045 C 
ATOM      2  C   UNL     1      32.541 -13.756 -22.205  0.00  0.00    +0.048 C 
ATOM      3  C   UNL     1      33.653 -15.773 -21.475  0.00  0.00    +0.016 C 
ATOM      4  C   UNL     1      34.177 -14.817 -23.631  0.00  0.00    +0.016 C 
ATOM      5  C   UNL     1      32.737 -14.746 -21.243  0.00  0.00    +0.016 C 
ATOM      6  C   UNL     1      33.261 -13.791 -23.399  0.00  0.00    +0.016 C 
ENDROOT
BRANCH   1   7
ATOM      7  N   UNL     1      35.300 -16.844 -22.903  0.00  0.00    -0.334 N 
ATOM      8  H   UNL     1      36.137 -16.628 -23.374  0.00  0.00    +0.147 HD
BRANCH   7   9
ATOM      9  C   UNL     1      35.077 -18.225 -22.477  0.00  0.00    +0.069 C 
ATOM     10  C   UNL     1      36.172 -18.664 -21.509  0.00  0.00    +0.021 C 
ATOM     11  C   UNL     1      35.034 -19.133 -23.702  0.00  0.00    +0.021 C 
ENDBRANCH   7   9
ENDBRANCH   1   7
BRANCH   2  12
ATOM     12  N   UNL     1      31.615 -12.719 -21.970  0.00  0.00    -0.313 N 
ATOM     13  H   UNL     1      30.743 -12.861 -22.406  0.00  0.00    +0.152 HD
BRANCH  12  14
ATOM     14  C   UNL     1      31.690 -11.519 -21.234  0.00  0.00    +0.048 C 
ATOM     15  C   UNL     1      31.858 -10.302 -21.896  0.00  0.00    +0.015 C 
ATOM     16  C   UNL     1      31.596 -11.546 -19.841  0.00  0.00    +0.015 C 
ATOM     17  C   UNL     1      31.933  -9.115 -21.168  0.00  0.00    +0.001 C 
ATOM     18  C   UNL     1      31.671 -10.358 -19.113  0.00  0.00    +0.001 C 
ATOM     19  C   UNL     1      31.839  -9.143 -19.776  0.00  0.00    +0.000 C 
ENDBRANCH  12  14
ENDBRANCH   2  12
TORSDOF 4
ENDMDL
MODEL 7
REMARK VINA RESULT:      -8.4      1.501      7.298
REMARK  Name = 7573
REMARK  4 active torsions:
REMARK  status: ('A' for Active; 'I' for Inactive)
REMARK    1  A    between atoms: C_1  and  N_7
REMARK    2  A    between atoms: C_2  and  N_12
REMARK    3  A    between atoms: N_7  and  C_9
REMARK    4  A    between atoms: N_12  and  C_14
REMARK                            x       y       z     vdW  Elec       q    Type
REMARK                         _______ _______ _______ _____ _____    ______ ____
ROOT
ATOM      1  C   UNL     1      35.278 -18.840 -21.088  0.00  0.00    +0.045 C 
ATOM      2  C   UNL     1      34.709 -21.272 -19.772  0.00  0.00    +0.048 C 
ATOM      3  C   UNL     1      33.948 -19.270 -20.889  0.00  0.00    +0.016 C 
ATOM      4  C   UNL     1      36.313 -19.669 -20.605  0.00  0.00    +0.016 C 
ATOM      5  C   UNL     1      33.668 -20.472 -20.239  0.00  0.00    +0.016 C 
ATOM      6  C   UNL     1      36.033 -20.871 -19.955  0.00  0.00    +0.016 C 
ENDROOT
BRANCH   1   7
ATOM      7  N   UNL     1      35.555 -17.655 -21.731  0.00  0.00    -0.334 N 
ATOM      8  H   UNL     1      36.459 -17.520 -22.098  0.00  0.00    +0.147 HD
BRANCH   7   9
ATOM      9  C   UNL     1      34.569 -16.587 -21.896  0.00  0.00    +0.069 C 
ATOM     10  C   UNL     1      34.812 -15.841 -23.205  0.00  0.00    +0.021 C 
ATOM     11  C   UNL     1      34.641 -15.640 -20.704  0.00  0.00    +0.021 C 
ENDBRANCH   7   9
ENDBRANCH   1   7
BRANCH   2  12
ATOM     12  N   UNL     1      34.426 -22.487 -19.114  0.00  0.00    -0.313 N 
ATOM     13  H   UNL     1      34.546 -23.282 -19.683  0.00  0.00    +0.152 HD
BRANCH  12  14
ATOM     14  C   UNL     1      34.004 -22.788 -17.803  0.00  0.00    +0.048 C 
ATOM     15  C   UNL     1      32.652 -23.009 -17.537  0.00  0.00    +0.015 C 
ATOM     16  C   UNL     1      34.938 -22.864 -16.769  0.00  0.00    +0.015 C 
ATOM     17  C   UNL     1      32.235 -23.306 -16.240  0.00  0.00    +0.001 C 
ATOM     18  C   UNL     1      34.521 -23.162 -15.471  0.00  0.00    +0.001 C 
ATOM     19  C   UNL     1      33.170 -23.383 -15.207  0.00  0.00    +0.000 C 
ENDBRANCH  12  14
ENDBRANCH   2  12
TORSDOF 4
ENDMDL
MODEL 8
REMARK VINA RESULT:      -8.3      3.654      6.092
REMARK  Name = 7573
REMARK  4 active torsions:
REMARK  status: ('A' for Active; 'I' for Inactive)
REMARK    1  A    between atoms: C_1  and  N_7
REMARK    2  A    between atoms: C_2  and  N_12
REMARK    3  A    between atoms: N_7  and  C_9
REMARK    4  A    between atoms: N_12  and  C_14
REMARK                            x       y       z     vdW  Elec       q    Type
REMARK                         _______ _______ _______ _____ _____    ______ ____
ROOT
ATOM      1  C   UNL     1      35.245 -17.286 -21.483  0.00  0.00    +0.045 C 
ATOM      2  C   UNL     1      34.342 -15.080 -22.998  0.00  0.00    +0.048 C 
ATOM      3  C   UNL     1      34.733 -16.128 -20.857  0.00  0.00    +0.016 C 
ATOM      4  C   UNL     1      35.288 -17.301 -22.895  0.00  0.00    +0.016 C 
ATOM      5  C   UNL     1      34.287 -15.039 -21.606  0.00  0.00    +0.016 C 
ATOM      6  C   UNL     1      34.842 -16.212 -23.644  0.00  0.00    +0.016 C 
ENDROOT
BRANCH   1   7
ATOM      7  N   UNL     1      35.686 -18.359 -20.745  0.00  0.00    -0.334 N 
ATOM      8  H   UNL     1      36.325 -18.196 -20.014  0.00  0.00    +0.147 HD
BRANCH   7   9
ATOM      9  C   UNL     1      35.249 -19.733 -20.994  0.00  0.00    +0.069 C 
ATOM     10  C   UNL     1      33.754 -19.870 -20.724  0.00  0.00    +0.021 C 
ATOM     11  C   UNL     1      36.054 -20.688 -20.120  0.00  0.00    +0.021 C 
ENDBRANCH   7   9
ENDBRANCH   1   7
BRANCH   2  12
ATOM     12  N   UNL     1      33.890 -13.979 -23.755  0.00  0.00    -0.313 N 
ATOM     13  H   UNL     1      34.018 -14.087 -24.725  0.00  0.00    +0.152 HD
BRANCH  12  14
ATOM     14  C   UNL     1      33.291 -12.755 -23.396  0.00  0.00    +0.048 C 
ATOM     15  C   UNL     1      32.226 -12.735 -22.494  0.00  0.00    +0.015 C 
ATOM     16  C   UNL     1      33.763 -11.559 -23.942  0.00  0.00    +0.015 C 
ATOM     17  C   UNL     1      31.634 -11.523 -22.139  0.00  0.00    +0.001 C 
ATOM     18  C   UNL     1      33.170 -10.348 -23.586  0.00  0.00    +0.001 C 
ATOM     19  C   UNL     1      32.106 -10.329 -22.685  0.00  0.00    +0.000 C 
ENDBRANCH  12  14
ENDBRANCH   2  12
TORSDOF 4
ENDMDL
MODEL 9
REMARK VINA RESULT:      -8.3      5.016      7.972
REMARK  Name = 7573
REMARK  4 active torsions:
REMARK  status: ('A' for Active; 'I' for Inactive)
REMARK    1  A    between atoms: C_1  and  N_7
REMARK    2  A    between atoms: C_2  and  N_12
REMARK    3  A    between atoms: N_7  and  C_9
REMARK    4  A    between atoms: N_12  and  C_14
REMARK                            x       y       z     vdW  Elec       q    Type
REMARK                         _______ _______ _______ _____ _____    ______ ____
ROOT
ATOM      1  C   UNL     1      34.679 -15.935 -22.730  0.00  0.00    +0.045 C 
ATOM      2  C   UNL     1      32.689 -14.017 -22.154  0.00  0.00    +0.048 C 
ATOM      3  C   UNL     1      34.094 -15.850 -21.447  0.00  0.00    +0.016 C 
ATOM      4  C   UNL     1      34.233 -15.026 -23.714  0.00  0.00    +0.016 C 
ATOM      5  C   UNL     1      33.110 -14.902 -21.164  0.00  0.00    +0.016 C 
ATOM      6  C   UNL     1      33.250 -14.079 -23.430  0.00  0.00    +0.016 C 
ENDROOT
BRANCH   1   7
ATOM      7  N   UNL     1      35.650 -16.869 -23.009  0.00  0.00    -0.334 N 
ATOM      8  H   UNL     1      36.593 -16.620 -22.876  0.00  0.00    +0.147 HD
BRANCH   7   9
ATOM      9  C   UNL     1      35.347 -18.215 -23.494  0.00  0.00    +0.069 C 
ATOM     10  C   UNL     1      34.537 -18.143 -24.786  0.00  0.00    +0.021 C 
ATOM     11  C   UNL     1      34.591 -18.985 -22.416  0.00  0.00    +0.021 C 
ENDBRANCH   7   9
ENDBRANCH   1   7
BRANCH   2  12
ATOM     12  N   UNL     1      31.694 -13.059 -21.867  0.00  0.00    -0.313 N 
ATOM     13  H   UNL     1      30.791 -13.328 -22.155  0.00  0.00    +0.152 HD
BRANCH  12  14
ATOM     14  C   UNL     1      31.737 -11.793 -21.250  0.00  0.00    +0.048 C 
ATOM     15  C   UNL     1      31.641 -11.688 -19.861  0.00  0.00    +0.015 C 
ATOM     16  C   UNL     1      31.878 -10.641 -22.026  0.00  0.00    +0.015 C 
ATOM     17  C   UNL     1      31.683 -10.435 -19.250  0.00  0.00    +0.001 C 
ATOM     18  C   UNL     1      31.920  -9.388 -21.415  0.00  0.00    +0.001 C 
ATOM     19  C   UNL     1      31.824  -9.285 -20.027  0.00  0.00    +0.000 C 
ENDBRANCH  12  14
ENDBRANCH   2  12
TORSDOF 4
ENDMDL
