MODEL 1
REMARK VINA RESULT:      -4.1      0.000      0.000
REMARK  Name = 5288817
REMARK  2 active torsions:
REMARK  status: ('A' for Active; 'I' for Inactive)
REMARK    1  A    between atoms: P_1  and  C_5
REMARK    2  A    between atoms: C_5  and  S_6
REMARK                            x       y       z     vdW  Elec       q    Type
REMARK                         _______ _______ _______ _____ _____    ______ ____
ROOT
ATOM      1  P   UNL     1      28.097 -23.201 -16.604  0.00  0.00    +0.406 P 
ATOM      2  O   UNL     1      26.951 -22.602 -15.795  0.00  0.00    -0.137 OA
ATOM      3  O   UNL     1      27.679 -24.246 -17.633  0.00  0.00    -0.137 OA
ATOM      4  O   UNL     1      29.147 -22.198 -17.070  0.00  0.00    -0.252 OA
ENDROOT
BRANCH   1   5
ATOM      5  C   UNL     1      28.988 -24.193 -15.317  0.00  0.00    +0.174 C 
BRANCH   5   6
ATOM      6  S   UNL     1      30.391 -23.214 -14.751  0.00  0.00    -0.155 S 
ATOM      7  H   UNL     1      30.426 -22.036 -15.429  0.00  0.00    +0.103 HD
ENDBRANCH   5   6
ENDBRANCH   1   5
TORSDOF 2
ENDMDL
MODEL 2
REMARK VINA RESULT:      -4.1      0.496      1.966
REMARK  Name = 5288817
REMARK  2 active torsions:
REMARK  status: ('A' for Active; 'I' for Inactive)
REMARK    1  A    between atoms: P_1  and  C_5
REMARK    2  A    between atoms: C_5  and  S_6
REMARK                            x       y       z     vdW  Elec       q    Type
REMARK                         _______ _______ _______ _____ _____    ______ ____
ROOT
ATOM      1  P   UNL     1      28.308 -22.928 -16.632  0.00  0.00    +0.406 P 
ATOM      2  O   UNL     1      29.633 -22.346 -17.114  0.00  0.00    -0.137 OA
ATOM      3  O   UNL     1      27.465 -21.984 -15.782  0.00  0.00    -0.137 OA
ATOM      4  O   UNL     1      27.546 -23.739 -17.675  0.00  0.00    -0.252 OA
ENDROOT
BRANCH   1   5
ATOM      5  C   UNL     1      28.878 -24.210 -15.421  0.00  0.00    +0.174 C 
BRANCH   5   6
ATOM      6  S   UNL     1      30.364 -23.579 -14.621  0.00  0.00    -0.155 S 
ATOM      7  H   UNL     1      31.120 -22.907 -15.531  0.00  0.00    +0.103 HD
ENDBRANCH   5   6
ENDBRANCH   1   5
TORSDOF 2
ENDMDL
MODEL 3
REMARK VINA RESULT:      -3.9      8.872      9.273
REMARK  Name = 5288817
REMARK  2 active torsions:
REMARK  status: ('A' for Active; 'I' for Inactive)
REMARK    1  A    between atoms: P_1  and  C_5
REMARK    2  A    between atoms: C_5  and  S_6
REMARK                            x       y       z     vdW  Elec       q    Type
REMARK                         _______ _______ _______ _____ _____    ______ ____
ROOT
ATOM      1  P   UNL     1      35.943 -24.389 -11.308  0.00  0.00    +0.406 P 
ATOM      2  O   UNL     1      36.503 -25.727 -11.781  0.00  0.00    -0.137 OA
ATOM      3  O   UNL     1      34.592 -24.012 -11.905  0.00  0.00    -0.137 OA
ATOM      4  O   UNL     1      36.107 -24.116  -9.817  0.00  0.00    -0.252 OA
ENDROOT
BRANCH   1   5
ATOM      5  C   UNL     1      37.116 -23.190 -12.097  0.00  0.00    +0.174 C 
BRANCH   5   6
ATOM      6  S   UNL     1      37.037 -23.446 -13.879  0.00  0.00    -0.155 S 
ATOM      7  H   UNL     1      36.096 -22.623 -14.415  0.00  0.00    +0.103 HD
ENDBRANCH   5   6
ENDBRANCH   1   5
TORSDOF 2
ENDMDL
MODEL 4
REMARK VINA RESULT:      -3.8      2.640      2.908
REMARK  Name = 5288817
REMARK  2 active torsions:
REMARK  status: ('A' for Active; 'I' for Inactive)
REMARK    1  A    between atoms: P_1  and  C_5
REMARK    2  A    between atoms: C_5  and  S_6
REMARK                            x       y       z     vdW  Elec       q    Type
REMARK                         _______ _______ _______ _____ _____    ______ ____
ROOT
ATOM      1  P   UNL     1      28.333 -23.325 -16.561  0.00  0.00    +0.406 P 
ATOM      2  O   UNL     1      29.388 -22.344 -17.064  0.00  0.00    -0.137 OA
ATOM      3  O   UNL     1      27.668 -24.164 -17.646  0.00  0.00    -0.137 OA
ATOM      4  O   UNL     1      28.707 -24.070 -15.284  0.00  0.00    -0.252 OA
ENDROOT
BRANCH   1   5
ATOM      5  C   UNL     1      26.985 -22.178 -16.012  0.00  0.00    +0.174 C 
BRANCH   5   6
ATOM      6  S   UNL     1      26.281 -21.421 -17.488  0.00  0.00    -0.155 S 
ATOM      7  H   UNL     1      26.147 -22.361 -18.461  0.00  0.00    +0.103 HD
ENDBRANCH   5   6
ENDBRANCH   1   5
TORSDOF 2
ENDMDL
MODEL 5
REMARK VINA RESULT:      -3.8     10.890     11.277
REMARK  Name = 5288817
REMARK  2 active torsions:
REMARK  status: ('A' for Active; 'I' for Inactive)
REMARK    1  A    between atoms: P_1  and  C_5
REMARK    2  A    between atoms: C_5  and  S_6
REMARK                            x       y       z     vdW  Elec       q    Type
REMARK                         _______ _______ _______ _____ _____    ______ ____
ROOT
ATOM      1  P   UNL     1      39.597 -25.558 -14.537  0.00  0.00    +0.406 P 
ATOM      2  O   UNL     1      39.374 -24.295 -15.363  0.00  0.00    -0.137 OA
ATOM      3  O   UNL     1      38.760 -26.759 -14.963  0.00  0.00    -0.137 OA
ATOM      4  O   UNL     1      41.054 -25.854 -14.198  0.00  0.00    -0.252 OA
ENDROOT
BRANCH   1   5
ATOM      5  C   UNL     1      38.864 -25.074 -12.905  0.00  0.00    +0.174 C 
BRANCH   5   6
ATOM      6  S   UNL     1      37.318 -25.981 -12.714  0.00  0.00    -0.155 S 
ATOM      7  H   UNL     1      36.662 -25.533 -11.610  0.00  0.00    +0.103 HD
ENDBRANCH   5   6
ENDBRANCH   1   5
TORSDOF 2
ENDMDL
MODEL 6
REMARK VINA RESULT:      -3.8     10.886     11.378
REMARK  Name = 5288817
REMARK  2 active torsions:
REMARK  status: ('A' for Active; 'I' for Inactive)
REMARK    1  A    between atoms: P_1  and  C_5
REMARK    2  A    between atoms: C_5  and  S_6
REMARK                            x       y       z     vdW  Elec       q    Type
REMARK                         _______ _______ _______ _____ _____    ______ ____
ROOT
ATOM      1  P   UNL     1      39.589 -25.532 -14.556  0.00  0.00    +0.406 P 
ATOM      2  O   UNL     1      41.043 -25.821 -14.197  0.00  0.00    -0.137 OA
ATOM      3  O   UNL     1      39.370 -24.270 -15.383  0.00  0.00    -0.137 OA
ATOM      4  O   UNL     1      38.780 -26.752 -14.984  0.00  0.00    -0.252 OA
ENDROOT
BRANCH   1   5
ATOM      5  C   UNL     1      38.873 -25.097 -12.903  0.00  0.00    +0.174 C 
BRANCH   5   6
ATOM      6  S   UNL     1      37.311 -25.981 -12.738  0.00  0.00    -0.155 S 
ATOM      7  H   UNL     1      37.536 -27.319 -12.824  0.00  0.00    +0.103 HD
ENDBRANCH   5   6
ENDBRANCH   1   5
TORSDOF 2
ENDMDL
MODEL 7
REMARK VINA RESULT:      -3.7      9.646     10.175
REMARK  Name = 5288817
REMARK  2 active torsions:
REMARK  status: ('A' for Active; 'I' for Inactive)
REMARK    1  A    between atoms: P_1  and  C_5
REMARK    2  A    between atoms: C_5  and  S_6
REMARK                            x       y       z     vdW  Elec       q    Type
REMARK                         _______ _______ _______ _____ _____    ______ ____
ROOT
ATOM      1  P   UNL     1      37.172 -23.715 -11.729  0.00  0.00    +0.406 P 
ATOM      2  O   UNL     1      36.232 -23.174 -12.803  0.00  0.00    -0.137 OA
ATOM      3  O   UNL     1      38.542 -23.049 -11.681  0.00  0.00    -0.137 OA
ATOM      4  O   UNL     1      36.517 -23.980 -10.378  0.00  0.00    -0.252 OA
ENDROOT
BRANCH   1   5
ATOM      5  C   UNL     1      37.538 -25.414 -12.373  0.00  0.00    +0.174 C 
BRANCH   5   6
ATOM      6  S   UNL     1      38.943 -25.280 -13.493  0.00  0.00    -0.155 S 
ATOM      7  H   UNL     1      38.567 -24.608 -14.614  0.00  0.00    +0.103 HD
ENDBRANCH   5   6
ENDBRANCH   1   5
TORSDOF 2
ENDMDL
MODEL 8
REMARK VINA RESULT:      -3.7      9.679     10.093
REMARK  Name = 5288817
REMARK  2 active torsions:
REMARK  status: ('A' for Active; 'I' for Inactive)
REMARK    1  A    between atoms: P_1  and  C_5
REMARK    2  A    between atoms: C_5  and  S_6
REMARK                            x       y       z     vdW  Elec       q    Type
REMARK                         _______ _______ _______ _____ _____    ______ ____
ROOT
ATOM      1  P   UNL     1      37.222 -23.725 -11.774  0.00  0.00    +0.406 P 
ATOM      2  O   UNL     1      36.562 -24.007 -10.428  0.00  0.00    -0.137 OA
ATOM      3  O   UNL     1      36.284 -23.188 -12.849  0.00  0.00    -0.137 OA
ATOM      4  O   UNL     1      38.588 -23.050 -11.691  0.00  0.00    -0.252 OA
ENDROOT
BRANCH   1   5
ATOM      5  C   UNL     1      37.621 -25.436 -12.363  0.00  0.00    +0.174 C 
BRANCH   5   6
ATOM      6  S   UNL     1      38.975 -25.302 -13.545  0.00  0.00    -0.155 S 
ATOM      7  H   UNL     1      38.926 -24.088 -14.156  0.00  0.00    +0.103 HD
ENDBRANCH   5   6
ENDBRANCH   1   5
TORSDOF 2
ENDMDL
MODEL 9
REMARK VINA RESULT:      -3.7      9.555     10.078
REMARK  Name = 5288817
REMARK  2 active torsions:
REMARK  status: ('A' for Active; 'I' for Inactive)
REMARK    1  A    between atoms: P_1  and  C_5
REMARK    2  A    between atoms: C_5  and  S_6
REMARK                            x       y       z     vdW  Elec       q    Type
REMARK                         _______ _______ _______ _____ _____    ______ ____
ROOT
ATOM      1  P   UNL     1      37.157 -23.591 -11.715  0.00  0.00    +0.406 P 
ATOM      2  O   UNL     1      38.405 -22.720 -11.615  0.00  0.00    -0.137 OA
ATOM      3  O   UNL     1      36.527 -23.966 -10.379  0.00  0.00    -0.137 OA
ATOM      4  O   UNL     1      36.182 -23.192 -12.817  0.00  0.00    -0.252 OA
ENDROOT
BRANCH   1   5
ATOM      5  C   UNL     1      37.865 -25.193 -12.324  0.00  0.00    +0.174 C 
BRANCH   5   6
ATOM      6  S   UNL     1      38.310 -24.966 -14.056  0.00  0.00    -0.155 S 
ATOM      7  H   UNL     1      38.823 -26.126 -14.548  0.00  0.00    +0.103 HD
ENDBRANCH   5   6
ENDBRANCH   1   5
TORSDOF 2
ENDMDL
