MODEL 1
REMARK VINA RESULT:      -7.7      0.000      0.000
REMARK  Name = 4260
REMARK  7 active torsions:
REMARK  status: ('A' for Active; 'I' for Inactive)
REMARK    1  A    between atoms: C_1  and  C_8
REMARK    2  A    between atoms: C_2  and  O_11
REMARK    3  A    between atoms: C_6  and  O_18
REMARK    4  A    between atoms: O_11  and  C_12
REMARK    5  A    between atoms: C_12  and  C_13
REMARK    6  A    between atoms: C_13  and  N_14
REMARK    7  A    between atoms: O_18  and  C_20
REMARK                            x       y       z     vdW  Elec       q    Type
REMARK                         _______ _______ _______ _____ _____    ______ ____
ROOT
ATOM      1  C   UNL     1      33.442 -11.514 -23.979  0.00  0.00    +0.014 C 
ATOM      2  C   UNL     1      33.033 -12.658 -23.275  0.00  0.00    +0.134 C 
ATOM      3  C   UNL     1      32.967 -10.253 -23.621  0.00  0.00    +0.036 C 
ATOM      4  C   UNL     1      31.664 -11.246 -21.846  0.00  0.00    +0.016 C 
ATOM      5  C   UNL     1      32.139 -12.508 -22.204  0.00  0.00    +0.035 C 
ATOM      6  C   UNL     1      32.078 -10.119 -22.554  0.00  0.00    +0.144 C 
ATOM      7  C   UNL     1      30.713 -11.122 -20.701  0.00  0.00    +0.034 C 
ENDROOT
BRANCH   1   8
ATOM      8  C   UNL     1      34.391 -11.639 -25.125  0.00  0.00    +0.025 C 
ATOM      9  C   UNL     1      35.175 -10.339 -25.381  0.00  0.00    +0.005 C 
ATOM     10  C   UNL     1      33.692 -12.094 -26.419  0.00  0.00    +0.005 C 
ENDBRANCH   1   8
BRANCH   2  11
ATOM     11  O   UNL     1      33.481 -13.882 -23.607  0.00  0.00    -0.478 OA
BRANCH  11  12
ATOM     12  C   UNL     1      34.445 -14.504 -22.767  0.00  0.00    +0.183 C 
BRANCH  12  13
ATOM     13  C   UNL     1      34.228 -16.009 -22.806  0.00  0.00    -0.029 C 
BRANCH  13  14
ATOM     14  N   UNL     1      35.269 -16.659 -23.602  0.00  0.00    +0.387 N 
ATOM     15  C   UNL     1      34.821 -16.835 -24.983  0.00  0.00    -0.101 C 
ATOM     16  C   UNL     1      35.631 -17.948 -23.013  0.00  0.00    -0.101 C 
ATOM     17  H   UNL     1      36.096 -16.061 -23.604  0.00  0.00    -0.080 HD
ENDBRANCH  13  14
ENDBRANCH  12  13
ENDBRANCH  11  12
ENDBRANCH   2  11
BRANCH   6  18
ATOM     18  O   UNL     1      31.623  -8.879 -22.218  0.00  0.00    -0.424 OA
BRANCH  18  20
ATOM     19  O   UNL     1      33.401  -7.367 -22.404  0.00  0.00    -0.250 OA
ATOM     20  C   UNL     1      32.619  -8.019 -21.726  0.00  0.00    +0.322 C 
ATOM     21  C   UNL     1      32.593  -8.011 -20.226  0.00  0.00    +0.122 C 
ENDBRANCH  18  20
ENDBRANCH   6  18
TORSDOF 7
ENDMDL
MODEL 2
REMARK VINA RESULT:      -7.6      9.318     13.275
REMARK  Name = 4260
REMARK  7 active torsions:
REMARK  status: ('A' for Active; 'I' for Inactive)
REMARK    1  A    between atoms: C_1  and  C_8
REMARK    2  A    between atoms: C_2  and  O_11
REMARK    3  A    between atoms: C_6  and  O_18
REMARK    4  A    between atoms: O_11  and  C_12
REMARK    5  A    between atoms: C_12  and  C_13
REMARK    6  A    between atoms: C_13  and  N_14
REMARK    7  A    between atoms: O_18  and  C_20
REMARK                            x       y       z     vdW  Elec       q    Type
REMARK                         _______ _______ _______ _____ _____    ______ ____
ROOT
ATOM      1  C   UNL     1      34.772 -22.821 -16.682  0.00  0.00    +0.014 C 
ATOM      2  C   UNL     1      36.114 -22.420 -16.575  0.00  0.00    +0.134 C 
ATOM      3  C   UNL     1      34.067 -22.631 -17.871  0.00  0.00    +0.036 C 
ATOM      4  C   UNL     1      36.027 -21.636 -18.875  0.00  0.00    +0.016 C 
ATOM      5  C   UNL     1      36.732 -21.826 -17.686  0.00  0.00    +0.035 C 
ATOM      6  C   UNL     1      34.695 -22.039 -18.967  0.00  0.00    +0.144 C 
ATOM      7  C   UNL     1      36.715 -21.001 -20.038  0.00  0.00    +0.034 C 
ENDROOT
BRANCH   1   8
ATOM      8  C   UNL     1      34.084 -23.454 -15.518  0.00  0.00    +0.025 C 
ATOM      9  C   UNL     1      34.559 -24.897 -15.271  0.00  0.00    +0.005 C 
ATOM     10  C   UNL     1      32.550 -23.423 -15.655  0.00  0.00    +0.005 C 
ENDBRANCH   1   8
BRANCH   2  11
ATOM     11  O   UNL     1      36.808 -22.595 -15.435  0.00  0.00    -0.478 OA
BRANCH  11  12
ATOM     12  C   UNL     1      38.030 -23.318 -15.489  0.00  0.00    +0.183 C 
BRANCH  12  13
ATOM     13  C   UNL     1      37.998 -24.412 -14.434  0.00  0.00    -0.029 C 
BRANCH  13  14
ATOM     14  N   UNL     1      38.491 -25.675 -14.984  0.00  0.00    +0.387 N 
ATOM     15  C   UNL     1      37.670 -26.791 -14.515  0.00  0.00    -0.101 C 
ATOM     16  C   UNL     1      39.891 -25.880 -14.617  0.00  0.00    -0.101 C 
ATOM     17  H   UNL     1      38.426 -25.631 -16.002  0.00  0.00    -0.080 HD
ENDBRANCH  13  14
ENDBRANCH  12  13
ENDBRANCH  11  12
ENDBRANCH   2  11
BRANCH   6  18
ATOM     18  O   UNL     1      33.992 -21.860 -20.120  0.00  0.00    -0.424 OA
BRANCH  18  20
ATOM     19  O   UNL     1      32.218 -20.522 -19.384  0.00  0.00    -0.250 OA
ATOM     20  C   UNL     1      33.175 -20.718 -20.121  0.00  0.00    +0.322 C 
ATOM     21  C   UNL     1      33.643 -19.755 -21.171  0.00  0.00    +0.122 C 
ENDBRANCH  18  20
ENDBRANCH   6  18
TORSDOF 7
ENDMDL
MODEL 3
REMARK VINA RESULT:      -7.5      2.673      6.844
REMARK  Name = 4260
REMARK  7 active torsions:
REMARK  status: ('A' for Active; 'I' for Inactive)
REMARK    1  A    between atoms: C_1  and  C_8
REMARK    2  A    between atoms: C_2  and  O_11
REMARK    3  A    between atoms: C_6  and  O_18
REMARK    4  A    between atoms: O_11  and  C_12
REMARK    5  A    between atoms: C_12  and  C_13
REMARK    6  A    between atoms: C_13  and  N_14
REMARK    7  A    between atoms: O_18  and  C_20
REMARK                            x       y       z     vdW  Elec       q    Type
REMARK                         _______ _______ _______ _____ _____    ______ ____
ROOT
ATOM      1  C   UNL     1      33.330 -14.412 -24.059  0.00  0.00    +0.014 C 
ATOM      2  C   UNL     1      32.893 -13.835 -22.855  0.00  0.00    +0.134 C 
ATOM      3  C   UNL     1      34.219 -15.486 -24.049  0.00  0.00    +0.036 C 
ATOM      4  C   UNL     1      34.258 -15.435 -21.634  0.00  0.00    +0.016 C 
ATOM      5  C   UNL     1      33.368 -14.360 -21.643  0.00  0.00    +0.035 C 
ATOM      6  C   UNL     1      34.683 -15.997 -22.837  0.00  0.00    +0.144 C 
ATOM      7  C   UNL     1      34.744 -15.969 -20.327  0.00  0.00    +0.034 C 
ENDROOT
BRANCH   1   8
ATOM      8  C   UNL     1      32.845 -13.876 -25.365  0.00  0.00    +0.025 C 
ATOM      9  C   UNL     1      32.830 -14.948 -26.470  0.00  0.00    +0.005 C 
ATOM     10  C   UNL     1      33.654 -12.652 -25.833  0.00  0.00    +0.005 C 
ENDBRANCH   1   8
BRANCH   2  11
ATOM     11  O   UNL     1      32.036 -12.798 -22.845  0.00  0.00    -0.478 OA
BRANCH  11  12
ATOM     12  C   UNL     1      31.712 -12.196 -21.599  0.00  0.00    +0.183 C 
BRANCH  12  13
ATOM     13  C   UNL     1      31.093 -10.832 -21.862  0.00  0.00    -0.029 C 
BRANCH  13  14
ATOM     14  N   UNL     1      32.133  -9.822 -22.055  0.00  0.00    +0.387 N 
ATOM     15  C   UNL     1      32.115  -8.855 -20.958  0.00  0.00    -0.101 C 
ATOM     16  C   UNL     1      31.954  -9.143 -23.338  0.00  0.00    -0.101 C 
ATOM     17  H   UNL     1      33.040 -10.289 -22.060  0.00  0.00    -0.080 HD
ENDBRANCH  13  14
ENDBRANCH  12  13
ENDBRANCH  11  12
ENDBRANCH   2  11
BRANCH   6  18
ATOM     18  O   UNL     1      35.552 -17.047 -22.846  0.00  0.00    -0.424 OA
BRANCH  18  20
ATOM     19  O   UNL     1      34.868 -18.548 -24.507  0.00  0.00    -0.250 OA
ATOM     20  C   UNL     1      34.998 -18.243 -23.329  0.00  0.00    +0.322 C 
ATOM     21  C   UNL     1      34.576 -19.112 -22.181  0.00  0.00    +0.122 C 
ENDBRANCH  18  20
ENDBRANCH   6  18
TORSDOF 7
ENDMDL
MODEL 4
REMARK VINA RESULT:      -7.5     10.679     14.896
REMARK  Name = 4260
REMARK  7 active torsions:
REMARK  status: ('A' for Active; 'I' for Inactive)
REMARK    1  A    between atoms: C_1  and  C_8
REMARK    2  A    between atoms: C_2  and  O_11
REMARK    3  A    between atoms: C_6  and  O_18
REMARK    4  A    between atoms: O_11  and  C_12
REMARK    5  A    between atoms: C_12  and  C_13
REMARK    6  A    between atoms: C_13  and  N_14
REMARK    7  A    between atoms: O_18  and  C_20
REMARK                            x       y       z     vdW  Elec       q    Type
REMARK                         _______ _______ _______ _____ _____    ______ ____
ROOT
ATOM      1  C   UNL     1      33.406 -23.963 -14.859  0.00  0.00    +0.014 C 
ATOM      2  C   UNL     1      34.054 -23.385 -15.963  0.00  0.00    +0.134 C 
ATOM      3  C   UNL     1      34.143 -24.534 -13.823  0.00  0.00    +0.036 C 
ATOM      4  C   UNL     1      36.194 -23.964 -14.966  0.00  0.00    +0.016 C 
ATOM      5  C   UNL     1      35.456 -23.392 -16.003  0.00  0.00    +0.035 C 
ATOM      6  C   UNL     1      35.538 -24.535 -13.876  0.00  0.00    +0.144 C 
ATOM      7  C   UNL     1      37.685 -23.956 -15.040  0.00  0.00    +0.034 C 
ENDROOT
BRANCH   1   8
ATOM      8  C   UNL     1      31.914 -23.973 -14.786  0.00  0.00    +0.025 C 
ATOM      9  C   UNL     1      31.342 -22.629 -14.300  0.00  0.00    +0.005 C 
ATOM     10  C   UNL     1      31.377 -25.120 -13.910  0.00  0.00    +0.005 C 
ENDBRANCH   1   8
BRANCH   2  11
ATOM     11  O   UNL     1      33.357 -22.829 -16.972  0.00  0.00    -0.478 OA
BRANCH  11  12
ATOM     12  C   UNL     1      33.796 -23.055 -18.305  0.00  0.00    +0.183 C 
BRANCH  12  13
ATOM     13  C   UNL     1      33.578 -21.785 -19.112  0.00  0.00    -0.029 C 
BRANCH  13  14
ATOM     14  N   UNL     1      34.767 -21.466 -19.902  0.00  0.00    +0.387 N 
ATOM     15  C   UNL     1      35.961 -21.483 -19.058  0.00  0.00    -0.101 C 
ATOM     16  C   UNL     1      34.616 -20.163 -20.549  0.00  0.00    -0.101 C 
ATOM     17  H   UNL     1      34.874 -22.176 -20.627  0.00  0.00    -0.080 HD
ENDBRANCH  13  14
ENDBRANCH  12  13
ENDBRANCH  11  12
ENDBRANCH   2  11
BRANCH   6  18
ATOM     18  O   UNL     1      36.243 -25.098 -12.855  0.00  0.00    -0.424 OA
BRANCH  18  20
ATOM     19  O   UNL     1      35.288 -24.993 -10.720  0.00  0.00    -0.250 OA
ATOM     20  C   UNL     1      35.993 -24.519 -11.601  0.00  0.00    +0.322 C 
ATOM     21  C   UNL     1      36.722 -23.212 -11.487  0.00  0.00    +0.122 C 
ENDBRANCH  18  20
ENDBRANCH   6  18
TORSDOF 7
ENDMDL
MODEL 5
REMARK VINA RESULT:      -7.4      9.449     13.575
REMARK  Name = 4260
REMARK  7 active torsions:
REMARK  status: ('A' for Active; 'I' for Inactive)
REMARK    1  A    between atoms: C_1  and  C_8
REMARK    2  A    between atoms: C_2  and  O_11
REMARK    3  A    between atoms: C_6  and  O_18
REMARK    4  A    between atoms: O_11  and  C_12
REMARK    5  A    between atoms: C_12  and  C_13
REMARK    6  A    between atoms: C_13  and  N_14
REMARK    7  A    between atoms: O_18  and  C_20
REMARK                            x       y       z     vdW  Elec       q    Type
REMARK                         _______ _______ _______ _____ _____    ______ ____
ROOT
ATOM      1  C   UNL     1      34.388 -23.376 -16.110  0.00  0.00    +0.014 C 
ATOM      2  C   UNL     1      33.932 -22.995 -17.383  0.00  0.00    +0.134 C 
ATOM      3  C   UNL     1      33.494 -23.523 -15.050  0.00  0.00    +0.036 C 
ATOM      4  C   UNL     1      31.665 -22.914 -16.507  0.00  0.00    +0.016 C 
ATOM      5  C   UNL     1      32.560 -22.767 -17.568  0.00  0.00    +0.035 C 
ATOM      6  C   UNL     1      32.132 -23.292 -15.249  0.00  0.00    +0.144 C 
ATOM      7  C   UNL     1      30.211 -22.663 -16.738  0.00  0.00    +0.034 C 
ENDROOT
BRANCH   1   8
ATOM      8  C   UNL     1      35.842 -23.625 -15.879  0.00  0.00    +0.025 C 
ATOM      9  C   UNL     1      36.094 -24.578 -14.697  0.00  0.00    +0.005 C 
ATOM     10  C   UNL     1      36.636 -22.321 -15.680  0.00  0.00    +0.005 C 
ENDBRANCH   1   8
BRANCH   2  11
ATOM     11  O   UNL     1      34.781 -22.848 -18.416  0.00  0.00    -0.478 OA
BRANCH  11  12
ATOM     12  C   UNL     1      34.410 -21.983 -19.482  0.00  0.00    +0.183 C 
BRANCH  12  13
ATOM     13  C   UNL     1      35.634 -21.190 -19.914  0.00  0.00    -0.029 C 
BRANCH  13  14
ATOM     14  N   UNL     1      35.265 -19.815 -20.250  0.00  0.00    +0.387 N 
ATOM     15  C   UNL     1      34.036 -19.795 -21.042  0.00  0.00    -0.101 C 
ATOM     16  C   UNL     1      36.352 -19.157 -20.974  0.00  0.00    -0.101 C 
ATOM     17  H   UNL     1      35.099 -19.304 -19.382  0.00  0.00    -0.080 HD
ENDBRANCH  13  14
ENDBRANCH  12  13
ENDBRANCH  11  12
ENDBRANCH   2  11
BRANCH   6  18
ATOM     18  O   UNL     1      31.272 -23.440 -14.202  0.00  0.00    -0.424 OA
BRANCH  18  20
ATOM     19  O   UNL     1      31.742 -25.354 -12.938  0.00  0.00    -0.250 OA
ATOM     20  C   UNL     1      31.091 -24.772 -13.796  0.00  0.00    +0.322 C 
ATOM     21  C   UNL     1      29.970 -25.396 -14.573  0.00  0.00    +0.122 C 
ENDBRANCH  18  20
ENDBRANCH   6  18
TORSDOF 7
ENDMDL
MODEL 6
REMARK VINA RESULT:      -7.4     11.814     14.172
REMARK  Name = 4260
REMARK  7 active torsions:
REMARK  status: ('A' for Active; 'I' for Inactive)
REMARK    1  A    between atoms: C_1  and  C_8
REMARK    2  A    between atoms: C_2  and  O_11
REMARK    3  A    between atoms: C_6  and  O_18
REMARK    4  A    between atoms: O_11  and  C_12
REMARK    5  A    between atoms: C_12  and  C_13
REMARK    6  A    between atoms: C_13  and  N_14
REMARK    7  A    between atoms: O_18  and  C_20
REMARK                            x       y       z     vdW  Elec       q    Type
REMARK                         _______ _______ _______ _____ _____    ______ ____
ROOT
ATOM      1  C   UNL     1      33.354 -23.180 -16.824  0.00  0.00    +0.014 C 
ATOM      2  C   UNL     1      33.959 -23.929 -15.801  0.00  0.00    +0.134 C 
ATOM      3  C   UNL     1      32.043 -22.726 -16.692  0.00  0.00    +0.036 C 
ATOM      4  C   UNL     1      31.905 -23.758 -14.511  0.00  0.00    +0.016 C 
ATOM      5  C   UNL     1      33.218 -24.211 -14.643  0.00  0.00    +0.035 C 
ATOM      6  C   UNL     1      31.317 -23.015 -15.535  0.00  0.00    +0.144 C 
ATOM      7  C   UNL     1      31.144 -24.077 -13.266  0.00  0.00    +0.034 C 
ENDROOT
BRANCH   1   8
ATOM      8  C   UNL     1      34.115 -22.863 -18.069  0.00  0.00    +0.025 C 
ATOM      9  C   UNL     1      35.462 -22.179 -17.776  0.00  0.00    +0.005 C 
ATOM     10  C   UNL     1      33.297 -22.008 -19.055  0.00  0.00    +0.005 C 
ENDBRANCH   1   8
BRANCH   2  11
ATOM     11  O   UNL     1      35.223 -24.374 -15.912  0.00  0.00    -0.478 OA
BRANCH  11  12
ATOM     12  C   UNL     1      35.960 -24.631 -14.725  0.00  0.00    +0.183 C 
BRANCH  12  13
ATOM     13  C   UNL     1      37.429 -24.340 -14.989  0.00  0.00    -0.029 C 
BRANCH  13  14
ATOM     14  N   UNL     1      38.166 -25.581 -15.227  0.00  0.00    +0.387 N 
ATOM     15  C   UNL     1      37.505 -26.703 -14.561  0.00  0.00    -0.101 C 
ATOM     16  C   UNL     1      39.547 -25.452 -14.763  0.00  0.00    -0.101 C 
ATOM     17  H   UNL     1      38.178 -25.763 -16.231  0.00  0.00    -0.080 HD
ENDBRANCH  13  14
ENDBRANCH  12  13
ENDBRANCH  11  12
ENDBRANCH   2  11
BRANCH   6  18
ATOM     18  O   UNL     1      30.037 -22.565 -15.422  0.00  0.00    -0.424 OA
BRANCH  18  20
ATOM     19  O   UNL     1      28.738 -22.385 -17.362  0.00  0.00    -0.250 OA
ATOM     20  C   UNL     1      29.174 -23.039 -16.424  0.00  0.00    +0.322 C 
ATOM     21  C   UNL     1      28.852 -24.484 -16.181  0.00  0.00    +0.122 C 
ENDBRANCH  18  20
ENDBRANCH   6  18
TORSDOF 7
ENDMDL
MODEL 7
REMARK VINA RESULT:      -7.4      3.386      5.872
REMARK  Name = 4260
REMARK  7 active torsions:
REMARK  status: ('A' for Active; 'I' for Inactive)
REMARK    1  A    between atoms: C_1  and  C_8
REMARK    2  A    between atoms: C_2  and  O_11
REMARK    3  A    between atoms: C_6  and  O_18
REMARK    4  A    between atoms: O_11  and  C_12
REMARK    5  A    between atoms: C_12  and  C_13
REMARK    6  A    between atoms: C_13  and  N_14
REMARK    7  A    between atoms: O_18  and  C_20
REMARK                            x       y       z     vdW  Elec       q    Type
REMARK                         _______ _______ _______ _____ _____    ______ ____
ROOT
ATOM      1  C   UNL     1      32.862  -7.070 -22.569  0.00  0.00    +0.014 C 
ATOM      2  C   UNL     1      33.857  -7.314 -23.531  0.00  0.00    +0.134 C 
ATOM      3  C   UNL     1      31.867  -6.122 -22.803  0.00  0.00    +0.036 C 
ATOM      4  C   UNL     1      32.834  -5.637 -24.963  0.00  0.00    +0.016 C 
ATOM      5  C   UNL     1      33.830  -6.586 -24.730  0.00  0.00    +0.035 C 
ATOM      6  C   UNL     1      31.853  -5.405 -24.000  0.00  0.00    +0.144 C 
ATOM      7  C   UNL     1      32.835  -4.880 -26.250  0.00  0.00    +0.034 C 
ENDROOT
BRANCH   1   8
ATOM      8  C   UNL     1      32.863  -7.827 -21.282  0.00  0.00    +0.025 C 
ATOM      9  C   UNL     1      31.933  -9.053 -21.322  0.00  0.00    +0.005 C 
ATOM     10  C   UNL     1      32.505  -6.936 -20.078  0.00  0.00    +0.005 C 
ENDBRANCH   1   8
BRANCH   2  11
ATOM     11  O   UNL     1      34.824  -8.225 -23.321  0.00  0.00    -0.478 OA
BRANCH  11  12
ATOM     12  C   UNL     1      34.982  -9.277 -24.265  0.00  0.00    +0.183 C 
BRANCH  12  13
ATOM     13  C   UNL     1      33.865 -10.288 -24.061  0.00  0.00    -0.029 C 
BRANCH  13  14
ATOM     14  N   UNL     1      34.284 -11.616 -24.507  0.00  0.00    +0.387 N 
ATOM     15  C   UNL     1      33.923 -11.821 -25.909  0.00  0.00    -0.101 C 
ATOM     16  C   UNL     1      33.680 -12.651 -23.667  0.00  0.00    -0.101 C 
ATOM     17  H   UNL     1      35.298 -11.682 -24.421  0.00  0.00    -0.080 HD
ENDBRANCH  13  14
ENDBRANCH  12  13
ENDBRANCH  11  12
ENDBRANCH   2  11
BRANCH   6  18
ATOM     18  O   UNL     1      30.874  -4.482 -24.212  0.00  0.00    -0.424 OA
BRANCH  18  20
ATOM     19  O   UNL     1      30.135  -3.375 -22.285  0.00  0.00    -0.250 OA
ATOM     20  C   UNL     1      30.858  -3.439 -23.270  0.00  0.00    +0.322 C 
ATOM     21  C   UNL     1      31.867  -2.394 -23.647  0.00  0.00    +0.122 C 
ENDBRANCH  18  20
ENDBRANCH   6  18
TORSDOF 7
ENDMDL
MODEL 8
REMARK VINA RESULT:      -7.2      2.583      6.511
REMARK  Name = 4260
REMARK  7 active torsions:
REMARK  status: ('A' for Active; 'I' for Inactive)
REMARK    1  A    between atoms: C_1  and  C_8
REMARK    2  A    between atoms: C_2  and  O_11
REMARK    3  A    between atoms: C_6  and  O_18
REMARK    4  A    between atoms: O_11  and  C_12
REMARK    5  A    between atoms: C_12  and  C_13
REMARK    6  A    between atoms: C_13  and  N_14
REMARK    7  A    between atoms: O_18  and  C_20
REMARK                            x       y       z     vdW  Elec       q    Type
REMARK                         _______ _______ _______ _____ _____    ______ ____
ROOT
ATOM      1  C   UNL     1      33.362 -12.466 -23.652  0.00  0.00    +0.014 C 
ATOM      2  C   UNL     1      32.353 -12.377 -22.679  0.00  0.00    +0.134 C 
ATOM      3  C   UNL     1      34.210 -13.572 -23.697  0.00  0.00    +0.036 C 
ATOM      4  C   UNL     1      33.061 -14.530 -21.800  0.00  0.00    +0.016 C 
ATOM      5  C   UNL     1      32.213 -13.423 -21.755  0.00  0.00    +0.035 C 
ATOM      6  C   UNL     1      34.059 -14.604 -22.770  0.00  0.00    +0.144 C 
ATOM      7  C   UNL     1      32.886 -15.625 -20.800  0.00  0.00    +0.034 C 
ENDROOT
BRANCH   1   8
ATOM      8  C   UNL     1      33.538 -11.369 -24.650  0.00  0.00    +0.025 C 
ATOM      9  C   UNL     1      33.870 -11.903 -26.056  0.00  0.00    +0.005 C 
ATOM     10  C   UNL     1      34.602 -10.344 -24.214  0.00  0.00    +0.005 C 
ENDBRANCH   1   8
BRANCH   2  11
ATOM     11  O   UNL     1      31.526 -11.317 -22.622  0.00  0.00    -0.478 OA
BRANCH  11  12
ATOM     12  C   UNL     1      31.581 -10.475 -21.478  0.00  0.00    +0.183 C 
BRANCH  12  13
ATOM     13  C   UNL     1      32.130  -9.119 -21.896  0.00  0.00    -0.029 C 
BRANCH  13  14
ATOM     14  N   UNL     1      32.541  -8.346 -20.725  0.00  0.00    +0.387 N 
ATOM     15  C   UNL     1      31.964  -8.916 -19.508  0.00  0.00    -0.101 C 
ATOM     16  C   UNL     1      32.143  -6.946 -20.871  0.00  0.00    -0.101 C 
ATOM     17  H   UNL     1      33.558  -8.387 -20.651  0.00  0.00    -0.080 HD
ENDBRANCH  13  14
ENDBRANCH  12  13
ENDBRANCH  11  12
ENDBRANCH   2  11
BRANCH   6  18
ATOM     18  O   UNL     1      34.896 -15.678 -22.828  0.00  0.00    -0.424 OA
BRANCH  18  20
ATOM     19  O   UNL     1      33.974 -16.406 -24.853  0.00  0.00    -0.250 OA
ATOM     20  C   UNL     1      34.533 -16.635 -23.789  0.00  0.00    +0.322 C 
ATOM     21  C   UNL     1      34.927 -18.005 -23.321  0.00  0.00    +0.122 C 
ENDBRANCH  18  20
ENDBRANCH   6  18
TORSDOF 7
ENDMDL
MODEL 9
REMARK VINA RESULT:      -7.2      2.609      4.436
REMARK  Name = 4260
REMARK  7 active torsions:
REMARK  status: ('A' for Active; 'I' for Inactive)
REMARK    1  A    between atoms: C_1  and  C_8
REMARK    2  A    between atoms: C_2  and  O_11
REMARK    3  A    between atoms: C_6  and  O_18
REMARK    4  A    between atoms: O_11  and  C_12
REMARK    5  A    between atoms: C_12  and  C_13
REMARK    6  A    between atoms: C_13  and  N_14
REMARK    7  A    between atoms: O_18  and  C_20
REMARK                            x       y       z     vdW  Elec       q    Type
REMARK                         _______ _______ _______ _____ _____    ______ ____
ROOT
ATOM      1  C   UNL     1      33.484 -14.404 -23.162  0.00  0.00    +0.014 C 
ATOM      2  C   UNL     1      33.622 -15.405 -24.139  0.00  0.00    +0.134 C 
ATOM      3  C   UNL     1      33.389 -13.063 -23.529  0.00  0.00    +0.036 C 
ATOM      4  C   UNL     1      33.566 -13.686 -25.857  0.00  0.00    +0.016 C 
ATOM      5  C   UNL     1      33.661 -15.028 -25.490  0.00  0.00    +0.035 C 
ATOM      6  C   UNL     1      33.430 -12.703 -24.877  0.00  0.00    +0.144 C 
ATOM      7  C   UNL     1      33.611 -13.319 -27.304  0.00  0.00    +0.034 C 
ENDROOT
BRANCH   1   8
ATOM      8  C   UNL     1      33.441 -14.771 -21.715  0.00  0.00    +0.025 C 
ATOM      9  C   UNL     1      32.565 -13.809 -20.892  0.00  0.00    +0.005 C 
ATOM     10  C   UNL     1      34.845 -14.866 -21.092  0.00  0.00    +0.005 C 
ENDBRANCH   1   8
BRANCH   2  11
ATOM     11  O   UNL     1      33.716 -16.704 -23.802  0.00  0.00    -0.478 OA
BRANCH  11  12
ATOM     12  C   UNL     1      34.852 -17.438 -24.237  0.00  0.00    +0.183 C 
BRANCH  12  13
ATOM     13  C   UNL     1      34.930 -18.734 -23.445  0.00  0.00    -0.029 C 
BRANCH  13  14
ATOM     14  N   UNL     1      34.802 -18.470 -22.012  0.00  0.00    +0.387 N 
ATOM     15  C   UNL     1      36.109 -18.544 -21.360  0.00  0.00    -0.101 C 
ATOM     16  C   UNL     1      33.871 -19.418 -21.400  0.00  0.00    -0.101 C 
ATOM     17  H   UNL     1      34.431 -17.528 -21.888  0.00  0.00    -0.080 HD
ENDBRANCH  13  14
ENDBRANCH  12  13
ENDBRANCH  11  12
ENDBRANCH   2  11
BRANCH   6  18
ATOM     18  O   UNL     1      33.336 -11.388 -25.218  0.00  0.00    -0.424 OA
BRANCH  18  20
ATOM     19  O   UNL     1      34.548 -10.096 -23.688  0.00  0.00    -0.250 OA
ATOM     20  C   UNL     1      34.423 -10.608 -24.792  0.00  0.00    +0.322 C 
ATOM     21  C   UNL     1      35.428 -10.483 -25.899  0.00  0.00    +0.122 C 
ENDBRANCH  18  20
ENDBRANCH   6  18
TORSDOF 7
ENDMDL
