MODEL 1
REMARK VINA RESULT:      -9.7      0.000      0.000
REMARK  Name = 127894
REMARK  5 active torsions:
REMARK  status: ('A' for Active; 'I' for Inactive)
REMARK    1  A    between atoms: C_5  and  C_17
REMARK    2  A    between atoms: CA_10  and  C_14
REMARK    3  A    between atoms: C_14  and  O_15
REMARK    4  A    between atoms: C_17  and  C_18
REMARK    5  A    between atoms: C_18  and  C_23
REMARK                            x       y       z     vdW  Elec       q    Type
REMARK                         _______ _______ _______ _____ _____    ______ ____
ROOT
ATOM      1  N   UNL     1      32.887 -14.094 -23.191  0.00  0.00    +0.392 N 
ATOM      2  C   UNL     1      34.616 -15.718 -21.432  0.00  0.00    -0.004 C 
ATOM      3  C   UNL     1      34.817 -15.647 -22.960  0.00  0.00    -0.021 C 
ATOM      4  C   UNL     1      33.909 -17.014 -20.997  0.00  0.00    -0.000 C 
ATOM      5  C   UNL     1      34.632 -18.261 -21.522  0.00  0.00    +0.001 C 
ATOM      6  C   UNL     1      35.477 -16.923 -23.497  0.00  0.00    -0.002 C 
ATOM      7  C   UNL     1      34.777 -18.203 -23.047  0.00  0.00    -0.000 C 
ATOM      8  C   UNL     1      33.862 -14.471 -20.942  0.00  0.00    -0.011 C 
ATOM      9  C   UNL     1      33.496 -15.332 -23.688  0.00  0.00    -0.081 C 
ATOM     10  CA  UNL     1      32.598 -14.196 -21.760  0.00  0.00    +0.040 C 
ATOM     11  H1  UNL     1      32.017 -13.923 -23.696  0.00  0.00    -0.084 HD
ATOM     12  H2  UNL     1      33.540 -13.325 -23.340  0.00  0.00    -0.084 HD
ENDROOT
BRANCH  10  14
ATOM     13  OXT UNL     1      32.001 -12.429 -20.226  0.00  0.00    -0.253 OA
ATOM     14  C   UNL     1      31.994 -12.887 -21.359  0.00  0.00    +0.293 C 
BRANCH  14  15
ATOM     15  O   UNL     1      31.432 -12.272 -22.428  0.00  0.00    -0.482 OA
ATOM     16  H   UNL     1      30.505 -12.311 -22.557  0.00  0.00    +0.295 HD
ENDBRANCH  14  15
ENDBRANCH  10  14
BRANCH   5  17
ATOM     17  C   UNL     1      33.895 -19.531 -21.100  0.00  0.00    +0.016 C 
BRANCH  17  18
ATOM     18  C   UNL     1      34.841 -20.519 -20.419  0.00  0.00    +0.102 C 
BRANCH  18  23
ATOM     19  N   UNL     1      32.863 -21.331 -19.200  0.00  0.00    -0.114 NA
ATOM     20  N   UNL     1      34.661 -22.708 -19.255  0.00  0.00    -0.091 NA
ATOM     21  N   UNL     1      32.684 -22.490 -18.550  0.00  0.00    -0.140 N 
ATOM     22  N   UNL     1      33.723 -23.337 -18.556  0.00  0.00    -0.022 NA
ATOM     23  C   UNL     1      34.100 -21.538 -19.606  0.00  0.00    +0.050 C 
ATOM     24  H   UNL     1      31.838 -22.706 -18.095  0.00  0.00    +0.197 HD
ENDBRANCH  18  23
ENDBRANCH  17  18
ENDBRANCH   5  17
TORSDOF 5
ENDMDL
MODEL 2
REMARK VINA RESULT:      -9.5      8.590     11.556
REMARK  Name = 127894
REMARK  5 active torsions:
REMARK  status: ('A' for Active; 'I' for Inactive)
REMARK    1  A    between atoms: C_5  and  C_17
REMARK    2  A    between atoms: CA_10  and  C_14
REMARK    3  A    between atoms: C_14  and  O_15
REMARK    4  A    between atoms: C_17  and  C_18
REMARK    5  A    between atoms: C_18  and  C_23
REMARK                            x       y       z     vdW  Elec       q    Type
REMARK                         _______ _______ _______ _____ _____    ______ ____
ROOT
ATOM      1  N   UNL     1      38.586 -25.961 -13.033  0.00  0.00    +0.392 N 
ATOM      2  C   UNL     1      37.144 -23.710 -14.287  0.00  0.00    -0.004 C 
ATOM      3  C   UNL     1      36.950 -24.100 -12.807  0.00  0.00    -0.021 C 
ATOM      4  C   UNL     1      35.992 -24.211 -15.177  0.00  0.00    -0.000 C 
ATOM      5  C   UNL     1      34.625 -23.751 -14.653  0.00  0.00    +0.001 C 
ATOM      6  C   UNL     1      35.557 -23.702 -12.300  0.00  0.00    -0.002 C 
ATOM      7  C   UNL     1      34.424 -24.192 -13.198  0.00  0.00    -0.000 C 
ATOM      8  C   UNL     1      38.506 -24.212 -14.790  0.00  0.00    -0.011 C 
ATOM      9  C   UNL     1      37.241 -25.595 -12.576  0.00  0.00    -0.081 C 
ATOM     10  CA  UNL     1      38.739 -25.688 -14.463  0.00  0.00    +0.040 C 
ATOM     11  H1  UNL     1      38.738 -26.955 -12.865  0.00  0.00    -0.084 HD
ATOM     12  H2  UNL     1      39.269 -25.406 -12.519  0.00  0.00    -0.084 HD
ENDROOT
BRANCH  10  14
ATOM     13  OXT UNL     1      40.967 -26.513 -14.029  0.00  0.00    -0.253 OA
ATOM     14  C   UNL     1      40.138 -26.085 -14.818  0.00  0.00    +0.293 C 
BRANCH  14  15
ATOM     15  O   UNL     1      40.367 -25.901 -16.141  0.00  0.00    -0.482 OA
ATOM     16  H   UNL     1      41.049 -26.379 -16.570  0.00  0.00    +0.295 HD
ENDBRANCH  14  15
ENDBRANCH  10  14
BRANCH   5  17
ATOM     17  C   UNL     1      33.500 -24.285 -15.538  0.00  0.00    +0.016 C 
BRANCH  17  18
ATOM     18  C   UNL     1      32.705 -23.144 -16.170  0.00  0.00    +0.102 C 
BRANCH  18  23
ATOM     19  N   UNL     1      32.439 -22.049 -18.357  0.00  0.00    -0.114 NA
ATOM     20  N   UNL     1      33.844 -23.823 -18.273  0.00  0.00    -0.091 NA
ATOM     21  N   UNL     1      33.012 -22.349 -19.532  0.00  0.00    -0.140 N 
ATOM     22  N   UNL     1      33.852 -23.392 -19.529  0.00  0.00    -0.022 NA
ATOM     23  C   UNL     1      32.998 -22.996 -17.633  0.00  0.00    +0.050 C 
ATOM     24  H   UNL     1      32.826 -21.831 -20.349  0.00  0.00    +0.197 HD
ENDBRANCH  18  23
ENDBRANCH  17  18
ENDBRANCH   5  17
TORSDOF 5
ENDMDL
MODEL 3
REMARK VINA RESULT:      -9.0     10.138     12.008
REMARK  Name = 127894
REMARK  5 active torsions:
REMARK  status: ('A' for Active; 'I' for Inactive)
REMARK    1  A    between atoms: C_5  and  C_17
REMARK    2  A    between atoms: CA_10  and  C_14
REMARK    3  A    between atoms: C_14  and  O_15
REMARK    4  A    between atoms: C_17  and  C_18
REMARK    5  A    between atoms: C_18  and  C_23
REMARK                            x       y       z     vdW  Elec       q    Type
REMARK                         _______ _______ _______ _____ _____    ______ ____
ROOT
ATOM      1  N   UNL     1      38.591 -26.102 -13.036  0.00  0.00    +0.392 N 
ATOM      2  C   UNL     1      37.262 -23.669 -14.052  0.00  0.00    -0.004 C 
ATOM      3  C   UNL     1      37.028 -24.211 -12.627  0.00  0.00    -0.021 C 
ATOM      4  C   UNL     1      36.106 -24.021 -15.006  0.00  0.00    -0.000 C 
ATOM      5  C   UNL     1      34.750 -23.565 -14.451  0.00  0.00    +0.001 C 
ATOM      6  C   UNL     1      35.644 -23.813 -12.097  0.00  0.00    -0.002 C 
ATOM      7  C   UNL     1      34.507 -24.153 -13.057  0.00  0.00    -0.000 C 
ATOM      8  C   UNL     1      38.612 -24.169 -14.590  0.00  0.00    -0.011 C 
ATOM      9  C   UNL     1      37.255 -25.732 -12.558  0.00  0.00    -0.081 C 
ATOM     10  CA  UNL     1      38.779 -25.681 -14.425  0.00  0.00    +0.040 C 
ATOM     11  H1  UNL     1      38.700 -27.114 -12.976  0.00  0.00    -0.084 HD
ATOM     12  H2  UNL     1      39.287 -25.635 -12.455  0.00  0.00    -0.084 HD
ENDROOT
BRANCH  10  14
ATOM     13  OXT UNL     1      41.005 -26.531 -14.029  0.00  0.00    -0.253 OA
ATOM     14  C   UNL     1      40.167 -26.094 -14.804  0.00  0.00    +0.293 C 
BRANCH  14  15
ATOM     15  O   UNL     1      40.374 -25.915 -16.132  0.00  0.00    -0.482 OA
ATOM     16  H   UNL     1      39.691 -25.567 -16.669  0.00  0.00    +0.295 HD
ENDBRANCH  14  15
ENDBRANCH  10  14
BRANCH   5  17
ATOM     17  C   UNL     1      33.620 -23.952 -15.404  0.00  0.00    +0.016 C 
BRANCH  17  18
ATOM     18  C   UNL     1      32.344 -23.169 -15.094  0.00  0.00    +0.102 C 
BRANCH  18  23
ATOM     19  N   UNL     1      31.190 -25.118 -14.133  0.00  0.00    -0.114 NA
ATOM     20  N   UNL     1      30.006 -23.853 -15.592  0.00  0.00    -0.091 NA
ATOM     21  N   UNL     1      29.940 -25.554 -14.346  0.00  0.00    -0.140 N 
ATOM     22  N   UNL     1      29.202 -24.836 -15.203  0.00  0.00    -0.022 NA
ATOM     23  C   UNL     1      31.157 -24.071 -14.932  0.00  0.00    +0.050 C 
ATOM     24  H   UNL     1      29.585 -26.356 -13.898  0.00  0.00    +0.197 HD
ENDBRANCH  18  23
ENDBRANCH  17  18
ENDBRANCH   5  17
TORSDOF 5
ENDMDL
MODEL 4
REMARK VINA RESULT:      -8.9      9.332     10.859
REMARK  Name = 127894
REMARK  5 active torsions:
REMARK  status: ('A' for Active; 'I' for Inactive)
REMARK    1  A    between atoms: C_5  and  C_17
REMARK    2  A    between atoms: CA_10  and  C_14
REMARK    3  A    between atoms: C_14  and  O_15
REMARK    4  A    between atoms: C_17  and  C_18
REMARK    5  A    between atoms: C_18  and  C_23
REMARK                            x       y       z     vdW  Elec       q    Type
REMARK                         _______ _______ _______ _____ _____    ______ ____
ROOT
ATOM      1  N   UNL     1      36.849 -22.874 -13.912  0.00  0.00    +0.392 N 
ATOM      2  C   UNL     1      34.437 -24.566 -14.118  0.00  0.00    -0.004 C 
ATOM      3  C   UNL     1      35.181 -24.024 -15.356  0.00  0.00    -0.021 C 
ATOM      4  C   UNL     1      33.163 -23.761 -13.804  0.00  0.00    -0.000 C 
ATOM      5  C   UNL     1      32.231 -23.674 -15.021  0.00  0.00    +0.001 C 
ATOM      6  C   UNL     1      34.235 -23.870 -16.554  0.00  0.00    -0.002 C 
ATOM      7  C   UNL     1      32.967 -23.084 -16.229  0.00  0.00    -0.000 C 
ATOM      8  C   UNL     1      35.388 -24.611 -12.911  0.00  0.00    -0.011 C 
ATOM      9  C   UNL     1      35.923 -22.712 -15.038  0.00  0.00    -0.081 C 
ATOM     10  CA  UNL     1      36.131 -23.289 -12.706  0.00  0.00    +0.040 C 
ATOM     11  H1  UNL     1      37.318 -21.986 -13.733  0.00  0.00    -0.084 HD
ATOM     12  H2  UNL     1      37.531 -23.593 -14.150  0.00  0.00    -0.084 HD
ENDROOT
BRANCH  10  14
ATOM     13  OXT UNL     1      38.273 -22.923 -11.652  0.00  0.00    -0.253 OA
ATOM     14  C   UNL     1      37.163 -23.434 -11.632  0.00  0.00    +0.293 C 
BRANCH  14  15
ATOM     15  O   UNL     1      36.701 -24.217 -10.626  0.00  0.00    -0.482 OA
ATOM     16  H   UNL     1      36.885 -25.135 -10.625  0.00  0.00    +0.295 HD
ENDBRANCH  14  15
ENDBRANCH  10  14
BRANCH   5  17
ATOM     17  C   UNL     1      30.989 -22.848 -14.691  0.00  0.00    +0.016 C 
BRANCH  17  18
ATOM     18  C   UNL     1      29.713 -23.665 -14.888  0.00  0.00    +0.102 C 
BRANCH  18  23
ATOM     19  N   UNL     1      28.675 -23.574 -17.117  0.00  0.00    -0.114 NA
ATOM     20  N   UNL     1      28.086 -21.948 -15.654  0.00  0.00    -0.091 NA
ATOM     21  N   UNL     1      27.795 -22.689 -17.607  0.00  0.00    -0.140 N 
ATOM     22  N   UNL     1      27.418 -21.709 -16.776  0.00  0.00    -0.022 NA
ATOM     23  C   UNL     1      28.806 -23.054 -15.913  0.00  0.00    +0.050 C 
ATOM     24  H   UNL     1      27.446 -22.757 -18.526  0.00  0.00    +0.197 HD
ENDBRANCH  18  23
ENDBRANCH  17  18
ENDBRANCH   5  17
TORSDOF 5
ENDMDL
MODEL 5
REMARK VINA RESULT:      -8.9      7.099     10.533
REMARK  Name = 127894
REMARK  5 active torsions:
REMARK  status: ('A' for Active; 'I' for Inactive)
REMARK    1  A    between atoms: C_5  and  C_17
REMARK    2  A    between atoms: CA_10  and  C_14
REMARK    3  A    between atoms: C_14  and  O_15
REMARK    4  A    between atoms: C_17  and  C_18
REMARK    5  A    between atoms: C_18  and  C_23
REMARK                            x       y       z     vdW  Elec       q    Type
REMARK                         _______ _______ _______ _____ _____    ______ ____
ROOT
ATOM      1  N   UNL     1      36.218 -25.831 -14.254  0.00  0.00    +0.392 N 
ATOM      2  C   UNL     1      36.206 -22.926 -14.780  0.00  0.00    -0.004 C 
ATOM      3  C   UNL     1      34.961 -23.813 -14.982  0.00  0.00    -0.021 C 
ATOM      4  C   UNL     1      36.910 -22.597 -16.109  0.00  0.00    -0.000 C 
ATOM      5  C   UNL     1      35.943 -21.976 -17.126  0.00  0.00    +0.001 C 
ATOM      6  C   UNL     1      34.025 -23.228 -16.050  0.00  0.00    -0.002 C 
ATOM      7  C   UNL     1      34.736 -22.892 -17.359  0.00  0.00    -0.000 C 
ATOM      8  C   UNL     1      37.168 -23.590 -13.781  0.00  0.00    -0.011 C 
ATOM      9  C   UNL     1      35.350 -25.270 -15.294  0.00  0.00    -0.081 C 
ATOM     10  CA  UNL     1      37.450 -25.053 -14.130  0.00  0.00    +0.040 C 
ATOM     11  H1  UNL     1      36.453 -26.794 -14.498  0.00  0.00    -0.084 HD
ATOM     12  H2  UNL     1      35.721 -25.803 -13.363  0.00  0.00    -0.084 HD
ENDROOT
BRANCH  10  14
ATOM     13  OXT UNL     1      37.885 -25.823 -11.883  0.00  0.00    -0.253 OA
ATOM     14  C   UNL     1      38.249 -25.701 -13.043  0.00  0.00    +0.293 C 
BRANCH  14  15
ATOM     15  O   UNL     1      39.441 -26.136 -13.520  0.00  0.00    -0.482 OA
ATOM     16  H   UNL     1      40.141 -26.328 -12.927  0.00  0.00    +0.295 HD
ENDBRANCH  14  15
ENDBRANCH  10  14
BRANCH   5  17
ATOM     17  C   UNL     1      36.660 -21.686 -18.444  0.00  0.00    +0.016 C 
BRANCH  17  18
ATOM     18  C   UNL     1      35.696 -21.765 -19.627  0.00  0.00    +0.102 C 
BRANCH  18  23
ATOM     19  N   UNL     1      34.181 -20.096 -20.614  0.00  0.00    -0.114 NA
ATOM     20  N   UNL     1      36.332 -19.459 -20.303  0.00  0.00    -0.091 NA
ATOM     21  N   UNL     1      34.441 -18.839 -21.003  0.00  0.00    -0.140 N 
ATOM     22  N   UNL     1      35.702 -18.420 -20.838  0.00  0.00    -0.022 NA
ATOM     23  C   UNL     1      35.390 -20.412 -20.195  0.00  0.00    +0.050 C 
ATOM     24  H   UNL     1      33.744 -18.259 -21.388  0.00  0.00    +0.197 HD
ENDBRANCH  18  23
ENDBRANCH  17  18
ENDBRANCH   5  17
TORSDOF 5
ENDMDL
MODEL 6
REMARK VINA RESULT:      -8.8      1.087      1.492
REMARK  Name = 127894
REMARK  5 active torsions:
REMARK  status: ('A' for Active; 'I' for Inactive)
REMARK    1  A    between atoms: C_5  and  C_17
REMARK    2  A    between atoms: CA_10  and  C_14
REMARK    3  A    between atoms: C_14  and  O_15
REMARK    4  A    between atoms: C_17  and  C_18
REMARK    5  A    between atoms: C_18  and  C_23
REMARK                            x       y       z     vdW  Elec       q    Type
REMARK                         _______ _______ _______ _____ _____    ______ ____
ROOT
ATOM      1  N   UNL     1      32.555 -13.698 -23.071  0.00  0.00    +0.392 N 
ATOM      2  C   UNL     1      34.523 -15.201 -21.463  0.00  0.00    -0.004 C 
ATOM      3  C   UNL     1      34.591 -15.125 -23.002  0.00  0.00    -0.021 C 
ATOM      4  C   UNL     1      33.937 -16.537 -20.971  0.00  0.00    -0.000 C 
ATOM      5  C   UNL     1      34.691 -17.739 -21.555  0.00  0.00    +0.001 C 
ATOM      6  C   UNL     1      35.283 -16.361 -23.593  0.00  0.00    -0.002 C 
ATOM      7  C   UNL     1      34.705 -17.680 -23.087  0.00  0.00    -0.000 C 
ATOM      8  C   UNL     1      33.736 -14.001 -20.912  0.00  0.00    -0.011 C 
ATOM      9  C   UNL     1      33.198 -14.897 -23.618  0.00  0.00    -0.081 C 
ATOM     10  CA  UNL     1      32.394 -13.810 -21.621  0.00  0.00    +0.040 C 
ATOM     11  H1  UNL     1      31.637 -13.584 -23.502  0.00  0.00    -0.084 HD
ATOM     12  H2  UNL     1      33.144 -12.890 -23.274  0.00  0.00    -0.084 HD
ENDROOT
BRANCH  10  14
ATOM     13  OXT UNL     1      31.809 -12.081 -20.040  0.00  0.00    -0.253 OA
ATOM     14  C   UNL     1      31.745 -12.539 -21.171  0.00  0.00    +0.293 C 
BRANCH  14  15
ATOM     15  O   UNL     1      31.067 -11.960 -22.193  0.00  0.00    -0.482 OA
ATOM     16  H   UNL     1      31.034 -11.027 -22.263  0.00  0.00    +0.295 HD
ENDBRANCH  14  15
ENDBRANCH  10  14
BRANCH   5  17
ATOM     17  C   UNL     1      34.072 -19.050 -21.073  0.00  0.00    +0.016 C 
BRANCH  17  18
ATOM     18  C   UNL     1      35.007 -20.231 -21.332  0.00  0.00    +0.102 C 
BRANCH  18  23
ATOM     19  N   UNL     1      36.583 -20.398 -19.450  0.00  0.00    -0.114 NA
ATOM     20  N   UNL     1      34.870 -21.880 -19.476  0.00  0.00    -0.091 NA
ATOM     21  N   UNL     1      36.582 -21.250 -18.415  0.00  0.00    -0.140 N 
ATOM     22  N   UNL     1      35.586 -22.146 -18.390  0.00  0.00    -0.022 NA
ATOM     23  C   UNL     1      35.503 -20.845 -20.057  0.00  0.00    +0.050 C 
ATOM     24  H   UNL     1      37.274 -21.220 -17.715  0.00  0.00    +0.197 HD
ENDBRANCH  18  23
ENDBRANCH  17  18
ENDBRANCH   5  17
TORSDOF 5
ENDMDL
MODEL 7
REMARK VINA RESULT:      -8.8      1.600      2.029
REMARK  Name = 127894
REMARK  5 active torsions:
REMARK  status: ('A' for Active; 'I' for Inactive)
REMARK    1  A    between atoms: C_5  and  C_17
REMARK    2  A    between atoms: CA_10  and  C_14
REMARK    3  A    between atoms: C_14  and  O_15
REMARK    4  A    between atoms: C_17  and  C_18
REMARK    5  A    between atoms: C_18  and  C_23
REMARK                            x       y       z     vdW  Elec       q    Type
REMARK                         _______ _______ _______ _____ _____    ______ ____
ROOT
ATOM      1  N   UNL     1      34.024 -15.546 -24.919  0.00  0.00    +0.392 N 
ATOM      2  C   UNL     1      34.966 -16.404 -22.255  0.00  0.00    -0.004 C 
ATOM      3  C   UNL     1      35.339 -17.154 -23.550  0.00  0.00    -0.021 C 
ATOM      4  C   UNL     1      33.848 -17.116 -21.470  0.00  0.00    -0.000 C 
ATOM      5  C   UNL     1      34.198 -18.582 -21.184  0.00  0.00    +0.001 C 
ATOM      6  C   UNL     1      35.622 -18.638 -23.276  0.00  0.00    -0.002 C 
ATOM      7  C   UNL     1      34.514 -19.330 -22.485  0.00  0.00    -0.000 C 
ATOM      8  C   UNL     1      34.591 -14.949 -22.579  0.00  0.00    -0.011 C 
ATOM      9  C   UNL     1      34.267 -16.965 -24.640  0.00  0.00    -0.081 C 
ATOM     10  CA  UNL     1      33.569 -14.851 -23.714  0.00  0.00    +0.040 C 
ATOM     11  H1  UNL     1      33.310 -15.464 -25.642  0.00  0.00    -0.084 HD
ATOM     12  H2  UNL     1      34.896 -15.121 -25.232  0.00  0.00    -0.084 HD
ENDROOT
BRANCH  10  14
ATOM     13  OXT UNL     1      33.221 -12.493 -23.325  0.00  0.00    -0.253 OA
ATOM     14  C   UNL     1      33.365 -13.421 -24.106  0.00  0.00    +0.293 C 
BRANCH  14  15
ATOM     15  O   UNL     1      33.356 -13.292 -25.456  0.00  0.00    -0.482 OA
ATOM     16  H   UNL     1      33.980 -12.734 -25.877  0.00  0.00    +0.295 HD
ENDBRANCH  14  15
ENDBRANCH  10  14
BRANCH   5  17
ATOM     17  C   UNL     1      33.061 -19.271 -20.430  0.00  0.00    +0.016 C 
BRANCH  17  18
ATOM     18  C   UNL     1      33.054 -20.776 -20.695  0.00  0.00    +0.102 C 
BRANCH  18  23
ATOM     19  N   UNL     1      35.031 -21.426 -19.382  0.00  0.00    -0.114 NA
ATOM     20  N   UNL     1      33.063 -22.382 -18.798  0.00  0.00    -0.091 NA
ATOM     21  N   UNL     1      35.123 -22.278 -18.351  0.00  0.00    -0.140 N 
ATOM     22  N   UNL     1      33.982 -22.868 -17.971  0.00  0.00    -0.022 NA
ATOM     23  C   UNL     1      33.737 -21.542 -19.602  0.00  0.00    +0.050 C 
ATOM     24  H   UNL     1      35.979 -22.459 -17.900  0.00  0.00    +0.197 HD
ENDBRANCH  18  23
ENDBRANCH  17  18
ENDBRANCH   5  17
TORSDOF 5
ENDMDL
MODEL 8
REMARK VINA RESULT:      -8.7      4.613      8.402
REMARK  Name = 127894
REMARK  5 active torsions:
REMARK  status: ('A' for Active; 'I' for Inactive)
REMARK    1  A    between atoms: C_5  and  C_17
REMARK    2  A    between atoms: CA_10  and  C_14
REMARK    3  A    between atoms: C_14  and  O_15
REMARK    4  A    between atoms: C_17  and  C_18
REMARK    5  A    between atoms: C_18  and  C_23
REMARK                            x       y       z     vdW  Elec       q    Type
REMARK                         _______ _______ _______ _____ _____    ______ ____
ROOT
ATOM      1  N   UNL     1      35.319 -15.998 -23.067  0.00  0.00    +0.392 N 
ATOM      2  C   UNL     1      32.683 -15.451 -21.854  0.00  0.00    -0.004 C 
ATOM      3  C   UNL     1      33.090 -14.907 -23.239  0.00  0.00    -0.021 C 
ATOM      4  C   UNL     1      32.787 -14.379 -20.754  0.00  0.00    -0.000 C 
ATOM      5  C   UNL     1      31.993 -13.116 -21.113  0.00  0.00    +0.001 C 
ATOM      6  C   UNL     1      32.347 -13.606 -23.570  0.00  0.00    -0.002 C 
ATOM      7  C   UNL     1      32.444 -12.555 -22.466  0.00  0.00    -0.000 C 
ATOM      8  C   UNL     1      33.518 -16.695 -21.511  0.00  0.00    -0.011 C 
ATOM      9  C   UNL     1      34.617 -14.743 -23.354  0.00  0.00    -0.081 C 
ATOM     10  CA  UNL     1      35.017 -16.464 -21.713  0.00  0.00    +0.040 C 
ATOM     11  H1  UNL     1      36.324 -15.847 -23.152  0.00  0.00    -0.084 HD
ATOM     12  H2  UNL     1      35.010 -16.705 -23.734  0.00  0.00    -0.084 HD
ENDROOT
BRANCH  10  14
ATOM     13  OXT UNL     1      35.815 -18.391 -20.497  0.00  0.00    -0.253 OA
ATOM     14  C   UNL     1      35.769 -17.745 -21.533  0.00  0.00    +0.293 C 
BRANCH  14  15
ATOM     15  O   UNL     1      36.402 -18.095 -22.679  0.00  0.00    -0.482 OA
ATOM     16  H   UNL     1      37.231 -17.715 -22.892  0.00  0.00    +0.295 HD
ENDBRANCH  14  15
ENDBRANCH  10  14
BRANCH   5  17
ATOM     17  C   UNL     1      32.136 -12.060 -20.018  0.00  0.00    +0.016 C 
BRANCH  17  18
ATOM     18  C   UNL     1      31.173 -10.895 -20.245  0.00  0.00    +0.102 C 
BRANCH  18  23
ATOM     19  N   UNL     1      32.223  -8.911 -19.237  0.00  0.00    -0.114 NA
ATOM     20  N   UNL     1      32.224  -9.023 -21.499  0.00  0.00    -0.091 NA
ATOM     21  N   UNL     1      32.809  -7.864 -19.836  0.00  0.00    -0.140 N 
ATOM     22  N   UNL     1      32.832  -7.888 -21.175  0.00  0.00    -0.022 NA
ATOM     23  C   UNL     1      31.889  -9.580 -20.322  0.00  0.00    +0.050 C 
ATOM     24  H   UNL     1      33.198  -7.121 -19.320  0.00  0.00    +0.197 HD
ENDBRANCH  18  23
ENDBRANCH  17  18
ENDBRANCH   5  17
TORSDOF 5
ENDMDL
MODEL 9
REMARK VINA RESULT:      -8.7      3.659      7.429
REMARK  Name = 127894
REMARK  5 active torsions:
REMARK  status: ('A' for Active; 'I' for Inactive)
REMARK    1  A    between atoms: C_5  and  C_17
REMARK    2  A    between atoms: CA_10  and  C_14
REMARK    3  A    between atoms: C_14  and  O_15
REMARK    4  A    between atoms: C_17  and  C_18
REMARK    5  A    between atoms: C_18  and  C_23
REMARK                            x       y       z     vdW  Elec       q    Type
REMARK                         _______ _______ _______ _____ _____    ______ ____
ROOT
ATOM      1  N   UNL     1      35.415 -21.123 -20.477  0.00  0.00    +0.392 N 
ATOM      2  C   UNL     1      33.595 -19.117 -21.651  0.00  0.00    -0.004 C 
ATOM      3  C   UNL     1      34.949 -19.484 -22.289  0.00  0.00    -0.021 C 
ATOM      4  C   UNL     1      33.656 -17.787 -20.877  0.00  0.00    -0.000 C 
ATOM      5  C   UNL     1      34.189 -16.644 -21.751  0.00  0.00    +0.001 C 
ATOM      6  C   UNL     1      35.517 -18.317 -23.108  0.00  0.00    -0.002 C 
ATOM      7  C   UNL     1      35.560 -17.000 -22.337  0.00  0.00    -0.000 C 
ATOM      8  C   UNL     1      33.104 -20.268 -20.758  0.00  0.00    -0.011 C 
ATOM      9  C   UNL     1      35.952 -19.988 -21.234  0.00  0.00    -0.081 C 
ATOM     10  CA  UNL     1      34.183 -20.748 -19.784  0.00  0.00    +0.040 C 
ATOM     11  H1  UNL     1      36.107 -21.425 -19.791  0.00  0.00    -0.084 HD
ATOM     12  H2  UNL     1      35.208 -21.881 -21.127  0.00  0.00    -0.084 HD
ENDROOT
BRANCH  10  14
ATOM     13  OXT UNL     1      32.571 -22.181 -18.696  0.00  0.00    -0.253 OA
ATOM     14  C   UNL     1      33.719 -21.973 -19.059  0.00  0.00    +0.293 C 
BRANCH  14  15
ATOM     15  O   UNL     1      34.752 -22.827 -18.853  0.00  0.00    -0.482 OA
ATOM     16  H   UNL     1      35.102 -23.319 -19.569  0.00  0.00    +0.295 HD
ENDBRANCH  14  15
ENDBRANCH  10  14
BRANCH   5  17
ATOM     17  C   UNL     1      34.266 -15.344 -20.952  0.00  0.00    +0.016 C 
BRANCH  17  18
ATOM     18  C   UNL     1      32.893 -14.943 -20.414  0.00  0.00    +0.102 C 
BRANCH  18  23
ATOM     19  N   UNL     1      32.243 -13.631 -22.392  0.00  0.00    -0.114 NA
ATOM     20  N   UNL     1      31.998 -12.624 -20.377  0.00  0.00    -0.091 NA
ATOM     21  N   UNL     1      31.755 -12.384 -22.459  0.00  0.00    -0.140 N 
ATOM     22  N   UNL     1      31.593 -11.749 -21.291  0.00  0.00    -0.022 NA
ATOM     23  C   UNL     1      32.367 -13.708 -21.082  0.00  0.00    +0.050 C 
ATOM     24  H   UNL     1      31.529 -11.960 -23.319  0.00  0.00    +0.197 HD
ENDBRANCH  18  23
ENDBRANCH  17  18
ENDBRANCH   5  17
TORSDOF 5
ENDMDL
