MODEL 1
REMARK VINA RESULT:      -8.2      0.000      0.000
REMARK  Name = 46937079
REMARK  1 active torsions:
REMARK  status: ('A' for Active; 'I' for Inactive)
REMARK    1  A    between atoms: C_6  and  C_12
REMARK                            x       y       z     vdW  Elec       q    Type
REMARK                         _______ _______ _______ _____ _____    ______ ____
ROOT
ATOM      1  S   UNL     1      35.320 -21.975 -19.141  0.00  0.00    -0.027 S 
ATOM      2  O   UNL     1      32.862 -19.629 -20.848  0.00  0.00    -0.209 OA
ATOM      3  N   UNL     1      32.795 -21.508 -19.494  0.00  0.00    -0.311 NA
ATOM      4  N   UNL     1      33.304 -23.398 -18.127  0.00  0.00    -0.327 N 
ATOM      5  C   UNL     1      34.903 -20.628 -20.115  0.00  0.00    +0.129 C 
ATOM      6  C   UNL     1      35.757 -19.796 -20.711  0.00  0.00    +0.038 C 
ATOM      7  C   UNL     1      33.425 -20.507 -20.211  0.00  0.00    +0.213 C 
ATOM      8  C   UNL     1      33.615 -22.321 -18.901  0.00  0.00    +0.222 C 
ATOM      9  H   UNL     1      34.022 -23.943 -17.729  0.00  0.00    +0.145 HD
ATOM     10  H   UNL     1      32.361 -23.631 -17.964  0.00  0.00    +0.145 HD
ENDROOT
BRANCH   6  12
ATOM     11  N   UNL     1      35.204 -17.469 -20.896  0.00  0.00    -0.244 NA
ATOM     12  C   UNL     1      35.394 -18.637 -21.549  0.00  0.00    +0.083 C 
ATOM     13  C   UNL     1      35.267 -18.788 -22.920  0.00  0.00    +0.019 C 
ATOM     14  C   UNL     1      34.924 -17.668 -23.669  0.00  0.00    +0.003 C 
ATOM     15  C   UNL     1      34.721 -16.449 -23.033  0.00  0.00    +0.021 C 
ATOM     16  C   UNL     1      34.871 -16.402 -21.656  0.00  0.00    +0.099 C 
ENDBRANCH   6  12
TORSDOF 1
ENDMDL
MODEL 2
REMARK VINA RESULT:      -7.7      3.243      5.804
REMARK  Name = 46937079
REMARK  1 active torsions:
REMARK  status: ('A' for Active; 'I' for Inactive)
REMARK    1  A    between atoms: C_6  and  C_12
REMARK                            x       y       z     vdW  Elec       q    Type
REMARK                         _______ _______ _______ _____ _____    ______ ____
ROOT
ATOM      1  S   UNL     1      34.333 -15.840 -23.952  0.00  0.00    -0.027 S 
ATOM      2  O   UNL     1      35.056 -16.706 -20.320  0.00  0.00    -0.209 OA
ATOM      3  N   UNL     1      34.633 -14.814 -21.591  0.00  0.00    -0.311 NA
ATOM      4  N   UNL     1      34.163 -13.251 -23.333  0.00  0.00    -0.327 N 
ATOM      5  C   UNL     1      34.672 -16.922 -22.666  0.00  0.00    +0.129 C 
ATOM      6  C   UNL     1      34.797 -18.245 -22.767  0.00  0.00    +0.038 C 
ATOM      7  C   UNL     1      34.812 -16.171 -21.392  0.00  0.00    +0.213 C 
ATOM      8  C   UNL     1      34.384 -14.496 -22.824  0.00  0.00    +0.222 C 
ATOM      9  H   UNL     1      33.983 -13.137 -24.294  0.00  0.00    +0.145 HD
ATOM     10  H   UNL     1      34.181 -12.466 -22.738  0.00  0.00    +0.145 HD
ENDROOT
BRANCH   6  12
ATOM     11  N   UNL     1      36.387 -19.271 -21.292  0.00  0.00    -0.244 NA
ATOM     12  C   UNL     1      35.089 -19.174 -21.658  0.00  0.00    +0.083 C 
ATOM     13  C   UNL     1      34.060 -19.884 -21.061  0.00  0.00    +0.019 C 
ATOM     14  C   UNL     1      34.383 -20.747 -20.020  0.00  0.00    +0.003 C 
ATOM     15  C   UNL     1      35.707 -20.873 -19.615  0.00  0.00    +0.021 C 
ATOM     16  C   UNL     1      36.663 -20.120 -20.277  0.00  0.00    +0.099 C 
ENDBRANCH   6  12
TORSDOF 1
ENDMDL
MODEL 3
REMARK VINA RESULT:      -7.6      3.421      5.929
REMARK  Name = 46937079
REMARK  1 active torsions:
REMARK  status: ('A' for Active; 'I' for Inactive)
REMARK    1  A    between atoms: C_6  and  C_12
REMARK                            x       y       z     vdW  Elec       q    Type
REMARK                         _______ _______ _______ _____ _____    ______ ____
ROOT
ATOM      1  S   UNL     1      33.720 -15.160 -23.704  0.00  0.00    -0.027 S 
ATOM      2  O   UNL     1      34.810 -18.792 -24.001  0.00  0.00    -0.209 OA
ATOM      3  N   UNL     1      34.202 -17.053 -25.408  0.00  0.00    -0.311 NA
ATOM      4  N   UNL     1      33.516 -14.973 -26.357  0.00  0.00    -0.327 N 
ATOM      5  C   UNL     1      34.216 -16.674 -23.071  0.00  0.00    +0.129 C 
ATOM      6  C   UNL     1      34.378 -16.970 -21.782  0.00  0.00    +0.038 C 
ATOM      7  C   UNL     1      34.449 -17.637 -24.178  0.00  0.00    +0.213 C 
ATOM      8  C   UNL     1      33.829 -15.812 -25.330  0.00  0.00    +0.222 C 
ATOM      9  H   UNL     1      33.244 -14.045 -26.169  0.00  0.00    +0.145 HD
ATOM     10  H   UNL     1      33.563 -15.294 -27.286  0.00  0.00    +0.145 HD
ENDROOT
BRANCH   6  12
ATOM     11  N   UNL     1      36.133 -18.426 -21.035  0.00  0.00    -0.244 NA
ATOM     12  C   UNL     1      34.805 -18.275 -21.240  0.00  0.00    +0.083 C 
ATOM     13  C   UNL     1      33.863 -19.256 -20.975  0.00  0.00    +0.019 C 
ATOM     14  C   UNL     1      34.312 -20.468 -20.466  0.00  0.00    +0.003 C 
ATOM     15  C   UNL     1      35.671 -20.661 -20.241  0.00  0.00    +0.021 C 
ATOM     16  C   UNL     1      36.533 -19.618 -20.540  0.00  0.00    +0.099 C 
ENDBRANCH   6  12
TORSDOF 1
ENDMDL
MODEL 4
REMARK VINA RESULT:      -6.9      4.044      6.571
REMARK  Name = 46937079
REMARK  1 active torsions:
REMARK  status: ('A' for Active; 'I' for Inactive)
REMARK    1  A    between atoms: C_6  and  C_12
REMARK                            x       y       z     vdW  Elec       q    Type
REMARK                         _______ _______ _______ _____ _____    ______ ____
ROOT
ATOM      1  S   UNL     1      33.378 -14.092 -24.335  0.00  0.00    -0.027 S 
ATOM      2  O   UNL     1      34.460 -17.715 -24.740  0.00  0.00    -0.209 OA
ATOM      3  N   UNL     1      33.766 -15.962 -26.088  0.00  0.00    -0.311 NA
ATOM      4  N   UNL     1      33.019 -13.873 -26.969  0.00  0.00    -0.327 N 
ATOM      5  C   UNL     1      33.915 -15.611 -23.751  0.00  0.00    +0.129 C 
ATOM      6  C   UNL     1      34.152 -15.923 -22.477  0.00  0.00    +0.038 C 
ATOM      7  C   UNL     1      34.086 -16.560 -24.882  0.00  0.00    +0.213 C 
ATOM      8  C   UNL     1      33.394 -14.724 -25.973  0.00  0.00    +0.222 C 
ATOM      9  H   UNL     1      32.756 -12.948 -26.755  0.00  0.00    +0.145 HD
ATOM     10  H   UNL     1      33.013 -14.182 -27.904  0.00  0.00    +0.145 HD
ENDROOT
BRANCH   6  12
ATOM     11  N   UNL     1      33.659 -18.048 -21.478  0.00  0.00    -0.244 NA
ATOM     12  C   UNL     1      34.614 -17.233 -21.978  0.00  0.00    +0.083 C 
ATOM     13  C   UNL     1      35.959 -17.561 -22.039  0.00  0.00    +0.019 C 
ATOM     14  C   UNL     1      36.348 -18.805 -21.557  0.00  0.00    +0.003 C 
ATOM     15  C   UNL     1      35.393 -19.671 -21.035  0.00  0.00    +0.021 C 
ATOM     16  C   UNL     1      34.074 -19.249 -21.018  0.00  0.00    +0.099 C 
ENDBRANCH   6  12
TORSDOF 1
ENDMDL
MODEL 5
REMARK VINA RESULT:      -6.9      1.873      2.049
REMARK  Name = 46937079
REMARK  1 active torsions:
REMARK  status: ('A' for Active; 'I' for Inactive)
REMARK    1  A    between atoms: C_6  and  C_12
REMARK                            x       y       z     vdW  Elec       q    Type
REMARK                         _______ _______ _______ _____ _____    ______ ____
ROOT
ATOM      1  S   UNL     1      34.014 -21.619 -19.342  0.00  0.00    -0.027 S 
ATOM      2  O   UNL     1      36.593 -19.183 -20.713  0.00  0.00    -0.209 OA
ATOM      3  N   UNL     1      36.474 -20.840 -19.096  0.00  0.00    -0.311 NA
ATOM      4  N   UNL     1      35.802 -22.590 -17.618  0.00  0.00    -0.327 N 
ATOM      5  C   UNL     1      34.544 -20.364 -20.382  0.00  0.00    +0.129 C 
ATOM      6  C   UNL     1      33.809 -19.748 -21.308  0.00  0.00    +0.038 C 
ATOM      7  C   UNL     1      35.969 -20.044 -20.109  0.00  0.00    +0.213 C 
ATOM      8  C   UNL     1      35.610 -21.680 -18.613  0.00  0.00    +0.222 C 
ATOM      9  H   UNL     1      35.063 -23.177 -17.337  0.00  0.00    +0.145 HD
ATOM     10  H   UNL     1      36.682 -22.661 -17.180  0.00  0.00    +0.145 HD
ENDROOT
BRANCH   6  12
ATOM     11  N   UNL     1      34.261 -17.421 -21.678  0.00  0.00    -0.244 NA
ATOM     12  C   UNL     1      34.268 -18.668 -22.201  0.00  0.00    +0.083 C 
ATOM     13  C   UNL     1      34.673 -18.964 -23.493  0.00  0.00    +0.019 C 
ATOM     14  C   UNL     1      35.098 -17.914 -24.299  0.00  0.00    +0.003 C 
ATOM     15  C   UNL     1      35.105 -16.618 -23.795  0.00  0.00    +0.021 C 
ATOM     16  C   UNL     1      34.680 -16.426 -22.491  0.00  0.00    +0.099 C 
ENDBRANCH   6  12
TORSDOF 1
ENDMDL
MODEL 6
REMARK VINA RESULT:      -6.9      6.869      8.493
REMARK  Name = 46937079
REMARK  1 active torsions:
REMARK  status: ('A' for Active; 'I' for Inactive)
REMARK    1  A    between atoms: C_6  and  C_12
REMARK                            x       y       z     vdW  Elec       q    Type
REMARK                         _______ _______ _______ _____ _____    ______ ____
ROOT
ATOM      1  S   UNL     1      35.766 -23.694 -13.886  0.00  0.00    -0.027 S 
ATOM      2  O   UNL     1      33.174 -23.584 -16.668  0.00  0.00    -0.209 OA
ATOM      3  N   UNL     1      35.478 -23.444 -16.450  0.00  0.00    -0.311 NA
ATOM      4  N   UNL     1      37.730 -23.368 -15.662  0.00  0.00    -0.327 N 
ATOM      5  C   UNL     1      34.167 -23.742 -14.502  0.00  0.00    +0.129 C 
ATOM      6  C   UNL     1      33.055 -23.896 -13.784  0.00  0.00    +0.038 C 
ATOM      7  C   UNL     1      34.185 -23.586 -15.979  0.00  0.00    +0.213 C 
ATOM      8  C   UNL     1      36.380 -23.479 -15.517  0.00  0.00    +0.222 C 
ATOM      9  H   UNL     1      38.315 -23.411 -14.871  0.00  0.00    +0.145 HD
ATOM     10  H   UNL     1      38.120 -23.247 -16.558  0.00  0.00    +0.145 HD
ENDROOT
BRANCH   6  12
ATOM     11  N   UNL     1      31.164 -25.168 -14.535  0.00  0.00    -0.244 NA
ATOM     12  C   UNL     1      31.679 -23.937 -14.317  0.00  0.00    +0.083 C 
ATOM     13  C   UNL     1      30.998 -22.757 -14.564  0.00  0.00    +0.019 C 
ATOM     14  C   UNL     1      29.705 -22.844 -15.066  0.00  0.00    +0.003 C 
ATOM     15  C   UNL     1      29.140 -24.093 -15.302  0.00  0.00    +0.021 C 
ATOM     16  C   UNL     1      29.904 -25.214 -15.023  0.00  0.00    +0.099 C 
ENDBRANCH   6  12
TORSDOF 1
ENDMDL
MODEL 7
REMARK VINA RESULT:      -6.8      7.863      9.180
REMARK  Name = 46937079
REMARK  1 active torsions:
REMARK  status: ('A' for Active; 'I' for Inactive)
REMARK    1  A    between atoms: C_6  and  C_12
REMARK                            x       y       z     vdW  Elec       q    Type
REMARK                         _______ _______ _______ _____ _____    ______ ____
ROOT
ATOM      1  S   UNL     1      38.241 -24.753 -12.941  0.00  0.00    -0.027 S 
ATOM      2  O   UNL     1      35.672 -25.822 -15.533  0.00  0.00    -0.209 OA
ATOM      3  N   UNL     1      37.880 -26.284 -15.001  0.00  0.00    -0.311 NA
ATOM      4  N   UNL     1      40.058 -26.375 -14.028  0.00  0.00    -0.327 N 
ATOM      5  C   UNL     1      36.693 -24.723 -13.675  0.00  0.00    +0.129 C 
ATOM      6  C   UNL     1      35.654 -23.984 -13.286  0.00  0.00    +0.038 C 
ATOM      7  C   UNL     1      36.660 -25.653 -14.833  0.00  0.00    +0.213 C 
ATOM      8  C   UNL     1      38.773 -25.934 -14.126  0.00  0.00    +0.222 C 
ATOM      9  H   UNL     1      40.644 -26.032 -13.315  0.00  0.00    +0.145 HD
ATOM     10  H   UNL     1      40.401 -27.038 -14.670  0.00  0.00    +0.145 HD
ENDROOT
BRANCH   6  12
ATOM     11  N   UNL     1      33.359 -24.682 -13.305  0.00  0.00    -0.244 NA
ATOM     12  C   UNL     1      34.322 -23.960 -13.920  0.00  0.00    +0.083 C 
ATOM     13  C   UNL     1      34.120 -23.228 -15.079  0.00  0.00    +0.019 C 
ATOM     14  C   UNL     1      32.849 -23.236 -15.641  0.00  0.00    +0.003 C 
ATOM     15  C   UNL     1      31.832 -23.966 -15.036  0.00  0.00    +0.021 C 
ATOM     16  C   UNL     1      32.136 -24.666 -13.880  0.00  0.00    +0.099 C 
ENDBRANCH   6  12
TORSDOF 1
ENDMDL
MODEL 8
REMARK VINA RESULT:      -6.6      4.329      6.599
REMARK  Name = 46937079
REMARK  1 active torsions:
REMARK  status: ('A' for Active; 'I' for Inactive)
REMARK    1  A    between atoms: C_6  and  C_12
REMARK                            x       y       z     vdW  Elec       q    Type
REMARK                         _______ _______ _______ _____ _____    ______ ____
ROOT
ATOM      1  S   UNL     1      33.626 -12.784 -23.648  0.00  0.00    -0.027 S 
ATOM      2  O   UNL     1      32.755 -15.751 -21.433  0.00  0.00    -0.209 OA
ATOM      3  N   UNL     1      32.044 -13.568 -21.750  0.00  0.00    -0.311 NA
ATOM      4  N   UNL     1      31.727 -11.318 -22.482  0.00  0.00    -0.327 N 
ATOM      5  C   UNL     1      33.814 -14.393 -23.087  0.00  0.00    +0.129 C 
ATOM      6  C   UNL     1      34.700 -15.282 -23.536  0.00  0.00    +0.038 C 
ATOM      7  C   UNL     1      32.834 -14.674 -22.007  0.00  0.00    +0.213 C 
ATOM      8  C   UNL     1      32.323 -12.543 -22.496  0.00  0.00    +0.222 C 
ATOM      9  H   UNL     1      32.030 -10.615 -23.102  0.00  0.00    +0.145 HD
ATOM     10  H   UNL     1      30.991 -11.136 -21.854  0.00  0.00    +0.145 HD
ENDROOT
BRANCH   6  12
ATOM     11  N   UNL     1      35.373 -16.804 -21.808  0.00  0.00    -0.244 NA
ATOM     12  C   UNL     1      34.860 -16.666 -23.051  0.00  0.00    +0.083 C 
ATOM     13  C   UNL     1      34.492 -17.729 -23.860  0.00  0.00    +0.019 C 
ATOM     14  C   UNL     1      34.660 -19.016 -23.361  0.00  0.00    +0.003 C 
ATOM     15  C   UNL     1      35.184 -19.198 -22.086  0.00  0.00    +0.021 C 
ATOM     16  C   UNL     1      35.522 -18.070 -21.357  0.00  0.00    +0.099 C 
ENDBRANCH   6  12
TORSDOF 1
ENDMDL
MODEL 9
REMARK VINA RESULT:      -6.6     10.253     11.463
REMARK  Name = 46937079
REMARK  1 active torsions:
REMARK  status: ('A' for Active; 'I' for Inactive)
REMARK    1  A    between atoms: C_6  and  C_12
REMARK                            x       y       z     vdW  Elec       q    Type
REMARK                         _______ _______ _______ _____ _____    ______ ____
ROOT
ATOM      1  S   UNL     1      31.321 -11.055 -20.841  0.00  0.00    -0.027 S 
ATOM      2  O   UNL     1      32.895  -7.593 -20.897  0.00  0.00    -0.209 OA
ATOM      3  N   UNL     1      32.153  -9.125 -19.324  0.00  0.00    -0.311 NA
ATOM      4  N   UNL     1      31.261 -11.018 -18.175  0.00  0.00    -0.327 N 
ATOM      5  C   UNL     1      31.971  -9.672 -21.620  0.00  0.00    +0.129 C 
ATOM      6  C   UNL     1      32.088  -9.495 -22.936  0.00  0.00    +0.038 C 
ATOM      7  C   UNL     1      32.397  -8.672 -20.608  0.00  0.00    +0.213 C 
ATOM      8  C   UNL     1      31.617 -10.306 -19.281  0.00  0.00    +0.222 C 
ATOM      9  H   UNL     1      30.859 -11.912 -18.272  0.00  0.00    +0.145 HD
ATOM     10  H   UNL     1      31.409 -10.640 -17.278  0.00  0.00    +0.145 HD
ENDROOT
BRANCH   6  12
ATOM     11  N   UNL     1      31.756  -7.361 -23.980  0.00  0.00    -0.244 NA
ATOM     12  C   UNL     1      32.649  -8.304 -23.602  0.00  0.00    +0.083 C 
ATOM     13  C   UNL     1      34.015  -8.204 -23.807  0.00  0.00    +0.019 C 
ATOM     14  C   UNL     1      34.497  -7.064 -24.439  0.00  0.00    +0.003 C 
ATOM     15  C   UNL     1      33.610  -6.072 -24.842  0.00  0.00    +0.021 C 
ATOM     16  C   UNL     1      32.261  -6.267 -24.592  0.00  0.00    +0.099 C 
ENDBRANCH   6  12
TORSDOF 1
ENDMDL
