MODEL 1
REMARK VINA RESULT:      -4.1      0.000      0.000
REMARK  Name = 7311726
REMARK  2 active torsions:
REMARK  status: ('A' for Active; 'I' for Inactive)
REMARK    1  A    between atoms: N_1  and  C_5
REMARK    2  A    between atoms: C_5  and  C_8
REMARK                            x       y       z     vdW  Elec       q    Type
REMARK                         _______ _______ _______ _____ _____    ______ ____
ROOT
ATOM      1  N   UNL     1      38.283 -26.183 -13.387  0.00  0.00    +0.390 N 
ATOM      2  C   UNL     1      37.413 -26.732 -14.460  0.00  0.00    -0.105 C 
ATOM      3  H   UNL     1      37.708 -25.604 -12.774  0.00  0.00    -0.084 HD
ATOM      4  H   UNL     1      38.693 -26.982 -12.905  0.00  0.00    -0.084 HD
ENDROOT
BRANCH   1   5
ATOM      5  C   UNL     1      39.414 -25.355 -13.881  0.00  0.00    +0.035 C 
BRANCH   5   8
ATOM      6  O   UNL     1      40.603 -25.938 -15.845  0.00  0.00    -0.248 OA
ATOM      7  O   UNL     1      41.239 -26.827 -13.839  0.00  0.00    -0.248 OA
ATOM      8  C   UNL     1      40.525 -26.110 -14.598  0.00  0.00    +0.344 C 
ENDBRANCH   5   8
ENDBRANCH   1   5
TORSDOF 2
ENDMDL
MODEL 2
REMARK VINA RESULT:      -4.0      1.785      1.888
REMARK  Name = 7311726
REMARK  2 active torsions:
REMARK  status: ('A' for Active; 'I' for Inactive)
REMARK    1  A    between atoms: N_1  and  C_5
REMARK    2  A    between atoms: C_5  and  C_8
REMARK                            x       y       z     vdW  Elec       q    Type
REMARK                         _______ _______ _______ _____ _____    ______ ____
ROOT
ATOM      1  N   UNL     1      37.784 -25.105 -15.309  0.00  0.00    +0.390 N 
ATOM      2  C   UNL     1      37.522 -23.648 -15.172  0.00  0.00    -0.105 C 
ATOM      3  H   UNL     1      36.917 -25.606 -15.114  0.00  0.00    -0.084 HD
ATOM      4  H   UNL     1      38.121 -25.254 -16.260  0.00  0.00    -0.084 HD
ENDROOT
BRANCH   1   5
ATOM      5  C   UNL     1      38.836 -25.625 -14.397  0.00  0.00    +0.035 C 
BRANCH   5   8
ATOM      6  O   UNL     1      40.612 -26.125 -15.883  0.00  0.00    -0.248 OA
ATOM      7  O   UNL     1      40.954 -24.643 -14.179  0.00  0.00    -0.248 OA
ATOM      8  C   UNL     1      40.272 -25.451 -14.872  0.00  0.00    +0.344 C 
ENDBRANCH   5   8
ENDBRANCH   1   5
TORSDOF 2
ENDMDL
MODEL 3
REMARK VINA RESULT:      -3.9     10.854     11.802
REMARK  Name = 7311726
REMARK  2 active torsions:
REMARK  status: ('A' for Active; 'I' for Inactive)
REMARK    1  A    between atoms: N_1  and  C_5
REMARK    2  A    between atoms: C_5  and  C_8
REMARK                            x       y       z     vdW  Elec       q    Type
REMARK                         _______ _______ _______ _____ _____    ______ ____
ROOT
ATOM      1  N   UNL     1      30.460 -22.672 -16.879  0.00  0.00    +0.390 N 
ATOM      2  C   UNL     1      31.592 -23.266 -16.121  0.00  0.00    -0.105 C 
ATOM      3  H   UNL     1      30.664 -21.685 -17.037  0.00  0.00    -0.084 HD
ATOM      4  H   UNL     1      30.377 -23.202 -17.746  0.00  0.00    -0.084 HD
ENDROOT
BRANCH   1   5
ATOM      5  C   UNL     1      29.146 -22.771 -16.191  0.00  0.00    +0.035 C 
BRANCH   5   8
ATOM      6  O   UNL     1      27.617 -23.822 -17.664  0.00  0.00    -0.248 OA
ATOM      7  O   UNL     1      27.354 -21.610 -17.159  0.00  0.00    -0.248 OA
ATOM      8  C   UNL     1      27.920 -22.738 -17.093  0.00  0.00    +0.344 C 
ENDBRANCH   5   8
ENDBRANCH   1   5
TORSDOF 2
ENDMDL
MODEL 4
REMARK VINA RESULT:      -3.8      2.957      3.454
REMARK  Name = 7311726
REMARK  2 active torsions:
REMARK  status: ('A' for Active; 'I' for Inactive)
REMARK    1  A    between atoms: N_1  and  C_5
REMARK    2  A    between atoms: C_5  and  C_8
REMARK                            x       y       z     vdW  Elec       q    Type
REMARK                         _______ _______ _______ _____ _____    ______ ____
ROOT
ATOM      1  N   UNL     1      37.850 -24.244 -15.364  0.00  0.00    +0.390 N 
ATOM      2  C   UNL     1      37.271 -22.920 -15.714  0.00  0.00    -0.105 C 
ATOM      3  H   UNL     1      38.367 -24.591 -16.173  0.00  0.00    -0.084 HD
ATOM      4  H   UNL     1      38.445 -24.097 -14.549  0.00  0.00    -0.084 HD
ENDROOT
BRANCH   1   5
ATOM      5  C   UNL     1      36.844 -25.269 -14.980  0.00  0.00    +0.035 C 
BRANCH   5   8
ATOM      6  O   UNL     1      36.600 -27.288 -16.193  0.00  0.00    -0.248 OA
ATOM      7  O   UNL     1      38.143 -27.164 -14.513  0.00  0.00    -0.248 OA
ATOM      8  C   UNL     1      37.229 -26.714 -15.262  0.00  0.00    +0.344 C 
ENDBRANCH   5   8
ENDBRANCH   1   5
TORSDOF 2
ENDMDL
MODEL 5
REMARK VINA RESULT:      -3.7      4.945      5.344
REMARK  Name = 7311726
REMARK  2 active torsions:
REMARK  status: ('A' for Active; 'I' for Inactive)
REMARK    1  A    between atoms: N_1  and  C_5
REMARK    2  A    between atoms: C_5  and  C_8
REMARK                            x       y       z     vdW  Elec       q    Type
REMARK                         _______ _______ _______ _____ _____    ______ ____
ROOT
ATOM      1  N   UNL     1      37.975 -24.080 -11.498  0.00  0.00    +0.390 N 
ATOM      2  C   UNL     1      38.295 -24.893 -12.701  0.00  0.00    -0.105 C 
ATOM      3  H   UNL     1      37.989 -24.695 -10.684  0.00  0.00    -0.084 HD
ATOM      4  H   UNL     1      38.675 -23.342 -11.448  0.00  0.00    -0.084 HD
ENDROOT
BRANCH   1   5
ATOM      5  C   UNL     1      36.650 -23.408 -11.551  0.00  0.00    +0.035 C 
BRANCH   5   8
ATOM      6  O   UNL     1      34.603 -24.274 -12.371  0.00  0.00    -0.248 OA
ATOM      7  O   UNL     1      35.419 -25.018 -10.372  0.00  0.00    -0.248 OA
ATOM      8  C   UNL     1      35.437 -24.320 -11.426  0.00  0.00    +0.344 C 
ENDBRANCH   5   8
ENDBRANCH   1   5
TORSDOF 2
ENDMDL
MODEL 6
REMARK VINA RESULT:      -3.7     10.269     11.254
REMARK  Name = 7311726
REMARK  2 active torsions:
REMARK  status: ('A' for Active; 'I' for Inactive)
REMARK    1  A    between atoms: N_1  and  C_5
REMARK    2  A    between atoms: C_5  and  C_8
REMARK                            x       y       z     vdW  Elec       q    Type
REMARK                         _______ _______ _______ _____ _____    ______ ____
ROOT
ATOM      1  N   UNL     1      29.345 -25.162 -15.193  0.00  0.00    +0.390 N 
ATOM      2  C   UNL     1      30.662 -25.023 -14.518  0.00  0.00    -0.105 C 
ATOM      3  H   UNL     1      29.499 -25.581 -16.111  0.00  0.00    -0.084 HD
ATOM      4  H   UNL     1      28.765 -25.741 -14.587  0.00  0.00    -0.084 HD
ENDROOT
BRANCH   1   5
ATOM      5  C   UNL     1      28.617 -23.880 -15.383  0.00  0.00    +0.035 C 
BRANCH   5   8
ATOM      6  O   UNL     1      29.162 -22.366 -17.121  0.00  0.00    -0.248 OA
ATOM      7  O   UNL     1      27.724 -24.091 -17.540  0.00  0.00    -0.248 OA
ATOM      8  C   UNL     1      28.494 -23.393 -16.820  0.00  0.00    +0.344 C 
ENDBRANCH   5   8
ENDBRANCH   1   5
TORSDOF 2
ENDMDL
MODEL 7
REMARK VINA RESULT:      -3.7      4.149      4.557
REMARK  Name = 7311726
REMARK  2 active torsions:
REMARK  status: ('A' for Active; 'I' for Inactive)
REMARK    1  A    between atoms: N_1  and  C_5
REMARK    2  A    between atoms: C_5  and  C_8
REMARK                            x       y       z     vdW  Elec       q    Type
REMARK                         _______ _______ _______ _____ _____    ______ ____
ROOT
ATOM      1  N   UNL     1      36.228 -25.397 -12.844  0.00  0.00    +0.390 N 
ATOM      2  C   UNL     1      37.295 -26.348 -13.250  0.00  0.00    -0.105 C 
ATOM      3  H   UNL     1      35.456 -25.480 -13.507  0.00  0.00    -0.084 HD
ATOM      4  H   UNL     1      35.960 -25.645 -11.893  0.00  0.00    -0.084 HD
ENDROOT
BRANCH   1   5
ATOM      5  C   UNL     1      36.658 -23.974 -12.809  0.00  0.00    +0.035 C 
BRANCH   5   8
ATOM      6  O   UNL     1      36.681 -23.922 -10.441  0.00  0.00    -0.248 OA
ATOM      7  O   UNL     1      38.215 -22.697 -11.609  0.00  0.00    -0.248 OA
ATOM      8  C   UNL     1      37.237 -23.489 -11.488  0.00  0.00    +0.344 C 
ENDBRANCH   5   8
ENDBRANCH   1   5
TORSDOF 2
ENDMDL
MODEL 8
REMARK VINA RESULT:      -3.7      5.206      5.584
REMARK  Name = 7311726
REMARK  2 active torsions:
REMARK  status: ('A' for Active; 'I' for Inactive)
REMARK    1  A    between atoms: N_1  and  C_5
REMARK    2  A    between atoms: C_5  and  C_8
REMARK                            x       y       z     vdW  Elec       q    Type
REMARK                         _______ _______ _______ _____ _____    ______ ____
ROOT
ATOM      1  N   UNL     1      34.667 -24.719 -13.260  0.00  0.00    +0.390 N 
ATOM      2  C   UNL     1      33.316 -24.300 -13.716  0.00  0.00    -0.105 C 
ATOM      3  H   UNL     1      34.582 -25.621 -12.791  0.00  0.00    -0.084 HD
ATOM      4  H   UNL     1      35.258 -24.759 -14.090  0.00  0.00    -0.084 HD
ENDROOT
BRANCH   1   5
ATOM      5  C   UNL     1      35.316 -23.767 -12.320  0.00  0.00    +0.035 C 
BRANCH   5   8
ATOM      6  O   UNL     1      37.168 -24.071 -10.875  0.00  0.00    -0.248 OA
ATOM      7  O   UNL     1      35.206 -25.155 -10.434  0.00  0.00    -0.248 OA
ATOM      8  C   UNL     1      35.966 -24.387 -11.091  0.00  0.00    +0.344 C 
ENDBRANCH   5   8
ENDBRANCH   1   5
TORSDOF 2
ENDMDL
MODEL 9
REMARK VINA RESULT:      -3.6      2.934      3.395
REMARK  Name = 7311726
REMARK  2 active torsions:
REMARK  status: ('A' for Active; 'I' for Inactive)
REMARK    1  A    between atoms: N_1  and  C_5
REMARK    2  A    between atoms: C_5  and  C_8
REMARK                            x       y       z     vdW  Elec       q    Type
REMARK                         _______ _______ _______ _____ _____    ______ ____
ROOT
ATOM      1  N   UNL     1      35.896 -25.352 -13.237  0.00  0.00    +0.390 N 
ATOM      2  C   UNL     1      35.190 -24.083 -12.922  0.00  0.00    -0.105 C 
ATOM      3  H   UNL     1      36.444 -25.625 -12.421  0.00  0.00    -0.084 HD
ATOM      4  H   UNL     1      35.178 -26.035 -13.477  0.00  0.00    -0.084 HD
ENDROOT
BRANCH   1   5
ATOM      5  C   UNL     1      36.812 -25.268 -14.405  0.00  0.00    +0.035 C 
BRANCH   5   8
ATOM      6  O   UNL     1      36.311 -27.000 -15.941  0.00  0.00    -0.248 OA
ATOM      7  O   UNL     1      38.224 -27.116 -14.700  0.00  0.00    -0.248 OA
ATOM      8  C   UNL     1      37.142 -26.589 -15.086  0.00  0.00    +0.344 C 
ENDBRANCH   5   8
ENDBRANCH   1   5
TORSDOF 2
ENDMDL
