MODEL 1
REMARK VINA RESULT:     -12.1      0.000      0.000
REMARK  Name = 15985904
REMARK  7 active torsions:
REMARK  status: ('A' for Active; 'I' for Inactive)
REMARK    1  A    between atoms: N_1  and  S_6
REMARK    2  A    between atoms: C_4  and  C_21
REMARK    3  A    between atoms: S_6  and  C_9
REMARK    4  A    between atoms: C_10  and  C_17
REMARK    5  A    between atoms: C_22  and  C_25
REMARK    6  A    between atoms: N_24  and  C_27
REMARK    7  A    between atoms: C_28  and  N_33
REMARK                            x       y       z     vdW  Elec       q    Type
REMARK                         _______ _______ _______ _____ _____    ______ ____
ROOT
ATOM      1  N   UNL     1      34.957 -17.205 -22.291  0.00  0.00    -0.167 N 
ATOM      2  C   UNL     1      34.917 -16.203 -23.169  0.00  0.00    +0.089 C 
ATOM      3  C   UNL     1      34.557 -16.875 -21.063  0.00  0.00    +0.089 C 
ATOM      4  C   UNL     1      34.450 -15.115 -22.464  0.00  0.00    +0.018 C 
ATOM      5  C   UNL     1      34.223 -15.540 -21.131  0.00  0.00    +0.019 C 
ENDROOT
BRANCH   1   6
ATOM      6  S   UNL     1      35.483 -18.798 -22.709  0.00  0.00    +0.080 S 
ATOM      7  O   UNL     1      36.927 -18.658 -22.763  0.00  0.00    -0.149 OA
ATOM      8  O   UNL     1      34.696 -19.186 -23.864  0.00  0.00    -0.149 OA
BRANCH   6   9
ATOM      9  C   UNL     1      35.020 -19.813 -21.366  0.00  0.00    +0.126 C 
ATOM     10  C   UNL     1      34.281 -21.437 -19.222  0.00  0.00    +0.003 C 
ATOM     11  C   UNL     1      36.000 -20.430 -20.588  0.00  0.00    +0.020 C 
ATOM     12  C   UNL     1      33.671 -20.009 -21.072  0.00  0.00    +0.020 C 
ATOM     13  C   UNL     1      35.630 -21.242 -19.516  0.00  0.00    +0.001 C 
ATOM     14  C   UNL     1      33.301 -20.820 -20.000  0.00  0.00    +0.001 C 
BRANCH  10  17
ATOM     15  N   UNL     1      34.029 -23.502 -16.324  0.00  0.00    -0.208 N 
ATOM     16  N   UNL     1      32.718 -23.519 -16.621  0.00  0.00    -0.176 NA
ATOM     17  C   UNL     1      33.900 -22.273 -18.118  0.00  0.00    +0.037 C 
ATOM     18  C   UNL     1      34.782 -22.767 -17.191  0.00  0.00    +0.086 C 
ATOM     19  C   UNL     1      32.648 -22.765 -17.720  0.00  0.00    +0.119 C 
ATOM     20  C   UNL     1      34.512 -24.223 -15.170  0.00  0.00    +0.140 C 
ENDBRANCH  10  17
ENDBRANCH   6   9
ENDBRANCH   1   6
BRANCH   4  21
ATOM     21  C   UNL     1      34.247 -13.828 -23.003  0.00  0.00    +0.006 C 
ATOM     22  C   UNL     1      33.940 -13.486 -24.287  0.00  0.00    +0.058 C 
BRANCH  22  25
ATOM     23  O   UNL     1      33.600 -11.743 -25.867  0.00  0.00    -0.270 OA
ATOM     24  N   UNL     1      33.792 -11.217 -23.588  0.00  0.00    -0.279 N 
ATOM     25  C   UNL     1      33.756 -12.057 -24.693  0.00  0.00    +0.250 C 
ATOM     26  H   UNL     1      33.928 -11.651 -22.714  0.00  0.00    +0.155 HD
BRANCH  24  27
ATOM     27  C   UNL     1      33.655  -9.807 -23.575  0.00  0.00    +0.064 C 
ATOM     28  C   UNL     1      32.490  -9.221 -23.106  0.00  0.00    +0.055 C 
ATOM     29  C   UNL     1      34.711  -9.040 -24.040  0.00  0.00    +0.016 C 
ATOM     30  C   UNL     1      32.379  -7.831 -23.104  0.00  0.00    +0.015 C 
ATOM     31  C   UNL     1      34.600  -7.650 -24.037  0.00  0.00    +0.001 C 
ATOM     32  C   UNL     1      33.433  -7.045 -23.570  0.00  0.00    +0.001 C 
BRANCH  28  33
ATOM     33  N   UNL     1      31.410  -9.996 -22.628  0.00  0.00    -0.356 N 
ATOM     34  H   UNL     1      30.960  -9.747 -21.789  0.00  0.00    +0.142 HD
ATOM     35  H   UNL     1      31.108 -10.784 -23.134  0.00  0.00    +0.142 HD
ENDBRANCH  28  33
ENDBRANCH  24  27
ENDBRANCH  22  25
ENDBRANCH   4  21
TORSDOF 7
ENDMDL
MODEL 2
REMARK VINA RESULT:     -12.0      2.869     12.023
REMARK  Name = 15985904
REMARK  7 active torsions:
REMARK  status: ('A' for Active; 'I' for Inactive)
REMARK    1  A    between atoms: N_1  and  S_6
REMARK    2  A    between atoms: C_4  and  C_21
REMARK    3  A    between atoms: S_6  and  C_9
REMARK    4  A    between atoms: C_10  and  C_17
REMARK    5  A    between atoms: C_22  and  C_25
REMARK    6  A    between atoms: N_24  and  C_27
REMARK    7  A    between atoms: C_28  and  N_33
REMARK                            x       y       z     vdW  Elec       q    Type
REMARK                         _______ _______ _______ _____ _____    ______ ____
ROOT
ATOM      1  N   UNL     1      34.776 -19.744 -21.152  0.00  0.00    -0.167 N 
ATOM      2  C   UNL     1      35.435 -20.511 -20.284  0.00  0.00    +0.089 C 
ATOM      3  C   UNL     1      33.450 -19.877 -21.105  0.00  0.00    +0.089 C 
ATOM      4  C   UNL     1      34.464 -21.213 -19.603  0.00  0.00    +0.018 C 
ATOM      5  C   UNL     1      33.208 -20.811 -20.122  0.00  0.00    +0.019 C 
ENDROOT
BRANCH   1   6
ATOM      6  S   UNL     1      35.572 -18.668 -22.246  0.00  0.00    +0.080 S 
ATOM      7  O   UNL     1      35.308 -19.270 -23.541  0.00  0.00    -0.149 OA
ATOM      8  O   UNL     1      36.916 -18.497 -21.727  0.00  0.00    -0.149 OA
BRANCH   6   9
ATOM      9  C   UNL     1      34.732 -17.144 -22.102  0.00  0.00    +0.126 C 
ATOM     10  C   UNL     1      33.388 -14.711 -21.871  0.00  0.00    +0.003 C 
ATOM     11  C   UNL     1      34.526 -16.578 -20.844  0.00  0.00    +0.020 C 
ATOM     12  C   UNL     1      34.266 -16.493 -23.244  0.00  0.00    +0.020 C 
ATOM     13  C   UNL     1      33.854 -15.362 -20.728  0.00  0.00    +0.001 C 
ATOM     14  C   UNL     1      33.594 -15.277 -23.129  0.00  0.00    +0.001 C 
BRANCH  10  17
ATOM     15  N   UNL     1      31.624 -11.771 -20.886  0.00  0.00    -0.208 N 
ATOM     16  N   UNL     1      31.715 -11.448 -22.188  0.00  0.00    -0.176 NA
ATOM     17  C   UNL     1      32.697 -13.458 -21.751  0.00  0.00    +0.037 C 
ATOM     18  C   UNL     1      32.198 -12.967 -20.572  0.00  0.00    +0.086 C 
ATOM     19  C   UNL     1      32.373 -12.486 -22.710  0.00  0.00    +0.119 C 
ATOM     20  C   UNL     1      30.961 -10.872 -19.971  0.00  0.00    +0.140 C 
ENDBRANCH  10  17
ENDBRANCH   6   9
ENDBRANCH   1   6
BRANCH   4  21
ATOM     21  C   UNL     1      34.711 -22.151 -18.579  0.00  0.00    +0.006 C 
ATOM     22  C   UNL     1      35.570 -22.047 -17.525  0.00  0.00    +0.058 C 
BRANCH  22  25
ATOM     23  O   UNL     1      34.866 -24.031 -16.418  0.00  0.00    -0.270 OA
ATOM     24  N   UNL     1      36.877 -23.001 -15.781  0.00  0.00    -0.279 N 
ATOM     25  C   UNL     1      35.710 -23.148 -16.520  0.00  0.00    +0.250 C 
ATOM     26  H   UNL     1      37.440 -22.224 -16.004  0.00  0.00    +0.155 HD
BRANCH  24  27
ATOM     27  C   UNL     1      37.349 -23.843 -14.744  0.00  0.00    +0.064 C 
ATOM     28  C   UNL     1      36.654 -23.938 -13.549  0.00  0.00    +0.055 C 
ATOM     29  C   UNL     1      38.514 -24.560 -14.959  0.00  0.00    +0.016 C 
ATOM     30  C   UNL     1      37.139 -24.773 -12.542  0.00  0.00    +0.015 C 
ATOM     31  C   UNL     1      38.999 -25.395 -13.953  0.00  0.00    +0.001 C 
ATOM     32  C   UNL     1      38.311 -25.501 -12.744  0.00  0.00    +0.001 C 
BRANCH  28  33
ATOM     33  N   UNL     1      35.465 -23.211 -13.323  0.00  0.00    -0.356 N 
ATOM     34  H   UNL     1      35.249 -22.434 -13.887  0.00  0.00    +0.142 HD
ATOM     35  H   UNL     1      34.851 -23.482 -12.602  0.00  0.00    +0.142 HD
ENDBRANCH  28  33
ENDBRANCH  24  27
ENDBRANCH  22  25
ENDBRANCH   4  21
TORSDOF 7
ENDMDL
MODEL 3
REMARK VINA RESULT:     -12.0      1.915      2.313
REMARK  Name = 15985904
REMARK  7 active torsions:
REMARK  status: ('A' for Active; 'I' for Inactive)
REMARK    1  A    between atoms: N_1  and  S_6
REMARK    2  A    between atoms: C_4  and  C_21
REMARK    3  A    between atoms: S_6  and  C_9
REMARK    4  A    between atoms: C_10  and  C_17
REMARK    5  A    between atoms: C_22  and  C_25
REMARK    6  A    between atoms: N_24  and  C_27
REMARK    7  A    between atoms: C_28  and  N_33
REMARK                            x       y       z     vdW  Elec       q    Type
REMARK                         _______ _______ _______ _____ _____    ______ ____
ROOT
ATOM      1  N   UNL     1      34.441 -16.655 -21.935  0.00  0.00    -0.167 N 
ATOM      2  C   UNL     1      33.645 -15.756 -22.513  0.00  0.00    +0.089 C 
ATOM      3  C   UNL     1      34.895 -16.294 -20.734  0.00  0.00    +0.089 C 
ATOM      4  C   UNL     1      33.562 -14.710 -21.620  0.00  0.00    +0.018 C 
ATOM      5  C   UNL     1      34.353 -15.051 -20.495  0.00  0.00    +0.019 C 
ENDROOT
BRANCH   1   6
ATOM      6  S   UNL     1      34.852 -18.160 -22.679  0.00  0.00    +0.080 S 
ATOM      7  O   UNL     1      36.239 -17.965 -23.062  0.00  0.00    -0.149 OA
ATOM      8  O   UNL     1      33.807 -18.421 -23.651  0.00  0.00    -0.149 OA
BRANCH   6   9
ATOM      9  C   UNL     1      34.733 -19.358 -21.414  0.00  0.00    +0.126 C 
ATOM     10  C   UNL     1      34.544 -21.270 -19.391  0.00  0.00    +0.003 C 
ATOM     11  C   UNL     1      33.481 -19.795 -20.983  0.00  0.00    +0.020 C 
ATOM     12  C   UNL     1      35.891 -19.877 -20.834  0.00  0.00    +0.020 C 
ATOM     13  C   UNL     1      33.386 -20.750 -19.972  0.00  0.00    +0.001 C 
ATOM     14  C   UNL     1      35.796 -20.832 -19.822  0.00  0.00    +0.001 C 
BRANCH  10  17
ATOM     15  N   UNL     1      34.908 -23.428 -16.574  0.00  0.00    -0.208 N 
ATOM     16  N   UNL     1      33.757 -23.964 -17.013  0.00  0.00    -0.176 NA
ATOM     17  C   UNL     1      34.445 -22.254 -18.350  0.00  0.00    +0.037 C 
ATOM     18  C   UNL     1      35.364 -22.397 -17.342  0.00  0.00    +0.086 C 
ATOM     19  C   UNL     1      33.480 -23.240 -18.099  0.00  0.00    +0.119 C 
ATOM     20  C   UNL     1      35.539 -23.955 -15.388  0.00  0.00    +0.140 C 
ENDBRANCH  10  17
ENDBRANCH   6   9
ENDBRANCH   1   6
BRANCH   4  21
ATOM     21  C   UNL     1      32.815 -13.530 -21.821  0.00  0.00    +0.006 C 
ATOM     22  C   UNL     1      32.151 -12.781 -20.896  0.00  0.00    +0.058 C 
BRANCH  22  25
ATOM     23  O   UNL     1      30.176 -11.526 -21.318  0.00  0.00    -0.270 OA
ATOM     24  N   UNL     1      32.274 -10.504 -21.574  0.00  0.00    -0.279 N 
ATOM     25  C   UNL     1      31.402 -11.544 -21.283  0.00  0.00    +0.250 C 
ATOM     26  H   UNL     1      33.236 -10.705 -21.491  0.00  0.00    +0.155 HD
BRANCH  24  27
ATOM     27  C   UNL     1      31.939  -9.188 -21.976  0.00  0.00    +0.064 C 
ATOM     28  C   UNL     1      32.162  -8.118 -21.125  0.00  0.00    +0.055 C 
ATOM     29  C   UNL     1      31.388  -9.005 -23.234  0.00  0.00    +0.016 C 
ATOM     30  C   UNL     1      31.823  -6.831 -21.542  0.00  0.00    +0.015 C 
ATOM     31  C   UNL     1      31.049  -7.719 -23.652  0.00  0.00    +0.001 C 
ATOM     32  C   UNL     1      31.267  -6.631 -22.806  0.00  0.00    +0.001 C 
BRANCH  28  33
ATOM     33  N   UNL     1      32.725  -8.295 -19.842  0.00  0.00    -0.356 N 
ATOM     34  H   UNL     1      32.139  -8.382 -19.055  0.00  0.00    +0.142 HD
ATOM     35  H   UNL     1      33.703  -8.333 -19.734  0.00  0.00    +0.142 HD
ENDBRANCH  28  33
ENDBRANCH  24  27
ENDBRANCH  22  25
ENDBRANCH   4  21
TORSDOF 7
ENDMDL
MODEL 4
REMARK VINA RESULT:     -11.9      2.819     12.046
REMARK  Name = 15985904
REMARK  7 active torsions:
REMARK  status: ('A' for Active; 'I' for Inactive)
REMARK    1  A    between atoms: N_1  and  S_6
REMARK    2  A    between atoms: C_4  and  C_21
REMARK    3  A    between atoms: S_6  and  C_9
REMARK    4  A    between atoms: C_10  and  C_17
REMARK    5  A    between atoms: C_22  and  C_25
REMARK    6  A    between atoms: N_24  and  C_27
REMARK    7  A    between atoms: C_28  and  N_33
REMARK                            x       y       z     vdW  Elec       q    Type
REMARK                         _______ _______ _______ _____ _____    ______ ____
ROOT
ATOM      1  N   UNL     1      34.783 -19.801 -21.169  0.00  0.00    -0.167 N 
ATOM      2  C   UNL     1      35.422 -20.522 -20.248  0.00  0.00    +0.089 C 
ATOM      3  C   UNL     1      33.458 -19.946 -21.157  0.00  0.00    +0.089 C 
ATOM      4  C   UNL     1      34.437 -21.204 -19.567  0.00  0.00    +0.018 C 
ATOM      5  C   UNL     1      33.194 -20.839 -20.142  0.00  0.00    +0.019 C 
ENDROOT
BRANCH   1   6
ATOM      6  S   UNL     1      35.603 -18.766 -22.285  0.00  0.00    +0.080 S 
ATOM      7  O   UNL     1      35.336 -19.394 -23.566  0.00  0.00    -0.149 OA
ATOM      8  O   UNL     1      36.946 -18.604 -21.762  0.00  0.00    -0.149 OA
BRANCH   6   9
ATOM      9  C   UNL     1      34.788 -17.225 -22.182  0.00  0.00    +0.126 C 
ATOM     10  C   UNL     1      33.487 -14.763 -22.018  0.00  0.00    +0.003 C 
ATOM     11  C   UNL     1      34.295 -16.618 -23.337  0.00  0.00    +0.020 C 
ATOM     12  C   UNL     1      34.629 -16.601 -20.945  0.00  0.00    +0.020 C 
ATOM     13  C   UNL     1      33.645 -15.387 -23.255  0.00  0.00    +0.001 C 
ATOM     14  C   UNL     1      33.979 -15.370 -20.863  0.00  0.00    +0.001 C 
BRANCH  10  17
ATOM     15  N   UNL     1      31.674 -11.817 -21.144  0.00  0.00    -0.208 N 
ATOM     16  N   UNL     1      31.961 -11.436 -22.401  0.00  0.00    -0.176 NA
ATOM     17  C   UNL     1      32.817 -13.495 -21.934  0.00  0.00    +0.037 C 
ATOM     18  C   UNL     1      32.166 -13.045 -20.814  0.00  0.00    +0.086 C 
ATOM     19  C   UNL     1      32.661 -12.468 -22.878  0.00  0.00    +0.119 C 
ATOM     20  C   UNL     1      30.910 -10.942 -20.288  0.00  0.00    +0.140 C 
ENDBRANCH  10  17
ENDBRANCH   6   9
ENDBRANCH   1   6
BRANCH   4  21
ATOM     21  C   UNL     1      34.661 -22.094 -18.496  0.00  0.00    +0.006 C 
ATOM     22  C   UNL     1      35.634 -22.043 -17.542  0.00  0.00    +0.058 C 
BRANCH  22  25
ATOM     23  O   UNL     1      34.995 -24.060 -16.458  0.00  0.00    -0.270 OA
ATOM     24  N   UNL     1      36.719 -22.753 -15.548  0.00  0.00    -0.279 N 
ATOM     25  C   UNL     1      35.729 -23.078 -16.465  0.00  0.00    +0.250 C 
ATOM     26  H   UNL     1      37.212 -21.916 -15.715  0.00  0.00    +0.155 HD
BRANCH  24  27
ATOM     27  C   UNL     1      37.099 -23.487 -14.397  0.00  0.00    +0.064 C 
ATOM     28  C   UNL     1      38.217 -24.305 -14.427  0.00  0.00    +0.055 C 
ATOM     29  C   UNL     1      36.328 -23.362 -13.253  0.00  0.00    +0.016 C 
ATOM     30  C   UNL     1      38.572 -25.018 -13.282  0.00  0.00    +0.015 C 
ATOM     31  C   UNL     1      36.682 -24.075 -12.109  0.00  0.00    +0.001 C 
ATOM     32  C   UNL     1      37.805 -24.904 -12.123  0.00  0.00    +0.001 C 
BRANCH  28  33
ATOM     33  N   UNL     1      39.010 -24.435 -15.589  0.00  0.00    -0.356 N 
ATOM     34  H   UNL     1      39.096 -23.678 -16.213  0.00  0.00    +0.142 HD
ATOM     35  H   UNL     1      39.477 -25.281 -15.774  0.00  0.00    +0.142 HD
ENDBRANCH  28  33
ENDBRANCH  24  27
ENDBRANCH  22  25
ENDBRANCH   4  21
TORSDOF 7
ENDMDL
MODEL 5
REMARK VINA RESULT:     -11.1      2.693     11.233
REMARK  Name = 15985904
REMARK  7 active torsions:
REMARK  status: ('A' for Active; 'I' for Inactive)
REMARK    1  A    between atoms: N_1  and  S_6
REMARK    2  A    between atoms: C_4  and  C_21
REMARK    3  A    between atoms: S_6  and  C_9
REMARK    4  A    between atoms: C_10  and  C_17
REMARK    5  A    between atoms: C_22  and  C_25
REMARK    6  A    between atoms: N_24  and  C_27
REMARK    7  A    between atoms: C_28  and  N_33
REMARK                            x       y       z     vdW  Elec       q    Type
REMARK                         _______ _______ _______ _____ _____    ______ ____
ROOT
ATOM      1  N   UNL     1      35.265 -19.012 -21.945  0.00  0.00    -0.167 N 
ATOM      2  C   UNL     1      34.470 -19.932 -21.398  0.00  0.00    +0.089 C 
ATOM      3  C   UNL     1      36.419 -18.832 -21.303  0.00  0.00    +0.089 C 
ATOM      4  C   UNL     1      35.156 -20.404 -20.301  0.00  0.00    +0.018 C 
ATOM      5  C   UNL     1      36.389 -19.708 -20.240  0.00  0.00    +0.019 C 
ENDROOT
BRANCH   1   6
ATOM      6  S   UNL     1      34.834 -18.125 -23.366  0.00  0.00    +0.080 S 
ATOM      7  O   UNL     1      33.844 -18.982 -23.994  0.00  0.00    -0.149 OA
ATOM      8  O   UNL     1      36.086 -17.780 -24.012  0.00  0.00    -0.149 OA
BRANCH   6   9
ATOM      9  C   UNL     1      34.090 -16.653 -22.793  0.00  0.00    +0.126 C 
ATOM     10  C   UNL     1      32.902 -14.301 -21.878  0.00  0.00    +0.003 C 
ATOM     11  C   UNL     1      33.820 -15.616 -23.685  0.00  0.00    +0.020 C 
ATOM     12  C   UNL     1      33.766 -16.514 -21.443  0.00  0.00    +0.020 C 
ATOM     13  C   UNL     1      33.226 -14.440 -23.228  0.00  0.00    +0.001 C 
ATOM     14  C   UNL     1      33.173 -15.338 -20.986  0.00  0.00    +0.001 C 
BRANCH  10  17
ATOM     15  N   UNL     1      31.552 -11.541 -20.064  0.00  0.00    -0.208 N 
ATOM     16  N   UNL     1      31.238 -11.073 -21.285  0.00  0.00    -0.176 NA
ATOM     17  C   UNL     1      32.291 -13.090 -21.407  0.00  0.00    +0.037 C 
ATOM     18  C   UNL     1      32.186 -12.749 -20.083  0.00  0.00    +0.086 C 
ATOM     19  C   UNL     1      31.694 -12.026 -22.101  0.00  0.00    +0.119 C 
ATOM     20  C   UNL     1      31.213 -10.770 -18.892  0.00  0.00    +0.140 C 
ENDBRANCH  10  17
ENDBRANCH   6   9
ENDBRANCH   1   6
BRANCH   4  21
ATOM     21  C   UNL     1      34.687 -21.400 -19.419  0.00  0.00    +0.006 C 
ATOM     22  C   UNL     1      33.398 -21.761 -19.159  0.00  0.00    +0.058 C 
BRANCH  22  25
ATOM     23  O   UNL     1      33.640 -23.937 -18.231  0.00  0.00    -0.270 OA
ATOM     24  N   UNL     1      32.089 -22.444 -17.294  0.00  0.00    -0.279 N 
ATOM     25  C   UNL     1      33.072 -22.851 -18.186  0.00  0.00    +0.250 C 
ATOM     26  H   UNL     1      31.745 -21.528 -17.411  0.00  0.00    +0.155 HD
BRANCH  24  27
ATOM     27  C   UNL     1      31.523 -23.197 -16.236  0.00  0.00    +0.064 C 
ATOM     28  C   UNL     1      30.150 -23.353 -16.143  0.00  0.00    +0.055 C 
ATOM     29  C   UNL     1      32.378 -23.769 -15.307  0.00  0.00    +0.016 C 
ATOM     30  C   UNL     1      29.617 -24.098 -15.092  0.00  0.00    +0.015 C 
ATOM     31  C   UNL     1      31.845 -24.514 -14.256  0.00  0.00    +0.001 C 
ATOM     32  C   UNL     1      30.464 -24.679 -14.148  0.00  0.00    +0.001 C 
BRANCH  28  33
ATOM     33  N   UNL     1      29.273 -22.775 -17.087  0.00  0.00    -0.356 N 
ATOM     34  H   UNL     1      28.314 -23.001 -17.070  0.00  0.00    +0.142 HD
ATOM     35  H   UNL     1      29.619 -22.148 -17.762  0.00  0.00    +0.142 HD
ENDBRANCH  28  33
ENDBRANCH  24  27
ENDBRANCH  22  25
ENDBRANCH   4  21
TORSDOF 7
ENDMDL
MODEL 6
REMARK VINA RESULT:     -11.0      2.248     11.908
REMARK  Name = 15985904
REMARK  7 active torsions:
REMARK  status: ('A' for Active; 'I' for Inactive)
REMARK    1  A    between atoms: N_1  and  S_6
REMARK    2  A    between atoms: C_4  and  C_21
REMARK    3  A    between atoms: S_6  and  C_9
REMARK    4  A    between atoms: C_10  and  C_17
REMARK    5  A    between atoms: C_22  and  C_25
REMARK    6  A    between atoms: N_24  and  C_27
REMARK    7  A    between atoms: C_28  and  N_33
REMARK                            x       y       z     vdW  Elec       q    Type
REMARK                         _______ _______ _______ _____ _____    ______ ____
ROOT
ATOM      1  N   UNL     1      34.556 -19.218 -21.902  0.00  0.00    -0.167 N 
ATOM      2  C   UNL     1      35.031 -19.998 -20.930  0.00  0.00    +0.089 C 
ATOM      3  C   UNL     1      33.226 -19.133 -21.936  0.00  0.00    +0.089 C 
ATOM      4  C   UNL     1      33.922 -20.471 -20.263  0.00  0.00    +0.018 C 
ATOM      5  C   UNL     1      32.780 -19.924 -20.900  0.00  0.00    +0.019 C 
ENDROOT
BRANCH   1   6
ATOM      6  S   UNL     1      35.578 -18.387 -23.021  0.00  0.00    +0.080 S 
ATOM      7  O   UNL     1      35.328 -19.087 -24.269  0.00  0.00    -0.149 OA
ATOM      8  O   UNL     1      36.890 -18.343 -22.404  0.00  0.00    -0.149 OA
BRANCH   6   9
ATOM      9  C   UNL     1      34.958 -16.757 -23.103  0.00  0.00    +0.126 C 
ATOM     10  C   UNL     1      33.965 -14.153 -23.234  0.00  0.00    +0.003 C 
ATOM     11  C   UNL     1      34.969 -15.949 -21.967  0.00  0.00    +0.020 C 
ATOM     12  C   UNL     1      34.450 -16.263 -24.305  0.00  0.00    +0.020 C 
ATOM     13  C   UNL     1      34.473 -14.647 -22.032  0.00  0.00    +0.001 C 
ATOM     14  C   UNL     1      33.954 -14.961 -24.370  0.00  0.00    +0.001 C 
BRANCH  10  17
ATOM     15  N   UNL     1      32.244 -11.047 -22.898  0.00  0.00    -0.208 N 
ATOM     16  N   UNL     1      33.102 -10.629 -23.845  0.00  0.00    -0.176 NA
ATOM     17  C   UNL     1      33.454 -12.813 -23.301  0.00  0.00    +0.037 C 
ATOM     18  C   UNL     1      32.415 -12.350 -22.535  0.00  0.00    +0.086 C 
ATOM     19  C   UNL     1      33.839 -11.716 -24.086  0.00  0.00    +0.119 C 
ATOM     20  C   UNL     1      31.263 -10.131 -22.365  0.00  0.00    +0.140 C 
ENDBRANCH  10  17
ENDBRANCH   6   9
ENDBRANCH   1   6
BRANCH   4  21
ATOM     21  C   UNL     1      33.954 -21.339 -19.152  0.00  0.00    +0.006 C 
ATOM     22  C   UNL     1      33.076 -22.331 -18.828  0.00  0.00    +0.058 C 
BRANCH  22  25
ATOM     23  O   UNL     1      34.311 -23.762 -17.386  0.00  0.00    -0.270 OA
ATOM     24  N   UNL     1      32.118 -23.152 -16.811  0.00  0.00    -0.279 N 
ATOM     25  C   UNL     1      33.261 -23.168 -17.600  0.00  0.00    +0.250 C 
ATOM     26  H   UNL     1      31.364 -22.614 -17.146  0.00  0.00    +0.155 HD
BRANCH  24  27
ATOM     27  C   UNL     1      31.916 -23.821 -15.579  0.00  0.00    +0.064 C 
ATOM     28  C   UNL     1      30.669 -24.333 -15.258  0.00  0.00    +0.055 C 
ATOM     29  C   UNL     1      32.991 -23.948 -14.716  0.00  0.00    +0.016 C 
ATOM     30  C   UNL     1      30.493 -24.988 -14.039  0.00  0.00    +0.015 C 
ATOM     31  C   UNL     1      32.816 -24.603 -13.497  0.00  0.00    +0.001 C 
ATOM     32  C   UNL     1      31.567 -25.123 -13.158  0.00  0.00    +0.001 C 
BRANCH  28  33
ATOM     33  N   UNL     1      29.568 -24.210 -16.134  0.00  0.00    -0.356 N 
ATOM     34  H   UNL     1      28.690 -24.573 -15.875  0.00  0.00    +0.142 HD
ATOM     35  H   UNL     1      29.678 -23.761 -17.003  0.00  0.00    +0.142 HD
ENDBRANCH  28  33
ENDBRANCH  24  27
ENDBRANCH  22  25
ENDBRANCH   4  21
TORSDOF 7
ENDMDL
MODEL 7
REMARK VINA RESULT:     -11.0      1.907      2.805
REMARK  Name = 15985904
REMARK  7 active torsions:
REMARK  status: ('A' for Active; 'I' for Inactive)
REMARK    1  A    between atoms: N_1  and  S_6
REMARK    2  A    between atoms: C_4  and  C_21
REMARK    3  A    between atoms: S_6  and  C_9
REMARK    4  A    between atoms: C_10  and  C_17
REMARK    5  A    between atoms: C_22  and  C_25
REMARK    6  A    between atoms: N_24  and  C_27
REMARK    7  A    between atoms: C_28  and  N_33
REMARK                            x       y       z     vdW  Elec       q    Type
REMARK                         _______ _______ _______ _____ _____    ______ ____
ROOT
ATOM      1  N   UNL     1      33.896 -15.464 -23.164  0.00  0.00    -0.167 N 
ATOM      2  C   UNL     1      34.039 -14.212 -23.600  0.00  0.00    +0.089 C 
ATOM      3  C   UNL     1      33.051 -15.594 -22.141  0.00  0.00    +0.089 C 
ATOM      4  C   UNL     1      33.218 -13.448 -22.801  0.00  0.00    +0.018 C 
ATOM      5  C   UNL     1      32.593 -14.322 -21.877  0.00  0.00    +0.019 C 
ENDROOT
BRANCH   1   6
ATOM      6  S   UNL     1      34.736 -16.803 -23.863  0.00  0.00    +0.080 S 
ATOM      7  O   UNL     1      36.069 -16.271 -24.080  0.00  0.00    -0.149 OA
ATOM      8  O   UNL     1      33.899 -17.272 -24.951  0.00  0.00    -0.149 OA
BRANCH   6   9
ATOM      9  C   UNL     1      34.766 -18.036 -22.627  0.00  0.00    +0.126 C 
ATOM     10  C   UNL     1      34.814 -20.004 -20.650  0.00  0.00    +0.003 C 
ATOM     11  C   UNL     1      33.622 -18.788 -22.364  0.00  0.00    +0.020 C 
ATOM     12  C   UNL     1      35.935 -18.268 -21.901  0.00  0.00    +0.020 C 
ATOM     13  C   UNL     1      33.646 -19.772 -21.376  0.00  0.00    +0.001 C 
ATOM     14  C   UNL     1      35.959 -19.251 -20.913  0.00  0.00    +0.001 C 
BRANCH  10  17
ATOM     15  N   UNL     1      34.172 -22.541 -18.227  0.00  0.00    -0.208 N 
ATOM     16  N   UNL     1      35.501 -22.500 -18.035  0.00  0.00    -0.176 NA
ATOM     17  C   UNL     1      34.839 -21.017 -19.633  0.00  0.00    +0.037 C 
ATOM     18  C   UNL     1      33.723 -21.671 -19.176  0.00  0.00    +0.086 C 
ATOM     19  C   UNL     1      35.902 -21.565 -18.900  0.00  0.00    +0.119 C 
ATOM     20  C   UNL     1      33.365 -23.456 -17.455  0.00  0.00    +0.140 C 
ENDBRANCH  10  17
ENDBRANCH   6   9
ENDBRANCH   1   6
BRANCH   4  21
ATOM     21  C   UNL     1      33.054 -12.051 -22.909  0.00  0.00    +0.006 C 
ATOM     22  C   UNL     1      33.825 -11.159 -23.594  0.00  0.00    +0.058 C 
BRANCH  22  25
ATOM     23  O   UNL     1      34.064  -8.927 -24.379  0.00  0.00    -0.270 OA
ATOM     24  N   UNL     1      32.539  -9.391 -22.656  0.00  0.00    -0.279 N 
ATOM     25  C   UNL     1      33.505  -9.696 -23.605  0.00  0.00    +0.250 C 
ATOM     26  H   UNL     1      32.201 -10.144 -22.119  0.00  0.00    +0.155 HD
BRANCH  24  27
ATOM     27  C   UNL     1      31.985  -8.119 -22.373  0.00  0.00    +0.064 C 
ATOM     28  C   UNL     1      32.188  -7.525 -21.137  0.00  0.00    +0.055 C 
ATOM     29  C   UNL     1      31.241  -7.492 -23.360  0.00  0.00    +0.016 C 
ATOM     30  C   UNL     1      31.631  -6.272 -20.882  0.00  0.00    +0.015 C 
ATOM     31  C   UNL     1      30.685  -6.238 -23.104  0.00  0.00    +0.001 C 
ATOM     32  C   UNL     1      30.880  -5.629 -21.865  0.00  0.00    +0.001 C 
BRANCH  28  33
ATOM     33  N   UNL     1      32.946  -8.157 -20.127  0.00  0.00    -0.356 N 
ATOM     34  H   UNL     1      32.896  -9.134 -20.013  0.00  0.00    +0.142 HD
ATOM     35  H   UNL     1      33.525  -7.622 -19.538  0.00  0.00    +0.142 HD
ENDBRANCH  28  33
ENDBRANCH  24  27
ENDBRANCH  22  25
ENDBRANCH   4  21
TORSDOF 7
ENDMDL
MODEL 8
REMARK VINA RESULT:     -10.9      2.687     11.280
REMARK  Name = 15985904
REMARK  7 active torsions:
REMARK  status: ('A' for Active; 'I' for Inactive)
REMARK    1  A    between atoms: N_1  and  S_6
REMARK    2  A    between atoms: C_4  and  C_21
REMARK    3  A    between atoms: S_6  and  C_9
REMARK    4  A    between atoms: C_10  and  C_17
REMARK    5  A    between atoms: C_22  and  C_25
REMARK    6  A    between atoms: N_24  and  C_27
REMARK    7  A    between atoms: C_28  and  N_33
REMARK                            x       y       z     vdW  Elec       q    Type
REMARK                         _______ _______ _______ _____ _____    ______ ____
ROOT
ATOM      1  N   UNL     1      35.272 -18.972 -21.965  0.00  0.00    -0.167 N 
ATOM      2  C   UNL     1      34.476 -19.886 -21.410  0.00  0.00    +0.089 C 
ATOM      3  C   UNL     1      36.442 -18.816 -21.346  0.00  0.00    +0.089 C 
ATOM      4  C   UNL     1      35.177 -20.379 -20.332  0.00  0.00    +0.018 C 
ATOM      5  C   UNL     1      36.422 -19.701 -20.291  0.00  0.00    +0.019 C 
ENDROOT
BRANCH   1   6
ATOM      6  S   UNL     1      34.825 -18.066 -23.368  0.00  0.00    +0.080 S 
ATOM      7  O   UNL     1      33.831 -18.915 -23.999  0.00  0.00    -0.149 OA
ATOM      8  O   UNL     1      36.070 -17.707 -24.022  0.00  0.00    -0.149 OA
BRANCH   6   9
ATOM      9  C   UNL     1      34.083 -16.604 -22.766  0.00  0.00    +0.126 C 
ATOM     10  C   UNL     1      32.896 -14.270 -21.805  0.00  0.00    +0.003 C 
ATOM     11  C   UNL     1      33.742 -16.499 -21.418  0.00  0.00    +0.020 C 
ATOM     12  C   UNL     1      33.831 -15.542 -23.634  0.00  0.00    +0.020 C 
ATOM     13  C   UNL     1      33.149 -15.333 -20.938  0.00  0.00    +0.001 C 
ATOM     14  C   UNL     1      33.237 -14.375 -23.154  0.00  0.00    +0.001 C 
BRANCH  10  17
ATOM     15  N   UNL     1      31.568 -11.536 -19.938  0.00  0.00    -0.208 N 
ATOM     16  N   UNL     1      31.213 -11.065 -21.146  0.00  0.00    -0.176 NA
ATOM     17  C   UNL     1      32.285 -13.068 -21.311  0.00  0.00    +0.037 C 
ATOM     18  C   UNL     1      32.216 -12.735 -19.982  0.00  0.00    +0.086 C 
ATOM     19  C   UNL     1      31.655 -12.009 -21.981  0.00  0.00    +0.119 C 
ATOM     20  C   UNL     1      31.255 -10.775 -18.752  0.00  0.00    +0.140 C 
ENDBRANCH  10  17
ENDBRANCH   6   9
ENDBRANCH   1   6
BRANCH   4  21
ATOM     21  C   UNL     1      34.712 -21.376 -19.450  0.00  0.00    +0.006 C 
ATOM     22  C   UNL     1      33.424 -21.685 -19.126  0.00  0.00    +0.058 C 
BRANCH  22  25
ATOM     23  O   UNL     1      33.707 -23.852 -18.188  0.00  0.00    -0.270 OA
ATOM     24  N   UNL     1      32.078 -22.411 -17.304  0.00  0.00    -0.279 N 
ATOM     25  C   UNL     1      33.103 -22.786 -18.163  0.00  0.00    +0.250 C 
ATOM     26  H   UNL     1      31.709 -21.507 -17.433  0.00  0.00    +0.155 HD
BRANCH  24  27
ATOM     27  C   UNL     1      31.503 -23.183 -16.264  0.00  0.00    +0.064 C 
ATOM     28  C   UNL     1      32.260 -23.546 -15.161  0.00  0.00    +0.055 C 
ATOM     29  C   UNL     1      30.175 -23.559 -16.382  0.00  0.00    +0.016 C 
ATOM     30  C   UNL     1      31.672 -24.306 -14.150  0.00  0.00    +0.015 C 
ATOM     31  C   UNL     1      29.588 -24.319 -15.371  0.00  0.00    +0.001 C 
ATOM     32  C   UNL     1      30.336 -24.693 -14.255  0.00  0.00    +0.001 C 
BRANCH  28  33
ATOM     33  N   UNL     1      33.614 -23.164 -15.033  0.00  0.00    -0.356 N 
ATOM     34  H   UNL     1      34.262 -23.411 -15.731  0.00  0.00    +0.142 HD
ATOM     35  H   UNL     1      33.908 -22.651 -14.246  0.00  0.00    +0.142 HD
ENDBRANCH  28  33
ENDBRANCH  24  27
ENDBRANCH  22  25
ENDBRANCH   4  21
TORSDOF 7
ENDMDL
MODEL 9
REMARK VINA RESULT:     -10.9      3.287     12.727
REMARK  Name = 15985904
REMARK  7 active torsions:
REMARK  status: ('A' for Active; 'I' for Inactive)
REMARK    1  A    between atoms: N_1  and  S_6
REMARK    2  A    between atoms: C_4  and  C_21
REMARK    3  A    between atoms: S_6  and  C_9
REMARK    4  A    between atoms: C_10  and  C_17
REMARK    5  A    between atoms: C_22  and  C_25
REMARK    6  A    between atoms: N_24  and  C_27
REMARK    7  A    between atoms: C_28  and  N_33
REMARK                            x       y       z     vdW  Elec       q    Type
REMARK                         _______ _______ _______ _____ _____    ______ ____
ROOT
ATOM      1  N   UNL     1      32.244 -12.081 -21.694  0.00  0.00    -0.167 N 
ATOM      2  C   UNL     1      32.418 -13.309 -21.206  0.00  0.00    +0.089 C 
ATOM      3  C   UNL     1      32.715 -11.911 -22.930  0.00  0.00    +0.089 C 
ATOM      4  C   UNL     1      33.059 -14.014 -22.201  0.00  0.00    +0.018 C 
ATOM      5  C   UNL     1      33.247 -13.129 -23.292  0.00  0.00    +0.019 C 
ENDROOT
BRANCH   1   6
ATOM      6  S   UNL     1      31.473 -10.817 -20.802  0.00  0.00    +0.080 S 
ATOM      7  O   UNL     1      32.276 -10.736 -19.595  0.00  0.00    -0.149 OA
ATOM      8  O   UNL     1      30.061 -11.153 -20.777  0.00  0.00    -0.149 OA
BRANCH   6   9
ATOM      9  C   UNL     1      31.674  -9.373 -21.764  0.00  0.00    +0.126 C 
ATOM     10  C   UNL     1      31.996  -7.068 -23.301  0.00  0.00    +0.003 C 
ATOM     11  C   UNL     1      30.897  -9.183 -22.906  0.00  0.00    +0.020 C 
ATOM     12  C   UNL     1      32.612  -8.411 -21.390  0.00  0.00    +0.020 C 
ATOM     13  C   UNL     1      31.058  -8.030 -23.675  0.00  0.00    +0.001 C 
ATOM     14  C   UNL     1      32.773  -7.259 -22.159  0.00  0.00    +0.001 C 
BRANCH  10  17
ATOM     15  N   UNL     1      32.005  -3.816 -24.768  0.00  0.00    -0.208 N 
ATOM     16  N   UNL     1      32.769  -4.395 -25.710  0.00  0.00    -0.176 NA
ATOM     17  C   UNL     1      32.162  -5.881 -24.093  0.00  0.00    +0.037 C 
ATOM     18  C   UNL     1      31.615  -4.665 -23.775  0.00  0.00    +0.086 C 
ATOM     19  C   UNL     1      32.861  -5.659 -25.289  0.00  0.00    +0.119 C 
ATOM     20  C   UNL     1      31.676  -2.415 -24.875  0.00  0.00    +0.140 C 
ENDBRANCH  10  17
ENDBRANCH   6   9
ENDBRANCH   1   6
BRANCH   4  21
ATOM     21  C   UNL     1      33.442 -15.368 -22.116  0.00  0.00    +0.006 C 
ATOM     22  C   UNL     1      34.347 -16.041 -22.883  0.00  0.00    +0.058 C 
BRANCH  22  25
ATOM     23  O   UNL     1      35.199 -18.171 -23.510  0.00  0.00    -0.270 OA
ATOM     24  N   UNL     1      34.195 -17.899 -21.405  0.00  0.00    -0.279 N 
ATOM     25  C   UNL     1      34.639 -17.492 -22.656  0.00  0.00    +0.250 C 
ATOM     26  H   UNL     1      33.764 -17.209 -20.849  0.00  0.00    +0.155 HD
BRANCH  24  27
ATOM     27  C   UNL     1      34.294 -19.193 -20.837  0.00  0.00    +0.064 C 
ATOM     28  C   UNL     1      35.535 -19.741 -20.555  0.00  0.00    +0.055 C 
ATOM     29  C   UNL     1      33.123 -19.886 -20.575  0.00  0.00    +0.016 C 
ATOM     30  C   UNL     1      35.606 -21.017 -19.996  0.00  0.00    +0.015 C 
ATOM     31  C   UNL     1      33.195 -21.162 -20.016  0.00  0.00    +0.001 C 
ATOM     32  C   UNL     1      34.436 -21.728 -19.727  0.00  0.00    +0.001 C 
BRANCH  28  33
ATOM     33  N   UNL     1      36.732 -19.040 -20.817  0.00  0.00    -0.356 N 
ATOM     34  H   UNL     1      36.829 -18.105 -20.523  0.00  0.00    +0.142 HD
ATOM     35  H   UNL     1      37.470 -19.485 -21.292  0.00  0.00    +0.142 HD
ENDBRANCH  28  33
ENDBRANCH  24  27
ENDBRANCH  22  25
ENDBRANCH   4  21
TORSDOF 7
ENDMDL
