MODEL 1
REMARK VINA RESULT:     -11.6      0.000      0.000
REMARK  Name = 25052630
REMARK  6 active torsions:
REMARK  status: ('A' for Active; 'I' for Inactive)
REMARK    1  A    between atoms: N_2  and  C_11
REMARK    2  A    between atoms: C_4  and  C_20
REMARK    3  A    between atoms: C_20  and  C_21
REMARK    4  A    between atoms: C_21  and  N_22
REMARK    5  A    between atoms: N_22  and  C_25
REMARK    6  A    between atoms: C_25  and  C_26
REMARK                            x       y       z     vdW  Elec       q    Type
REMARK                         _______ _______ _______ _____ _____    ______ ____
ROOT
ATOM      1  S   UNL     1      37.208 -26.616 -13.634  0.00  0.00    -0.018 S 
ATOM      2  N   UNL     1      36.288 -24.341 -14.983  0.00  0.00    -0.270 N 
ATOM      3  N   UNL     1      38.520 -24.627 -14.960  0.00  0.00    -0.294 N 
ATOM      4  C   UNL     1      36.901 -23.298 -15.674  0.00  0.00    +0.043 C 
ATOM      5  C   UNL     1      37.313 -25.213 -14.513  0.00  0.00    +0.142 C 
ATOM      6  C   UNL     1      38.231 -23.481 -15.652  0.00  0.00    +0.074 C 
ATOM      7  H   UNL     1      39.423 -24.984 -14.800  0.00  0.00    +0.154 HD
ENDROOT
BRANCH   2  11
ATOM      8  F   UNL     1      30.421 -24.116 -12.637  0.00  0.00    -0.201 F 
ATOM      9  F   UNL     1      29.470 -22.674 -17.039  0.00  0.00    -0.204 F 
ATOM     10  O   UNL     1      33.042 -24.271 -13.175  0.00  0.00    -0.472 OA
ATOM     11  C   UNL     1      34.864 -24.468 -14.805  0.00  0.00    +0.127 C 
ATOM     12  C   UNL     1      34.102 -23.644 -15.839  0.00  0.00    +0.054 C 
ATOM     13  C   UNL     1      34.433 -24.026 -13.410  0.00  0.00    +0.226 C 
ATOM     14  C   UNL     1      32.646 -23.561 -15.478  0.00  0.00    +0.018 C 
ATOM     15  C   UNL     1      32.207 -23.864 -14.183  0.00  0.00    +0.162 C 
ATOM     16  C   UNL     1      31.712 -23.149 -16.438  0.00  0.00    +0.029 C 
ATOM     17  C   UNL     1      30.848 -23.794 -13.865  0.00  0.00    +0.176 C 
ATOM     18  C   UNL     1      30.356 -23.068 -16.115  0.00  0.00    +0.142 C 
ATOM     19  C   UNL     1      29.925 -23.394 -14.831  0.00  0.00    +0.062 C 
ENDBRANCH   2  11
BRANCH   4  20
ATOM     20  C   UNL     1      36.140 -22.194 -16.307  0.00  0.00    +0.019 C 
BRANCH  20  21
ATOM     21  C   UNL     1      37.033 -21.341 -17.208  0.00  0.00    -0.075 C 
BRANCH  21  22
ATOM     22  N   UNL     1      36.840 -21.701 -18.608  0.00  0.00    +0.387 N 
ATOM     23  H   UNL     1      37.437 -22.497 -18.834  0.00  0.00    -0.084 HD
ATOM     24  H   UNL     1      37.084 -20.898 -19.188  0.00  0.00    -0.084 HD
BRANCH  22  25
ATOM     25  C   UNL     1      35.452 -22.057 -18.866  0.00  0.00    -0.054 C 
BRANCH  25  26
ATOM     26  C   UNL     1      34.767 -21.045 -19.744  0.00  0.00    -0.044 C 
ATOM     27  C   UNL     1      35.524 -20.210 -20.568  0.00  0.00    -0.006 C 
ATOM     28  C   UNL     1      33.376 -20.943 -19.738  0.00  0.00    -0.006 C 
ATOM     29  C   UNL     1      34.889 -19.273 -21.382  0.00  0.00    -0.000 C 
ATOM     30  C   UNL     1      32.742 -20.005 -20.554  0.00  0.00    -0.000 C 
ATOM     31  C   UNL     1      33.498 -19.170 -21.376  0.00  0.00    -0.000 C 
ENDBRANCH  25  26
ENDBRANCH  22  25
ENDBRANCH  21  22
ENDBRANCH  20  21
ENDBRANCH   4  20
TORSDOF 6
ENDMDL
MODEL 2
REMARK VINA RESULT:     -11.4      8.183     12.048
REMARK  Name = 25052630
REMARK  6 active torsions:
REMARK  status: ('A' for Active; 'I' for Inactive)
REMARK    1  A    between atoms: N_2  and  C_11
REMARK    2  A    between atoms: C_4  and  C_20
REMARK    3  A    between atoms: C_20  and  C_21
REMARK    4  A    between atoms: C_21  and  N_22
REMARK    5  A    between atoms: N_22  and  C_25
REMARK    6  A    between atoms: C_25  and  C_26
REMARK                            x       y       z     vdW  Elec       q    Type
REMARK                         _______ _______ _______ _____ _____    ______ ____
ROOT
ATOM      1  S   UNL     1      32.758 -14.342 -26.638  0.00  0.00    -0.018 S 
ATOM      2  N   UNL     1      33.894 -14.842 -24.128  0.00  0.00    -0.270 N 
ATOM      3  N   UNL     1      33.866 -16.585 -25.552  0.00  0.00    -0.294 N 
ATOM      4  C   UNL     1      34.471 -15.955 -23.519  0.00  0.00    +0.043 C 
ATOM      5  C   UNL     1      33.495 -15.225 -25.442  0.00  0.00    +0.142 C 
ATOM      6  C   UNL     1      34.448 -16.985 -24.379  0.00  0.00    +0.074 C 
ATOM      7  H   UNL     1      33.727 -17.153 -26.344  0.00  0.00    +0.154 HD
ENDROOT
BRANCH   2  11
ATOM      8  F   UNL     1      33.010  -8.676 -23.042  0.00  0.00    -0.201 F 
ATOM      9  F   UNL     1      30.315 -10.394 -19.557  0.00  0.00    -0.204 F 
ATOM     10  O   UNL     1      33.587 -11.145 -23.913  0.00  0.00    -0.472 OA
ATOM     11  C   UNL     1      33.750 -13.556 -23.496  0.00  0.00    +0.127 C 
ATOM     12  C   UNL     1      32.543 -13.532 -22.562  0.00  0.00    +0.054 C 
ATOM     13  C   UNL     1      33.598 -12.440 -24.523  0.00  0.00    +0.226 C 
ATOM     14  C   UNL     1      32.241 -12.126 -22.126  0.00  0.00    +0.018 C 
ATOM     15  C   UNL     1      32.764 -11.029 -22.823  0.00  0.00    +0.162 C 
ATOM     16  C   UNL     1      31.404 -11.901 -21.025  0.00  0.00    +0.029 C 
ATOM     17  C   UNL     1      32.484  -9.727 -22.399  0.00  0.00    +0.176 C 
ATOM     18  C   UNL     1      31.116 -10.599 -20.611  0.00  0.00    +0.142 C 
ATOM     19  C   UNL     1      31.659  -9.514 -21.295  0.00  0.00    +0.062 C 
ENDBRANCH   2  11
BRANCH   4  20
ATOM     20  C   UNL     1      35.006 -15.929 -22.136  0.00  0.00    +0.019 C 
BRANCH  20  21
ATOM     21  C   UNL     1      34.443 -17.075 -21.295  0.00  0.00    -0.075 C 
BRANCH  21  22
ATOM     22  N   UNL     1      35.518 -17.947 -20.834  0.00  0.00    +0.387 N 
ATOM     23  H   UNL     1      35.449 -18.053 -19.822  0.00  0.00    -0.084 HD
ATOM     24  H   UNL     1      36.411 -17.525 -21.088  0.00  0.00    -0.084 HD
BRANCH  22  25
ATOM     25  C   UNL     1      35.427 -19.258 -21.460  0.00  0.00    -0.054 C 
BRANCH  25  26
ATOM     26  C   UNL     1      34.957 -20.310 -20.491  0.00  0.00    -0.044 C 
ATOM     27  C   UNL     1      33.590 -20.519 -20.297  0.00  0.00    -0.006 C 
ATOM     28  C   UNL     1      35.886 -21.078 -19.790  0.00  0.00    -0.006 C 
ATOM     29  C   UNL     1      33.155 -21.495 -19.401  0.00  0.00    -0.000 C 
ATOM     30  C   UNL     1      35.449 -22.054 -18.893  0.00  0.00    -0.000 C 
ATOM     31  C   UNL     1      34.084 -22.262 -18.699  0.00  0.00    -0.000 C 
ENDBRANCH  25  26
ENDBRANCH  22  25
ENDBRANCH  21  22
ENDBRANCH  20  21
ENDBRANCH   4  20
TORSDOF 6
ENDMDL
MODEL 3
REMARK VINA RESULT:     -11.3      9.624     13.623
REMARK  Name = 25052630
REMARK  6 active torsions:
REMARK  status: ('A' for Active; 'I' for Inactive)
REMARK    1  A    between atoms: N_2  and  C_11
REMARK    2  A    between atoms: C_4  and  C_20
REMARK    3  A    between atoms: C_20  and  C_21
REMARK    4  A    between atoms: C_21  and  N_22
REMARK    5  A    between atoms: N_22  and  C_25
REMARK    6  A    between atoms: C_25  and  C_26
REMARK                            x       y       z     vdW  Elec       q    Type
REMARK                         _______ _______ _______ _____ _____    ______ ____
ROOT
ATOM      1  S   UNL     1      33.022 -12.865 -27.078  0.00  0.00    -0.018 S 
ATOM      2  N   UNL     1      33.777 -13.391 -24.434  0.00  0.00    -0.270 N 
ATOM      3  N   UNL     1      33.298 -15.196 -25.690  0.00  0.00    -0.294 N 
ATOM      4  C   UNL     1      33.935 -14.548 -23.673  0.00  0.00    +0.043 C 
ATOM      5  C   UNL     1      33.366 -13.785 -25.741  0.00  0.00    +0.142 C 
ATOM      6  C   UNL     1      33.647 -15.615 -24.433  0.00  0.00    +0.074 C 
ATOM      7  H   UNL     1      33.041 -15.783 -26.437  0.00  0.00    +0.154 HD
ENDROOT
BRANCH   2  11
ATOM      8  F   UNL     1      35.184  -7.245 -23.966  0.00  0.00    -0.201 F 
ATOM      9  F   UNL     1      31.233  -7.258 -21.369  0.00  0.00    -0.204 F 
ATOM     10  O   UNL     1      34.929  -9.859 -24.502  0.00  0.00    -0.472 OA
ATOM     11  C   UNL     1      34.002 -12.058 -23.937  0.00  0.00    +0.127 C 
ATOM     12  C   UNL     1      32.709 -11.440 -23.410  0.00  0.00    +0.054 C 
ATOM     13  C   UNL     1      34.577 -11.148 -25.017  0.00  0.00    +0.226 C 
ATOM     14  C   UNL     1      32.894  -9.971 -23.155  0.00  0.00    +0.018 C 
ATOM     15  C   UNL     1      33.971  -9.272 -23.716  0.00  0.00    +0.162 C 
ATOM     16  C   UNL     1      31.965  -9.277 -22.367  0.00  0.00    +0.029 C 
ATOM     17  C   UNL     1      34.136  -7.908 -23.459  0.00  0.00    +0.176 C 
ATOM     18  C   UNL     1      32.126  -7.912 -22.123  0.00  0.00    +0.142 C 
ATOM     19  C   UNL     1      33.213  -7.230 -22.665  0.00  0.00    +0.062 C 
ENDBRANCH   2  11
BRANCH   4  20
ATOM     20  C   UNL     1      34.360 -14.526 -22.251  0.00  0.00    +0.019 C 
BRANCH  20  21
ATOM     21  C   UNL     1      33.847 -15.750 -21.493  0.00  0.00    -0.075 C 
BRANCH  21  22
ATOM     22  N   UNL     1      34.953 -16.631 -21.136  0.00  0.00    +0.387 N 
ATOM     23  H   UNL     1      34.862 -16.900 -20.157  0.00  0.00    -0.084 HD
ATOM     24  H   UNL     1      35.829 -16.133 -21.290  0.00  0.00    -0.084 HD
BRANCH  22  25
ATOM     25  C   UNL     1      34.948 -17.830 -21.962  0.00  0.00    -0.054 C 
BRANCH  25  26
ATOM     26  C   UNL     1      34.686 -19.070 -21.150  0.00  0.00    -0.044 C 
ATOM     27  C   UNL     1      33.375 -19.447 -20.854  0.00  0.00    -0.006 C 
ATOM     28  C   UNL     1      35.754 -19.843 -20.695  0.00  0.00    -0.006 C 
ATOM     29  C   UNL     1      33.133 -20.596 -20.102  0.00  0.00    -0.000 C 
ATOM     30  C   UNL     1      35.511 -20.993 -19.942  0.00  0.00    -0.000 C 
ATOM     31  C   UNL     1      34.200 -21.369 -19.646  0.00  0.00    -0.000 C 
ENDBRANCH  25  26
ENDBRANCH  22  25
ENDBRANCH  21  22
ENDBRANCH  20  21
ENDBRANCH   4  20
TORSDOF 6
ENDMDL
MODEL 4
REMARK VINA RESULT:     -11.0      8.257     12.133
REMARK  Name = 25052630
REMARK  6 active torsions:
REMARK  status: ('A' for Active; 'I' for Inactive)
REMARK    1  A    between atoms: N_2  and  C_11
REMARK    2  A    between atoms: C_4  and  C_20
REMARK    3  A    between atoms: C_20  and  C_21
REMARK    4  A    between atoms: C_21  and  N_22
REMARK    5  A    between atoms: N_22  and  C_25
REMARK    6  A    between atoms: C_25  and  C_26
REMARK                            x       y       z     vdW  Elec       q    Type
REMARK                         _______ _______ _______ _____ _____    ______ ____
ROOT
ATOM      1  S   UNL     1      32.742 -14.563 -26.890  0.00  0.00    -0.018 S 
ATOM      2  N   UNL     1      33.436 -14.736 -24.182  0.00  0.00    -0.270 N 
ATOM      3  N   UNL     1      34.299 -16.331 -25.515  0.00  0.00    -0.294 N 
ATOM      4  C   UNL     1      34.219 -15.605 -23.426  0.00  0.00    +0.043 C 
ATOM      5  C   UNL     1      33.472 -15.184 -25.535  0.00  0.00    +0.142 C 
ATOM      6  C   UNL     1      34.727 -16.551 -24.232  0.00  0.00    +0.074 C 
ATOM      7  H   UNL     1      34.529 -16.883 -26.296  0.00  0.00    +0.154 HD
ENDROOT
BRANCH   2  11
ATOM      8  F   UNL     1      30.628 -10.632 -20.277  0.00  0.00    -0.201 F 
ATOM      9  F   UNL     1      33.042  -7.543 -22.920  0.00  0.00    -0.204 F 
ATOM     10  O   UNL     1      31.659 -12.705 -21.627  0.00  0.00    -0.472 OA
ATOM     11  C   UNL     1      32.734 -13.600 -23.642  0.00  0.00    +0.127 C 
ATOM     12  C   UNL     1      33.518 -12.309 -23.864  0.00  0.00    +0.054 C 
ATOM     13  C   UNL     1      32.470 -13.763 -22.149  0.00  0.00    +0.226 C 
ATOM     14  C   UNL     1      32.922 -11.186 -23.064  0.00  0.00    +0.018 C 
ATOM     15  C   UNL     1      32.047 -11.445 -22.000  0.00  0.00    +0.162 C 
ATOM     16  C   UNL     1      33.260  -9.860 -23.363  0.00  0.00    +0.029 C 
ATOM     17  C   UNL     1      31.491 -10.389 -21.273  0.00  0.00    +0.176 C 
ATOM     18  C   UNL     1      32.712  -8.808 -22.627  0.00  0.00    +0.142 C 
ATOM     19  C   UNL     1      31.825  -9.072 -21.586  0.00  0.00    +0.062 C 
ENDBRANCH   2  11
BRANCH   4  20
ATOM     20  C   UNL     1      34.415 -15.449 -21.964  0.00  0.00    +0.019 C 
BRANCH  20  21
ATOM     21  C   UNL     1      34.085 -16.738 -21.212  0.00  0.00    -0.075 C 
BRANCH  21  22
ATOM     22  N   UNL     1      35.305 -17.464 -20.881  0.00  0.00    +0.387 N 
ATOM     23  H   UNL     1      35.323 -17.646 -19.878  0.00  0.00    -0.084 HD
ATOM     24  H   UNL     1      36.107 -16.896 -21.154  0.00  0.00    -0.084 HD
BRANCH  22  25
ATOM     25  C   UNL     1      35.366 -18.730 -21.597  0.00  0.00    -0.054 C 
BRANCH  25  26
ATOM     26  C   UNL     1      35.065 -19.899 -20.697  0.00  0.00    -0.044 C 
ATOM     27  C   UNL     1      36.108 -20.597 -20.087  0.00  0.00    -0.006 C 
ATOM     28  C   UNL     1      33.743 -20.282 -20.470  0.00  0.00    -0.006 C 
ATOM     29  C   UNL     1      35.829 -21.679 -19.253  0.00  0.00    -0.000 C 
ATOM     30  C   UNL     1      33.465 -21.365 -19.635  0.00  0.00    -0.000 C 
ATOM     31  C   UNL     1      34.508 -22.063 -19.026  0.00  0.00    -0.000 C 
ENDBRANCH  25  26
ENDBRANCH  22  25
ENDBRANCH  21  22
ENDBRANCH  20  21
ENDBRANCH   4  20
TORSDOF 6
ENDMDL
MODEL 5
REMARK VINA RESULT:     -11.0      9.251     13.290
REMARK  Name = 25052630
REMARK  6 active torsions:
REMARK  status: ('A' for Active; 'I' for Inactive)
REMARK    1  A    between atoms: N_2  and  C_11
REMARK    2  A    between atoms: C_4  and  C_20
REMARK    3  A    between atoms: C_20  and  C_21
REMARK    4  A    between atoms: C_21  and  N_22
REMARK    5  A    between atoms: N_22  and  C_25
REMARK    6  A    between atoms: C_25  and  C_26
REMARK                            x       y       z     vdW  Elec       q    Type
REMARK                         _______ _______ _______ _____ _____    ______ ____
ROOT
ATOM      1  S   UNL     1      32.879 -13.674 -27.424  0.00  0.00    -0.018 S 
ATOM      2  N   UNL     1      33.356 -13.792 -24.667  0.00  0.00    -0.270 N 
ATOM      3  N   UNL     1      33.728 -15.698 -25.805  0.00  0.00    -0.294 N 
ATOM      4  C   UNL     1      33.786 -14.786 -23.790  0.00  0.00    +0.043 C 
ATOM      5  C   UNL     1      33.311 -14.358 -25.975  0.00  0.00    +0.142 C 
ATOM      6  C   UNL     1      34.004 -15.915 -24.481  0.00  0.00    +0.074 C 
ATOM      7  H   UNL     1      33.807 -16.367 -26.522  0.00  0.00    +0.154 HD
ENDROOT
BRANCH   2  11
ATOM      8  F   UNL     1      31.748  -8.674 -21.321  0.00  0.00    -0.201 F 
ATOM      9  F   UNL     1      35.258  -6.777 -23.859  0.00  0.00    -0.204 F 
ATOM     10  O   UNL     1      32.144 -11.080 -22.434  0.00  0.00    -0.472 OA
ATOM     11  C   UNL     1      33.027 -12.448 -24.269  0.00  0.00    +0.127 C 
ATOM     12  C   UNL     1      34.209 -11.505 -24.478  0.00  0.00    +0.054 C 
ATOM     13  C   UNL     1      32.600 -12.385 -22.806  0.00  0.00    +0.226 C 
ATOM     14  C   UNL     1      33.953 -10.183 -23.810  0.00  0.00    +0.018 C 
ATOM     15  C   UNL     1      32.957 -10.051 -22.833  0.00  0.00    +0.162 C 
ATOM     16  C   UNL     1      34.734  -9.069 -24.145  0.00  0.00    +0.029 C 
ATOM     17  C   UNL     1      32.722  -8.812 -22.230  0.00  0.00    +0.176 C 
ATOM     18  C   UNL     1      34.506  -7.836 -23.532  0.00  0.00    +0.142 C 
ATOM     19  C   UNL     1      33.498  -7.707 -22.579  0.00  0.00    +0.062 C 
ENDBRANCH   2  11
BRANCH   4  20
ATOM     20  C   UNL     1      33.954 -14.558 -22.334  0.00  0.00    +0.019 C 
BRANCH  20  21
ATOM     21  C   UNL     1      33.543 -15.786 -21.523  0.00  0.00    -0.075 C 
BRANCH  21  22
ATOM     22  N   UNL     1      34.715 -16.427 -20.936  0.00  0.00    +0.387 N 
ATOM     23  H   UNL     1      34.487 -16.739 -19.992  0.00  0.00    -0.084 HD
ATOM     24  H   UNL     1      35.478 -15.752 -20.913  0.00  0.00    -0.084 HD
BRANCH  22  25
ATOM     25  C   UNL     1      35.131 -17.574 -21.731  0.00  0.00    -0.054 C 
BRANCH  25  26
ATOM     26  C   UNL     1      34.792 -18.877 -21.056  0.00  0.00    -0.044 C 
ATOM     27  C   UNL     1      33.457 -19.233 -20.859  0.00  0.00    -0.006 C 
ATOM     28  C   UNL     1      35.811 -19.728 -20.632  0.00  0.00    -0.006 C 
ATOM     29  C   UNL     1      33.143 -20.440 -20.235  0.00  0.00    -0.000 C 
ATOM     30  C   UNL     1      35.496 -20.936 -20.008  0.00  0.00    -0.000 C 
ATOM     31  C   UNL     1      34.162 -21.291 -19.810  0.00  0.00    -0.000 C 
ENDBRANCH  25  26
ENDBRANCH  22  25
ENDBRANCH  21  22
ENDBRANCH  20  21
ENDBRANCH   4  20
TORSDOF 6
ENDMDL
MODEL 6
REMARK VINA RESULT:     -10.9      6.030      8.949
REMARK  Name = 25052630
REMARK  6 active torsions:
REMARK  status: ('A' for Active; 'I' for Inactive)
REMARK    1  A    between atoms: N_2  and  C_11
REMARK    2  A    between atoms: C_4  and  C_20
REMARK    3  A    between atoms: C_20  and  C_21
REMARK    4  A    between atoms: C_21  and  N_22
REMARK    5  A    between atoms: N_22  and  C_25
REMARK    6  A    between atoms: C_25  and  C_26
REMARK                            x       y       z     vdW  Elec       q    Type
REMARK                         _______ _______ _______ _____ _____    ______ ____
ROOT
ATOM      1  S   UNL     1      34.578 -19.279 -25.455  0.00  0.00    -0.018 S 
ATOM      2  N   UNL     1      34.777 -18.056 -22.944  0.00  0.00    -0.270 N 
ATOM      3  N   UNL     1      34.374 -16.674 -24.674  0.00  0.00    -0.294 N 
ATOM      4  C   UNL     1      34.683 -16.744 -22.484  0.00  0.00    +0.043 C 
ATOM      5  C   UNL     1      34.580 -18.036 -24.356  0.00  0.00    +0.142 C 
ATOM      6  C   UNL     1      34.443 -15.932 -23.525  0.00  0.00    +0.074 C 
ATOM      7  H   UNL     1      34.208 -16.317 -25.576  0.00  0.00    +0.154 HD
ENDROOT
BRANCH   2  11
ATOM      8  F   UNL     1      37.083 -21.933 -18.514  0.00  0.00    -0.201 F 
ATOM      9  F   UNL     1      32.484 -22.862 -17.931  0.00  0.00    -0.204 F 
ATOM     10  O   UNL     1      36.551 -20.113 -20.408  0.00  0.00    -0.472 OA
ATOM     11  C   UNL     1      35.030 -19.194 -22.099  0.00  0.00    +0.127 C 
ATOM     12  C   UNL     1      33.801 -19.548 -21.265  0.00  0.00    +0.054 C 
ATOM     13  C   UNL     1      36.205 -18.944 -21.159  0.00  0.00    +0.226 C 
ATOM     14  C   UNL     1      34.156 -20.546 -20.200  0.00  0.00    +0.018 C 
ATOM     15  C   UNL     1      35.491 -20.760 -19.830  0.00  0.00    +0.162 C 
ATOM     16  C   UNL     1      33.143 -21.257 -19.544  0.00  0.00    +0.029 C 
ATOM     17  C   UNL     1      35.806 -21.701 -18.846  0.00  0.00    +0.176 C 
ATOM     18  C   UNL     1      33.460 -22.187 -18.553  0.00  0.00    +0.142 C 
ATOM     19  C   UNL     1      34.791 -22.412 -18.207  0.00  0.00    +0.062 C 
ENDBRANCH   2  11
BRANCH   4  20
ATOM     20  C   UNL     1      34.835 -16.378 -21.055  0.00  0.00    +0.019 C 
BRANCH  20  21
ATOM     21  C   UNL     1      34.470 -14.915 -20.808  0.00  0.00    -0.075 C 
BRANCH  21  22
ATOM     22  N   UNL     1      33.062 -14.792 -20.449  0.00  0.00    +0.387 N 
ATOM     23  H   UNL     1      32.983 -14.248 -19.589  0.00  0.00    -0.084 HD
ATOM     24  H   UNL     1      32.677 -15.727 -20.315  0.00  0.00    -0.084 HD
BRANCH  22  25
ATOM     25  C   UNL     1      32.313 -14.127 -21.505  0.00  0.00    -0.054 C 
BRANCH  25  26
ATOM     26  C   UNL     1      32.026 -12.688 -21.169  0.00  0.00    -0.044 C 
ATOM     27  C   UNL     1      31.885 -12.298 -19.836  0.00  0.00    -0.006 C 
ATOM     28  C   UNL     1      31.904 -11.745 -22.188  0.00  0.00    -0.006 C 
ATOM     29  C   UNL     1      31.620 -10.965 -19.525  0.00  0.00    -0.000 C 
ATOM     30  C   UNL     1      31.639 -10.410 -21.876  0.00  0.00    -0.000 C 
ATOM     31  C   UNL     1      31.497 -10.021 -20.544  0.00  0.00    -0.000 C 
ENDBRANCH  25  26
ENDBRANCH  22  25
ENDBRANCH  21  22
ENDBRANCH  20  21
ENDBRANCH   4  20
TORSDOF 6
ENDMDL
MODEL 7
REMARK VINA RESULT:     -10.8      6.284      9.255
REMARK  Name = 25052630
REMARK  6 active torsions:
REMARK  status: ('A' for Active; 'I' for Inactive)
REMARK    1  A    between atoms: N_2  and  C_11
REMARK    2  A    between atoms: C_4  and  C_20
REMARK    3  A    between atoms: C_20  and  C_21
REMARK    4  A    between atoms: C_21  and  N_22
REMARK    5  A    between atoms: N_22  and  C_25
REMARK    6  A    between atoms: C_25  and  C_26
REMARK                            x       y       z     vdW  Elec       q    Type
REMARK                         _______ _______ _______ _____ _____    ______ ____
ROOT
ATOM      1  S   UNL     1      34.947 -19.513 -24.627  0.00  0.00    -0.018 S 
ATOM      2  N   UNL     1      34.680 -17.650 -22.554  0.00  0.00    -0.270 N 
ATOM      3  N   UNL     1      35.004 -16.787 -24.607  0.00  0.00    -0.294 N 
ATOM      4  C   UNL     1      34.699 -16.259 -22.480  0.00  0.00    +0.043 C 
ATOM      5  C   UNL     1      34.874 -18.015 -23.918  0.00  0.00    +0.142 C 
ATOM      6  C   UNL     1      34.893 -15.758 -23.710  0.00  0.00    +0.074 C 
ATOM      7  H   UNL     1      35.150 -16.687 -25.575  0.00  0.00    +0.154 HD
ENDROOT
BRANCH   2  11
ATOM      8  F   UNL     1      32.780 -22.308 -18.724  0.00  0.00    -0.201 F 
ATOM      9  F   UNL     1      37.392 -22.385 -17.685  0.00  0.00    -0.204 F 
ATOM     10  O   UNL     1      33.145 -20.366 -20.535  0.00  0.00    -0.472 OA
ATOM     11  C   UNL     1      34.493 -18.519 -21.420  0.00  0.00    +0.127 C 
ATOM     12  C   UNL     1      35.797 -19.213 -21.036  0.00  0.00    +0.054 C 
ATOM     13  C   UNL     1      33.434 -19.581 -21.696  0.00  0.00    +0.226 C 
ATOM     14  C   UNL     1      35.537 -20.312 -20.045  0.00  0.00    +0.018 C 
ATOM     15  C   UNL     1      34.246 -20.825 -19.861  0.00  0.00    +0.162 C 
ATOM     16  C   UNL     1      36.599 -20.853 -19.308  0.00  0.00    +0.029 C 
ATOM     17  C   UNL     1      34.018 -21.839 -18.926  0.00  0.00    +0.176 C 
ATOM     18  C   UNL     1      36.370 -21.874 -18.384  0.00  0.00    +0.142 C 
ATOM     19  C   UNL     1      35.080 -22.363 -18.190  0.00  0.00    +0.062 C 
ENDBRANCH   2  11
BRANCH   4  20
ATOM     20  C   UNL     1      34.526 -15.517 -21.207  0.00  0.00    +0.019 C 
BRANCH  20  21
ATOM     21  C   UNL     1      33.972 -14.113 -21.447  0.00  0.00    -0.075 C 
BRANCH  21  22
ATOM     22  N   UNL     1      32.513 -14.133 -21.455  0.00  0.00    +0.387 N 
ATOM     23  H   UNL     1      32.174 -14.089 -20.494  0.00  0.00    -0.084 HD
ATOM     24  H   UNL     1      32.202 -14.994 -21.904  0.00  0.00    -0.084 HD
BRANCH  22  25
ATOM     25  C   UNL     1      31.983 -13.001 -22.201  0.00  0.00    -0.054 C 
BRANCH  25  26
ATOM     26  C   UNL     1      31.875 -11.766 -21.346  0.00  0.00    -0.044 C 
ATOM     27  C   UNL     1      31.969 -10.502 -21.931  0.00  0.00    -0.006 C 
ATOM     28  C   UNL     1      31.679 -11.886 -19.971  0.00  0.00    -0.006 C 
ATOM     29  C   UNL     1      31.868  -9.359 -21.139  0.00  0.00    -0.000 C 
ATOM     30  C   UNL     1      31.578 -10.741 -19.179  0.00  0.00    -0.000 C 
ATOM     31  C   UNL     1      31.673  -9.478 -19.763  0.00  0.00    -0.000 C 
ENDBRANCH  25  26
ENDBRANCH  22  25
ENDBRANCH  21  22
ENDBRANCH  20  21
ENDBRANCH   4  20
TORSDOF 6
ENDMDL
MODEL 8
REMARK VINA RESULT:     -10.2     12.540     16.510
REMARK  Name = 25052630
REMARK  6 active torsions:
REMARK  status: ('A' for Active; 'I' for Inactive)
REMARK    1  A    between atoms: N_2  and  C_11
REMARK    2  A    between atoms: C_4  and  C_20
REMARK    3  A    between atoms: C_20  and  C_21
REMARK    4  A    between atoms: C_21  and  N_22
REMARK    5  A    between atoms: N_22  and  C_25
REMARK    6  A    between atoms: C_25  and  C_26
REMARK                            x       y       z     vdW  Elec       q    Type
REMARK                         _______ _______ _______ _____ _____    ______ ____
ROOT
ATOM      1  S   UNL     1      32.585  -6.665 -19.646  0.00  0.00    -0.018 S 
ATOM      2  N   UNL     1      31.986  -8.714 -21.458  0.00  0.00    -0.270 N 
ATOM      3  N   UNL     1      32.104  -9.326 -19.296  0.00  0.00    -0.294 N 
ATOM      4  C   UNL     1      31.732 -10.079 -21.343  0.00  0.00    +0.043 C 
ATOM      5  C   UNL     1      32.229  -8.206 -20.149  0.00  0.00    +0.142 C 
ATOM      6  C   UNL     1      31.805 -10.430 -20.050  0.00  0.00    +0.074 C 
ATOM      7  H   UNL     1      32.215  -9.316 -18.318  0.00  0.00    +0.154 HD
ENDROOT
BRANCH   2  11
ATOM      8  F   UNL     1      31.168  -4.325 -25.936  0.00  0.00    -0.201 F 
ATOM      9  F   UNL     1      35.654  -5.474 -26.893  0.00  0.00    -0.204 F 
ATOM     10  O   UNL     1      31.097  -6.025 -23.865  0.00  0.00    -0.472 OA
ATOM     11  C   UNL     1      31.990  -7.993 -22.705  0.00  0.00    +0.127 C 
ATOM     12  C   UNL     1      33.414  -7.684 -23.160  0.00  0.00    +0.054 C 
ATOM     13  C   UNL     1      31.213  -6.685 -22.600  0.00  0.00    +0.226 C 
ATOM     14  C   UNL     1      33.402  -6.705 -24.300  0.00  0.00    +0.018 C 
ATOM     15  C   UNL     1      32.265  -5.935 -24.576  0.00  0.00    +0.162 C 
ATOM     16  C   UNL     1      34.550  -6.535 -25.086  0.00  0.00    +0.029 C 
ATOM     17  C   UNL     1      32.265  -5.038 -25.648  0.00  0.00    +0.176 C 
ATOM     18  C   UNL     1      34.551  -5.629 -26.147  0.00  0.00    +0.142 C 
ATOM     19  C   UNL     1      33.409  -4.885 -26.431  0.00  0.00    +0.062 C 
ENDBRANCH   2  11
BRANCH   4  20
ATOM     20  C   UNL     1      31.433 -10.945 -22.510  0.00  0.00    +0.019 C 
BRANCH  20  21
ATOM     21  C   UNL     1      32.709 -11.529 -23.117  0.00  0.00    -0.075 C 
BRANCH  21  22
ATOM     22  N   UNL     1      32.613 -12.981 -23.209  0.00  0.00    +0.387 N 
ATOM     23  H   UNL     1      31.888 -13.225 -23.883  0.00  0.00    -0.084 HD
ATOM     24  H   UNL     1      32.381 -13.351 -22.287  0.00  0.00    -0.084 HD
BRANCH  22  25
ATOM     25  C   UNL     1      33.879 -13.558 -23.638  0.00  0.00    -0.054 C 
BRANCH  25  26
ATOM     26  C   UNL     1      34.282 -14.727 -22.779  0.00  0.00    -0.044 C 
ATOM     27  C   UNL     1      34.113 -14.667 -21.395  0.00  0.00    -0.006 C 
ATOM     28  C   UNL     1      34.823 -15.870 -23.367  0.00  0.00    -0.006 C 
ATOM     29  C   UNL     1      34.486 -15.750 -20.600  0.00  0.00    -0.000 C 
ATOM     30  C   UNL     1      35.196 -16.954 -22.570  0.00  0.00    -0.000 C 
ATOM     31  C   UNL     1      35.027 -16.893 -21.187  0.00  0.00    -0.000 C 
ENDBRANCH  25  26
ENDBRANCH  22  25
ENDBRANCH  21  22
ENDBRANCH  20  21
ENDBRANCH   4  20
TORSDOF 6
ENDMDL
MODEL 9
REMARK VINA RESULT:     -10.0      1.476      2.144
REMARK  Name = 25052630
REMARK  6 active torsions:
REMARK  status: ('A' for Active; 'I' for Inactive)
REMARK    1  A    between atoms: N_2  and  C_11
REMARK    2  A    between atoms: C_4  and  C_20
REMARK    3  A    between atoms: C_20  and  C_21
REMARK    4  A    between atoms: C_21  and  N_22
REMARK    5  A    between atoms: N_22  and  C_25
REMARK    6  A    between atoms: C_25  and  C_26
REMARK                            x       y       z     vdW  Elec       q    Type
REMARK                         _______ _______ _______ _____ _____    ______ ____
ROOT
ATOM      1  S   UNL     1      35.335 -24.527 -11.481  0.00  0.00    -0.018 S 
ATOM      2  N   UNL     1      35.599 -23.654 -14.128  0.00  0.00    -0.270 N 
ATOM      3  N   UNL     1      37.510 -24.256 -13.104  0.00  0.00    -0.294 N 
ATOM      4  C   UNL     1      36.672 -23.495 -15.004  0.00  0.00    +0.043 C 
ATOM      5  C   UNL     1      36.116 -24.146 -12.894  0.00  0.00    +0.142 C 
ATOM      6  C   UNL     1      37.804 -23.857 -14.380  0.00  0.00    +0.074 C 
ATOM      7  H   UNL     1      38.165 -24.570 -12.438  0.00  0.00    +0.154 HD
ENDROOT
BRANCH   2  11
ATOM      8  F   UNL     1      30.245 -22.427 -17.259  0.00  0.00    -0.201 F 
ATOM      9  F   UNL     1      28.530 -25.525 -14.126  0.00  0.00    -0.204 F 
ATOM     10  O   UNL     1      32.728 -22.710 -16.290  0.00  0.00    -0.472 OA
ATOM     11  C   UNL     1      34.230 -23.359 -14.463  0.00  0.00    +0.127 C 
ATOM     12  C   UNL     1      33.298 -24.485 -14.023  0.00  0.00    +0.054 C 
ATOM     13  C   UNL     1      34.055 -23.134 -15.961  0.00  0.00    +0.226 C 
ATOM     14  C   UNL     1      31.930 -24.299 -14.615  0.00  0.00    +0.018 C 
ATOM     15  C   UNL     1      31.728 -23.443 -15.706  0.00  0.00    +0.162 C 
ATOM     16  C   UNL     1      30.841 -25.007 -14.092  0.00  0.00    +0.029 C 
ATOM     17  C   UNL     1      30.447 -23.271 -16.238  0.00  0.00    +0.176 C 
ATOM     18  C   UNL     1      29.565 -24.843 -14.633  0.00  0.00    +0.142 C 
ATOM     19  C   UNL     1      29.368 -23.972 -15.702  0.00  0.00    +0.062 C 
ENDBRANCH   2  11
BRANCH   4  20
ATOM     20  C   UNL     1      36.512 -22.998 -16.393  0.00  0.00    +0.019 C 
BRANCH  20  21
ATOM     21  C   UNL     1      37.447 -21.825 -16.680  0.00  0.00    -0.075 C 
BRANCH  21  22
ATOM     22  N   UNL     1      36.871 -20.947 -17.693  0.00  0.00    +0.387 N 
ATOM     23  H   UNL     1      37.552 -20.230 -17.940  0.00  0.00    -0.084 HD
ATOM     24  H   UNL     1      36.027 -20.521 -17.312  0.00  0.00    -0.084 HD
BRANCH  22  25
ATOM     25  C   UNL     1      36.515 -21.698 -18.888  0.00  0.00    -0.054 C 
BRANCH  25  26
ATOM     26  C   UNL     1      35.422 -21.021 -19.672  0.00  0.00    -0.044 C 
ATOM     27  C   UNL     1      35.744 -20.052 -20.623  0.00  0.00    -0.006 C 
ATOM     28  C   UNL     1      34.089 -21.364 -19.448  0.00  0.00    -0.006 C 
ATOM     29  C   UNL     1      34.732 -19.426 -21.350  0.00  0.00    -0.000 C 
ATOM     30  C   UNL     1      33.077 -20.736 -20.176  0.00  0.00    -0.000 C 
ATOM     31  C   UNL     1      33.399 -19.767 -21.126  0.00  0.00    -0.000 C 
ENDBRANCH  25  26
ENDBRANCH  22  25
ENDBRANCH  21  22
ENDBRANCH  20  21
ENDBRANCH   4  20
TORSDOF 6
ENDMDL
