MODEL 1
REMARK VINA RESULT:      -4.3      0.000      0.000
REMARK  Name = 1117
REMARK  0 active torsions:
REMARK  status: ('A' for Active; 'I' for Inactive)
REMARK                            x       y       z     vdW  Elec       q    Type
REMARK                         _______ _______ _______ _____ _____    ______ ____
ROOT
ATOM      1  S   UNL     1      40.417 -26.063 -14.597  0.00  0.00    +0.267 S 
ATOM      2  O   UNL     1      40.573 -24.697 -14.062  0.00  0.00    -0.113 OA
ATOM      3  O   UNL     1      41.395 -26.957 -13.951  0.00  0.00    -0.020 OA
ATOM      4  O   UNL     1      39.053 -26.546 -14.322  0.00  0.00    -0.113 OA
ATOM      5  O   UNL     1      40.650 -26.050 -16.053  0.00  0.00    -0.020 OA
ENDROOT
TORSDOF 0
ENDMDL
MODEL 2
REMARK VINA RESULT:      -4.3      0.005      2.153
REMARK  Name = 1117
REMARK  0 active torsions:
REMARK  status: ('A' for Active; 'I' for Inactive)
REMARK                            x       y       z     vdW  Elec       q    Type
REMARK                         _______ _______ _______ _____ _____    ______ ____
ROOT
ATOM      1  S   UNL     1      40.419 -26.066 -14.596  0.00  0.00    +0.267 S 
ATOM      2  O   UNL     1      39.054 -26.552 -14.321  0.00  0.00    -0.113 OA
ATOM      3  O   UNL     1      40.651 -26.050 -16.051  0.00  0.00    -0.020 OA
ATOM      4  O   UNL     1      40.572 -24.702 -14.058  0.00  0.00    -0.113 OA
ATOM      5  O   UNL     1      41.398 -26.960 -13.951  0.00  0.00    -0.020 OA
ENDROOT
TORSDOF 0
ENDMDL
MODEL 3
REMARK VINA RESULT:      -4.3      0.065      1.865
REMARK  Name = 1117
REMARK  0 active torsions:
REMARK  status: ('A' for Active; 'I' for Inactive)
REMARK                            x       y       z     vdW  Elec       q    Type
REMARK                         _______ _______ _______ _____ _____    ______ ____
ROOT
ATOM      1  S   UNL     1      40.386 -26.068 -14.557  0.00  0.00    +0.267 S 
ATOM      2  O   UNL     1      40.662 -26.080 -16.006  0.00  0.00    -0.113 OA
ATOM      3  O   UNL     1      41.328 -26.972 -13.871  0.00  0.00    -0.020 OA
ATOM      4  O   UNL     1      40.550 -24.700 -14.036  0.00  0.00    -0.113 OA
ATOM      5  O   UNL     1      39.005 -26.524 -14.317  0.00  0.00    -0.020 OA
ENDROOT
TORSDOF 0
ENDMDL
MODEL 4
REMARK VINA RESULT:      -4.3     12.897     13.849
REMARK  Name = 1117
REMARK  0 active torsions:
REMARK  status: ('A' for Active; 'I' for Inactive)
REMARK                            x       y       z     vdW  Elec       q    Type
REMARK                         _______ _______ _______ _____ _____    ______ ____
ROOT
ATOM      1  S   UNL     1      27.469 -22.358 -17.008  0.00  0.00    +0.267 S 
ATOM      2  O   UNL     1      26.876 -22.602 -15.680  0.00  0.00    -0.113 OA
ATOM      3  O   UNL     1      26.744 -21.262 -17.676  0.00  0.00    -0.020 OA
ATOM      4  O   UNL     1      28.887 -21.987 -16.853  0.00  0.00    -0.113 OA
ATOM      5  O   UNL     1      27.368 -23.582 -17.824  0.00  0.00    -0.020 OA
ENDROOT
TORSDOF 0
ENDMDL
MODEL 5
REMARK VINA RESULT:      -4.3     12.898     13.849
REMARK  Name = 1117
REMARK  0 active torsions:
REMARK  status: ('A' for Active; 'I' for Inactive)
REMARK                            x       y       z     vdW  Elec       q    Type
REMARK                         _______ _______ _______ _____ _____    ______ ____
ROOT
ATOM      1  S   UNL     1      27.467 -22.359 -17.005  0.00  0.00    +0.267 S 
ATOM      2  O   UNL     1      26.744 -21.267 -17.683  0.00  0.00    -0.113 OA
ATOM      3  O   UNL     1      27.368 -23.589 -17.813  0.00  0.00    -0.020 OA
ATOM      4  O   UNL     1      28.884 -21.987 -16.847  0.00  0.00    -0.113 OA
ATOM      5  O   UNL     1      26.869 -22.594 -15.678  0.00  0.00    -0.020 OA
ENDROOT
TORSDOF 0
ENDMDL
MODEL 6
REMARK VINA RESULT:      -4.2     12.514     13.387
REMARK  Name = 1117
REMARK  0 active torsions:
REMARK  status: ('A' for Active; 'I' for Inactive)
REMARK                            x       y       z     vdW  Elec       q    Type
REMARK                         _______ _______ _______ _____ _____    ______ ____
ROOT
ATOM      1  S   UNL     1      27.793 -22.573 -16.928  0.00  0.00    +0.267 S 
ATOM      2  O   UNL     1      27.036 -21.424 -17.457  0.00  0.00    -0.113 OA
ATOM      3  O   UNL     1      27.404 -22.815 -15.526  0.00  0.00    -0.020 OA
ATOM      4  O   UNL     1      27.497 -23.771 -17.734  0.00  0.00    -0.113 OA
ATOM      5  O   UNL     1      29.237 -22.282 -16.992  0.00  0.00    -0.020 OA
ENDROOT
TORSDOF 0
ENDMDL
MODEL 7
REMARK VINA RESULT:      -4.2      0.198      2.153
REMARK  Name = 1117
REMARK  0 active torsions:
REMARK  status: ('A' for Active; 'I' for Inactive)
REMARK                            x       y       z     vdW  Elec       q    Type
REMARK                         _______ _______ _______ _____ _____    ______ ____
ROOT
ATOM      1  S   UNL     1      40.308 -26.060 -14.588  0.00  0.00    +0.267 S 
ATOM      2  O   UNL     1      40.620 -25.925 -16.023  0.00  0.00    -0.113 OA
ATOM      3  O   UNL     1      39.002 -26.726 -14.429  0.00  0.00    -0.020 OA
ATOM      4  O   UNL     1      41.354 -26.866 -13.932  0.00  0.00    -0.113 OA
ATOM      5  O   UNL     1      40.256 -24.724 -13.968  0.00  0.00    -0.020 OA
ENDROOT
TORSDOF 0
ENDMDL
MODEL 8
REMARK VINA RESULT:      -4.2      0.198      2.153
REMARK  Name = 1117
REMARK  0 active torsions:
REMARK  status: ('A' for Active; 'I' for Inactive)
REMARK                            x       y       z     vdW  Elec       q    Type
REMARK                         _______ _______ _______ _____ _____    ______ ____
ROOT
ATOM      1  S   UNL     1      40.308 -26.060 -14.588  0.00  0.00    +0.267 S 
ATOM      2  O   UNL     1      41.354 -26.866 -13.931  0.00  0.00    -0.113 OA
ATOM      3  O   UNL     1      40.256 -24.724 -13.967  0.00  0.00    -0.020 OA
ATOM      4  O   UNL     1      40.620 -25.925 -16.022  0.00  0.00    -0.113 OA
ATOM      5  O   UNL     1      39.003 -26.726 -14.430  0.00  0.00    -0.020 OA
ENDROOT
TORSDOF 0
ENDMDL
MODEL 9
REMARK VINA RESULT:      -4.2     12.786     13.741
REMARK  Name = 1117
REMARK  0 active torsions:
REMARK  status: ('A' for Active; 'I' for Inactive)
REMARK                            x       y       z     vdW  Elec       q    Type
REMARK                         _______ _______ _______ _____ _____    ______ ____
ROOT
ATOM      1  S   UNL     1      27.568 -22.385 -16.956  0.00  0.00    +0.267 S 
ATOM      2  O   UNL     1      27.417 -23.633 -17.728  0.00  0.00    -0.113 OA
ATOM      3  O   UNL     1      28.992 -22.007 -16.908  0.00  0.00    -0.020 OA
ATOM      4  O   UNL     1      26.795 -21.311 -17.604  0.00  0.00    -0.113 OA
ATOM      5  O   UNL     1      27.068 -22.592 -15.585  0.00  0.00    -0.020 OA
ENDROOT
TORSDOF 0
ENDMDL
