MODEL 1
REMARK VINA RESULT:     -11.7      0.000      0.000
REMARK  Name = 9912771
REMARK  7 active torsions:
REMARK  status: ('A' for Active; 'I' for Inactive)
REMARK    1  A    between atoms: C_1  and  N_8
REMARK    2  A    between atoms: C_2  and  N_27
REMARK    3  A    between atoms: C_3  and  O_38
REMARK    4  A    between atoms: C_9  and  C_16
REMARK    5  A    between atoms: C_11  and  N_17
REMARK    6  A    between atoms: C_28  and  C_30
REMARK    7  A    between atoms: C_35  and  O_36
REMARK                            x       y       z     vdW  Elec       q    Type
REMARK                         _______ _______ _______ _____ _____    ______ ____
ROOT
ATOM      1  C   UNL     1      37.080 -24.435 -15.007  0.00  0.00    +0.098 C 
ATOM      2  C   UNL     1      36.138 -24.989 -14.154  0.00  0.00    +0.067 C 
ATOM      3  C   UNL     1      38.439 -24.616 -14.793  0.00  0.00    +0.148 C 
ATOM      4  C   UNL     1      36.564 -25.743 -13.060  0.00  0.00    +0.016 C 
ATOM      5  C   UNL     1      38.864 -25.371 -13.699  0.00  0.00    +0.038 C 
ATOM      6  C   UNL     1      37.927 -25.934 -12.833  0.00  0.00    +0.004 C 
ENDROOT
BRANCH   1   8
ATOM      7  O   UNL     1      37.839 -21.660 -15.851  0.00  0.00    -0.270 OA
ATOM      8  N   UNL     1      36.657 -23.669 -16.121  0.00  0.00    -0.277 N 
ATOM      9  C   UNL     1      37.037 -22.369 -16.481  0.00  0.00    +0.250 C 
ATOM     10  H   UNL     1      36.010 -24.107 -16.720  0.00  0.00    +0.155 HD
BRANCH   9  16
ATOM     11  C   UNL     1      35.182 -20.783 -19.996  0.00  0.00    +0.048 C 
ATOM     12  C   UNL     1      36.512 -20.449 -19.655  0.00  0.00    +0.015 C 
ATOM     13  C   UNL     1      34.488 -21.662 -19.134  0.00  0.00    +0.015 C 
ATOM     14  C   UNL     1      37.116 -20.967 -18.510  0.00  0.00    +0.006 C 
ATOM     15  C   UNL     1      35.092 -22.179 -17.988  0.00  0.00    +0.006 C 
ATOM     16  C   UNL     1      36.406 -21.831 -17.676  0.00  0.00    +0.054 C 
BRANCH  11  17
ATOM     17  N   UNL     1      34.577 -20.266 -21.140  0.00  0.00    -0.310 N 
ATOM     18  N   UNL     1      34.587 -17.424 -20.809  0.00  0.00    +0.387 N 
ATOM     19  C   UNL     1      33.121 -20.185 -21.292  0.00  0.00    +0.089 C 
ATOM     20  C   UNL     1      32.572 -18.878 -20.721  0.00  0.00    -0.001 C 
ATOM     21  C   UNL     1      35.329 -19.490 -22.131  0.00  0.00    +0.068 C 
ATOM     22  C   UNL     1      33.212 -17.602 -21.291  0.00  0.00    -0.076 C 
ATOM     23  C   UNL     1      35.615 -18.061 -21.649  0.00  0.00    -0.056 C 
ATOM     24  C   UNL     1      34.905 -16.006 -20.631  0.00  0.00    -0.101 C 
ATOM     25  H   UNL     1      34.612 -17.904 -19.909  0.00  0.00    -0.080 HD
ENDBRANCH  11  17
ENDBRANCH   9  16
ENDBRANCH   1   8
BRANCH   2  27
ATOM     26  O   UNL     1      34.060 -23.741 -12.390  0.00  0.00    -0.270 OA
ATOM     27  N   UNL     1      34.767 -24.812 -14.360  0.00  0.00    -0.279 N 
ATOM     28  C   UNL     1      33.838 -24.219 -13.498  0.00  0.00    +0.250 C 
ATOM     29  H   UNL     1      34.412 -25.144 -15.216  0.00  0.00    +0.155 HD
BRANCH  28  30
ATOM     30  C   UNL     1      32.435 -24.202 -13.990  0.00  0.00    +0.054 C 
ATOM     31  C   UNL     1      32.067 -23.248 -14.915  0.00  0.00    +0.008 C 
ATOM     32  C   UNL     1      31.549 -25.141 -13.506  0.00  0.00    +0.008 C 
ATOM     33  C   UNL     1      30.751 -23.232 -15.378  0.00  0.00    +0.037 C 
ATOM     34  C   UNL     1      30.233 -25.125 -13.970  0.00  0.00    +0.037 C 
ATOM     35  C   UNL     1      29.834 -24.171 -14.905  0.00  0.00    +0.139 C 
BRANCH  35  36
ATOM     36  O   UNL     1      28.551 -24.156 -15.358  0.00  0.00    -0.471 OA
ATOM     37  C   UNL     1      28.329 -23.617 -16.660  0.00  0.00    +0.252 C 
ENDBRANCH  35  36
ENDBRANCH  28  30
ENDBRANCH   2  27
BRANCH   3  38
ATOM     38  O   UNL     1      39.372 -24.077 -15.626  0.00  0.00    -0.504 OA
ATOM     39  H   UNL     1      40.189 -24.516 -15.762  0.00  0.00    +0.292 HD
ENDBRANCH   3  38
TORSDOF 7
ENDMDL
MODEL 2
REMARK VINA RESULT:      -9.9      1.568      2.174
REMARK  Name = 9912771
REMARK  7 active torsions:
REMARK  status: ('A' for Active; 'I' for Inactive)
REMARK    1  A    between atoms: C_1  and  N_8
REMARK    2  A    between atoms: C_2  and  N_27
REMARK    3  A    between atoms: C_3  and  O_38
REMARK    4  A    between atoms: C_9  and  C_16
REMARK    5  A    between atoms: C_11  and  N_17
REMARK    6  A    between atoms: C_28  and  C_30
REMARK    7  A    between atoms: C_35  and  O_36
REMARK                            x       y       z     vdW  Elec       q    Type
REMARK                         _______ _______ _______ _____ _____    ______ ____
ROOT
ATOM      1  C   UNL     1      35.635 -23.289 -14.596  0.00  0.00    +0.098 C 
ATOM      2  C   UNL     1      34.468 -23.688 -13.962  0.00  0.00    +0.067 C 
ATOM      3  C   UNL     1      36.877 -23.499 -14.014  0.00  0.00    +0.148 C 
ATOM      4  C   UNL     1      34.544 -24.311 -12.717  0.00  0.00    +0.016 C 
ATOM      5  C   UNL     1      36.952 -24.123 -12.768  0.00  0.00    +0.038 C 
ATOM      6  C   UNL     1      35.785 -24.528 -12.120  0.00  0.00    +0.004 C 
ENDROOT
BRANCH   1   8
ATOM      7  O   UNL     1      34.143 -24.071 -17.075  0.00  0.00    -0.270 OA
ATOM      8  N   UNL     1      35.568 -22.656 -15.862  0.00  0.00    -0.277 N 
ATOM      9  C   UNL     1      34.855 -23.057 -17.000  0.00  0.00    +0.250 C 
ATOM     10  H   UNL     1      36.091 -21.828 -15.954  0.00  0.00    +0.155 HD
BRANCH   9  16
ATOM     11  C   UNL     1      35.294 -20.562 -20.449  0.00  0.00    +0.048 C 
ATOM     12  C   UNL     1      36.409 -20.923 -19.660  0.00  0.00    +0.015 C 
ATOM     13  C   UNL     1      34.029 -21.055 -20.058  0.00  0.00    +0.015 C 
ATOM     14  C   UNL     1      36.265 -21.737 -18.536  0.00  0.00    +0.006 C 
ATOM     15  C   UNL     1      33.886 -21.868 -18.934  0.00  0.00    +0.006 C 
ATOM     16  C   UNL     1      35.004 -22.209 -18.173  0.00  0.00    +0.054 C 
BRANCH  11  17
ATOM     17  N   UNL     1      35.437 -19.748 -21.571  0.00  0.00    -0.310 N 
ATOM     18  N   UNL     1      34.527 -17.155 -20.774  0.00  0.00    +0.387 N 
ATOM     19  C   UNL     1      34.439 -19.704 -22.644  0.00  0.00    +0.089 C 
ATOM     20  C   UNL     1      33.349 -18.674 -22.351  0.00  0.00    -0.001 C 
ATOM     21  C   UNL     1      36.420 -18.661 -21.620  0.00  0.00    +0.068 C 
ATOM     22  C   UNL     1      33.860 -17.250 -22.079  0.00  0.00    -0.076 C 
ATOM     23  C   UNL     1      35.972 -17.440 -20.806  0.00  0.00    -0.056 C 
ATOM     24  C   UNL     1      34.296 -15.847 -20.157  0.00  0.00    -0.101 C 
ATOM     25  H   UNL     1      34.100 -17.890 -20.209  0.00  0.00    -0.080 HD
ENDBRANCH  11  17
ENDBRANCH   9  16
ENDBRANCH   1   8
BRANCH   2  27
ATOM     26  O   UNL     1      31.849 -25.050 -13.444  0.00  0.00    -0.270 OA
ATOM     27  N   UNL     1      33.212 -23.480 -14.540  0.00  0.00    -0.279 N 
ATOM     28  C   UNL     1      32.016 -24.149 -14.258  0.00  0.00    +0.250 C 
ATOM     29  H   UNL     1      33.163 -22.778 -15.228  0.00  0.00    +0.155 HD
BRANCH  28  30
ATOM     30  C   UNL     1      30.843 -23.720 -15.065  0.00  0.00    +0.054 C 
ATOM     31  C   UNL     1      29.603 -24.246 -14.767  0.00  0.00    +0.008 C 
ATOM     32  C   UNL     1      31.033 -22.809 -16.083  0.00  0.00    +0.008 C 
ATOM     33  C   UNL     1      28.502 -23.843 -15.523  0.00  0.00    +0.037 C 
ATOM     34  C   UNL     1      29.931 -22.406 -16.838  0.00  0.00    +0.037 C 
ATOM     35  C   UNL     1      28.667 -22.923 -16.559  0.00  0.00    +0.139 C 
BRANCH  35  36
ATOM     36  O   UNL     1      27.592 -22.529 -17.295  0.00  0.00    -0.471 OA
ATOM     37  C   UNL     1      26.529 -21.883 -16.596  0.00  0.00    +0.252 C 
ENDBRANCH  35  36
ENDBRANCH  28  30
ENDBRANCH   2  27
BRANCH   3  38
ATOM     38  O   UNL     1      38.030 -23.113 -14.629  0.00  0.00    -0.504 OA
ATOM     39  H   UNL     1      38.390 -22.265 -14.459  0.00  0.00    +0.292 HD
ENDBRANCH   3  38
TORSDOF 7
ENDMDL
