MODEL 1
REMARK VINA RESULT:     -10.3      0.000      0.000
REMARK  Name = 46937083
REMARK  10 active torsions:
REMARK  status: ('A' for Active; 'I' for Inactive)
REMARK    1  A    between atoms: N_1  and  C_13
REMARK    2  A    between atoms: C_5  and  N_20
REMARK    3  A    between atoms: C_21  and  C_23
REMARK    4  A    between atoms: C_23  and  C_24
REMARK    5  A    between atoms: C_24  and  S_25
REMARK    6  A    between atoms: S_25  and  C_26
REMARK    7  A    between atoms: C_26  and  C_27
REMARK    8  A    between atoms: C_27  and  N_28
REMARK    9  A    between atoms: C_27  and  C_33
REMARK   10  A    between atoms: C_33  and  O_34
REMARK                            x       y       z     vdW  Elec       q    Type
REMARK                         _______ _______ _______ _____ _____    ______ ____
ROOT
ATOM      1  N   UNK     1      34.663 -17.915 -21.765  0.00  0.00    -0.301 N 
ATOM      2  N   UNK     1      34.381 -17.115 -25.817  0.00  0.00    -0.248 NA
ATOM      3  N   UNK     1      34.985 -18.579 -24.000  0.00  0.00    -0.233 NA
ATOM      4  C   UNK     1      34.036 -16.400 -23.554  0.00  0.00    +0.117 C 
ATOM      5  C   UNK     1      33.085 -14.216 -23.117  0.00  0.00    +0.047 C 
ATOM      6  C   UNK     1      33.598 -15.420 -22.647  0.00  0.00    +0.001 C 
ATOM      7  C   UNK     1      33.966 -16.185 -24.940  0.00  0.00    +0.067 C 
ATOM      8  C   UNK     1      34.559 -17.626 -23.150  0.00  0.00    +0.115 C 
ATOM      9  C   UNK     1      33.009 -13.991 -24.487  0.00  0.00    +0.016 C 
ATOM     10  C   UNK     1      33.447 -14.970 -25.384  0.00  0.00    +0.016 C 
ATOM     11  C   UNK     1      34.868 -18.262 -25.299  0.00  0.00    +0.251 C 
ATOM     12  H   UNK     1      34.801 -17.119 -21.203  0.00  0.00    +0.153 HD
ENDROOT
BRANCH   1  13
ATOM     13  C   UNK     1      34.607 -19.116 -21.042  0.00  0.00    +0.049 C 
ATOM     14  C   UNK     1      35.786 -19.759 -20.665  0.00  0.00    +0.015 C 
ATOM     15  C   UNK     1      33.372 -19.670 -20.704  0.00  0.00    +0.015 C 
ATOM     16  C   UNK     1      35.731 -20.953 -19.946  0.00  0.00    +0.001 C 
ATOM     17  C   UNK     1      33.316 -20.864 -19.985  0.00  0.00    +0.001 C 
ATOM     18  C   UNK     1      34.495 -21.505 -19.606  0.00  0.00    +0.000 C 
ENDBRANCH   1  13
BRANCH   5  20
ATOM     19  O   UNK     1      32.443 -14.408 -20.189  0.00  0.00    -0.275 OA
ATOM     20  N   UNK     1      32.648 -13.240 -22.222  0.00  0.00    -0.284 N 
ATOM     21  C   UNK     1      32.360 -13.380 -20.855  0.00  0.00    +0.227 C 
ATOM     22  H   UNK     1      32.525 -12.337 -22.596  0.00  0.00    +0.155 HD
BRANCH  21  23
ATOM     23  C   UNK     1      31.909 -12.058 -20.247  0.00  0.00    +0.097 C 
BRANCH  23  24
ATOM     24  C   UNK     1      31.403 -11.081 -21.302  0.00  0.00    +0.067 C 
BRANCH  24  25
ATOM     25  S   UNK     1      31.971  -9.396 -20.940  0.00  0.00    -0.141 S 
BRANCH  25  26
ATOM     26  C   UNK     1      32.086  -8.787 -22.638  0.00  0.00    +0.047 C 
BRANCH  26  27
ATOM     27  C   UNK     1      33.538  -8.622 -23.090  0.00  0.00    +0.047 C 
BRANCH  27  28
ATOM     28  N   UNK     1      33.658  -7.467 -23.982  0.00  0.00    +0.389 N 
ATOM     29  H   UNK     1      34.245  -6.758 -23.543  0.00  0.00    -0.088 HD
ATOM     30  H   UNK     1      32.732  -7.079 -24.161  0.00  0.00    -0.088 HD
ATOM     31  H   UNK     1      34.080  -7.761 -24.862  0.00  0.00    -0.088 HD
ENDBRANCH  27  28
BRANCH  27  33
ATOM     32  O   UNK     1      33.323 -10.755 -24.207  0.00  0.00    -0.253 OA
ATOM     33  C   UNK     1      34.047  -9.837 -23.843  0.00  0.00    +0.294 C 
BRANCH  33  34
ATOM     34  O   UNK     1      35.388  -9.832 -24.047  0.00  0.00    -0.482 OA
ATOM     35  H   UNK     1      35.882  -9.048 -23.904  0.00  0.00    +0.295 HD
ENDBRANCH  33  34
ENDBRANCH  27  33
ENDBRANCH  26  27
ENDBRANCH  25  26
ENDBRANCH  24  25
ENDBRANCH  23  24
ENDBRANCH  21  23
ENDBRANCH   5  20
TORSDOF 10
ENDMDL
MODEL 2
REMARK VINA RESULT:     -10.1      8.496     12.069
REMARK  Name = 46937083
REMARK  10 active torsions:
REMARK  status: ('A' for Active; 'I' for Inactive)
REMARK    1  A    between atoms: N_1  and  C_13
REMARK    2  A    between atoms: C_5  and  N_20
REMARK    3  A    between atoms: C_21  and  C_23
REMARK    4  A    between atoms: C_23  and  C_24
REMARK    5  A    between atoms: C_24  and  S_25
REMARK    6  A    between atoms: S_25  and  C_26
REMARK    7  A    between atoms: C_26  and  C_27
REMARK    8  A    between atoms: C_27  and  N_28
REMARK    9  A    between atoms: C_27  and  C_33
REMARK   10  A    between atoms: C_33  and  O_34
REMARK                            x       y       z     vdW  Elec       q    Type
REMARK                         _______ _______ _______ _____ _____    ______ ____
ROOT
ATOM      1  N   UNK     1      34.665 -22.349 -18.245  0.00  0.00    -0.301 N 
ATOM      2  N   UNK     1      37.564 -22.522 -15.296  0.00  0.00    -0.248 NA
ATOM      3  N   UNK     1      36.857 -21.902 -17.515  0.00  0.00    -0.233 NA
ATOM      4  C   UNK     1      35.321 -22.994 -16.000  0.00  0.00    +0.117 C 
ATOM      5  C   UNK     1      33.789 -24.088 -14.476  0.00  0.00    +0.047 C 
ATOM      6  C   UNK     1      34.049 -23.523 -15.720  0.00  0.00    +0.001 C 
ATOM      7  C   UNK     1      36.344 -23.024 -15.039  0.00  0.00    +0.067 C 
ATOM      8  C   UNK     1      35.646 -22.415 -17.224  0.00  0.00    +0.115 C 
ATOM      9  C   UNK     1      34.793 -24.123 -13.515  0.00  0.00    +0.016 C 
ATOM     10  C   UNK     1      36.056 -23.595 -13.801  0.00  0.00    +0.016 C 
ATOM     11  C   UNK     1      37.754 -21.988 -16.520  0.00  0.00    +0.251 C 
ATOM     12  H   UNK     1      34.009 -23.084 -18.214  0.00  0.00    +0.153 HD
ENDROOT
BRANCH   1  13
ATOM     13  C   UNK     1      34.446 -21.439 -19.291  0.00  0.00    +0.049 C 
ATOM     14  C   UNK     1      35.527 -20.939 -20.017  0.00  0.00    +0.015 C 
ATOM     15  C   UNK     1      33.149 -21.033 -19.602  0.00  0.00    +0.015 C 
ATOM     16  C   UNK     1      35.310 -20.035 -21.057  0.00  0.00    +0.001 C 
ATOM     17  C   UNK     1      32.931 -20.128 -20.641  0.00  0.00    +0.001 C 
ATOM     18  C   UNK     1      34.012 -19.629 -21.369  0.00  0.00    +0.000 C 
ENDBRANCH   1  13
BRANCH   5  20
ATOM     19  O   UNK     1      31.193 -22.703 -13.873  0.00  0.00    -0.275 OA
ATOM     20  N   UNK     1      32.529 -24.614 -14.191  0.00  0.00    -0.284 N 
ATOM     21  C   UNK     1      31.339 -23.920 -13.915  0.00  0.00    +0.227 C 
ATOM     22  H   UNK     1      32.465 -25.597 -14.182  0.00  0.00    +0.155 HD
BRANCH  21  23
ATOM     23  C   UNK     1      30.187 -24.883 -13.657  0.00  0.00    +0.097 C 
BRANCH  23  24
ATOM     24  C   UNK     1      29.585 -25.421 -14.949  0.00  0.00    +0.067 C 
BRANCH  24  25
ATOM     25  S   UNK     1      29.948 -24.310 -16.337  0.00  0.00    -0.141 S 
BRANCH  25  26
ATOM     26  C   UNK     1      28.252 -23.832 -16.742  0.00  0.00    +0.047 C 
BRANCH  26  27
ATOM     27  C   UNK     1      27.987 -22.356 -16.444  0.00  0.00    +0.047 C 
BRANCH  27  28
ATOM     28  N   UNK     1      28.443 -22.028 -15.091  0.00  0.00    +0.389 N 
ATOM     29  H   UNK     1      29.165 -21.309 -15.141  0.00  0.00    -0.088 HD
ATOM     30  H   UNK     1      28.826 -22.864 -14.651  0.00  0.00    -0.088 HD
ATOM     31  H   UNK     1      27.657 -21.684 -14.542  0.00  0.00    -0.088 HD
ENDBRANCH  27  28
BRANCH  27  33
ATOM     32  O   UNK     1      25.965 -21.631 -17.554  0.00  0.00    -0.253 OA
ATOM     33  C   UNK     1      26.512 -22.009 -16.525  0.00  0.00    +0.294 C 
BRANCH  33  34
ATOM     34  O   UNK     1      25.857 -22.121 -15.342  0.00  0.00    -0.482 OA
ATOM     35  H   UNK     1      25.222 -21.477 -15.095  0.00  0.00    +0.295 HD
ENDBRANCH  33  34
ENDBRANCH  27  33
ENDBRANCH  26  27
ENDBRANCH  25  26
ENDBRANCH  24  25
ENDBRANCH  23  24
ENDBRANCH  21  23
ENDBRANCH   5  20
TORSDOF 10
ENDMDL
MODEL 3
REMARK VINA RESULT:     -10.1      1.120      1.216
REMARK  Name = 46937083
REMARK  10 active torsions:
REMARK  status: ('A' for Active; 'I' for Inactive)
REMARK    1  A    between atoms: N_1  and  C_13
REMARK    2  A    between atoms: C_5  and  N_20
REMARK    3  A    between atoms: C_21  and  C_23
REMARK    4  A    between atoms: C_23  and  C_24
REMARK    5  A    between atoms: C_24  and  S_25
REMARK    6  A    between atoms: S_25  and  C_26
REMARK    7  A    between atoms: C_26  and  C_27
REMARK    8  A    between atoms: C_27  and  N_28
REMARK    9  A    between atoms: C_27  and  C_33
REMARK   10  A    between atoms: C_33  and  O_34
REMARK                            x       y       z     vdW  Elec       q    Type
REMARK                         _______ _______ _______ _____ _____    ______ ____
ROOT
ATOM      1  N   UNK     1      34.675 -17.555 -21.853  0.00  0.00    -0.301 N 
ATOM      2  N   UNK     1      34.212 -16.618 -25.859  0.00  0.00    -0.248 NA
ATOM      3  N   UNK     1      34.927 -18.128 -24.121  0.00  0.00    -0.233 NA
ATOM      4  C   UNK     1      33.936 -15.996 -23.559  0.00  0.00    +0.117 C 
ATOM      5  C   UNK     1      32.941 -13.858 -23.005  0.00  0.00    +0.047 C 
ATOM      6  C   UNK     1      33.506 -15.063 -22.600  0.00  0.00    +0.001 C 
ATOM      7  C   UNK     1      33.805 -15.734 -24.932  0.00  0.00    +0.067 C 
ATOM      8  C   UNK     1      34.509 -17.220 -23.221  0.00  0.00    +0.115 C 
ATOM      9  C   UNK     1      32.805 -13.587 -24.362  0.00  0.00    +0.016 C 
ATOM     10  C   UNK     1      33.235 -14.520 -25.310  0.00  0.00    +0.016 C 
ATOM     11  C   UNK     1      34.751 -17.768 -25.403  0.00  0.00    +0.251 C 
ATOM     12  H   UNK     1      34.812 -16.776 -21.267  0.00  0.00    +0.153 HD
ENDROOT
BRANCH   1  13
ATOM     13  C   UNK     1      34.681 -18.783 -21.173  0.00  0.00    +0.049 C 
ATOM     14  C   UNK     1      35.893 -19.389 -20.840  0.00  0.00    +0.015 C 
ATOM     15  C   UNK     1      33.476 -19.398 -20.835  0.00  0.00    +0.015 C 
ATOM     16  C   UNK     1      35.899 -20.609 -20.164  0.00  0.00    +0.001 C 
ATOM     17  C   UNK     1      33.483 -20.619 -20.159  0.00  0.00    +0.001 C 
ATOM     18  C   UNK     1      34.694 -21.224 -19.824  0.00  0.00    +0.000 C 
ENDBRANCH   1  13
BRANCH   5  20
ATOM     19  O   UNK     1      32.331 -14.196 -20.084  0.00  0.00    -0.275 OA
ATOM     20  N   UNK     1      32.512 -12.928 -22.058  0.00  0.00    -0.284 N 
ATOM     21  C   UNK     1      32.239 -13.136 -20.697  0.00  0.00    +0.227 C 
ATOM     22  H   UNK     1      32.383 -12.009 -22.387  0.00  0.00    +0.155 HD
BRANCH  21  23
ATOM     23  C   UNK     1      31.792 -11.847 -20.020  0.00  0.00    +0.097 C 
BRANCH  23  24
ATOM     24  C   UNK     1      31.029 -10.932 -20.970  0.00  0.00    +0.067 C 
BRANCH  24  25
ATOM     25  S   UNK     1      31.923  -9.371 -21.214  0.00  0.00    -0.141 S 
BRANCH  25  26
ATOM     26  C   UNK     1      31.663  -9.194 -22.994  0.00  0.00    +0.047 C 
BRANCH  26  27
ATOM     27  C   UNK     1      32.948  -8.802 -23.724  0.00  0.00    +0.047 C 
BRANCH  27  28
ATOM     28  N   UNK     1      33.920  -9.894 -23.649  0.00  0.00    +0.389 N 
ATOM     29  H   UNK     1      34.862  -9.508 -23.591  0.00  0.00    -0.088 HD
ATOM     30  H   UNK     1      33.842 -10.476 -24.483  0.00  0.00    -0.088 HD
ATOM     31  H   UNK     1      33.733 -10.459 -22.821  0.00  0.00    -0.088 HD
ENDBRANCH  27  28
BRANCH  27  33
ATOM     32  O   UNK     1      33.001  -6.518 -22.933  0.00  0.00    -0.253 OA
ATOM     33  C   UNK     1      33.598  -7.570 -23.121  0.00  0.00    +0.294 C 
BRANCH  33  34
ATOM     34  O   UNK     1      34.916  -7.728 -22.841  0.00  0.00    -0.482 OA
ATOM     35  H   UNK     1      35.562  -7.508 -23.484  0.00  0.00    +0.295 HD
ENDBRANCH  33  34
ENDBRANCH  27  33
ENDBRANCH  26  27
ENDBRANCH  25  26
ENDBRANCH  24  25
ENDBRANCH  23  24
ENDBRANCH  21  23
ENDBRANCH   5  20
TORSDOF 10
ENDMDL
MODEL 4
REMARK VINA RESULT:     -10.0      1.692      2.144
REMARK  Name = 46937083
REMARK  10 active torsions:
REMARK  status: ('A' for Active; 'I' for Inactive)
REMARK    1  A    between atoms: N_1  and  C_13
REMARK    2  A    between atoms: C_5  and  N_20
REMARK    3  A    between atoms: C_21  and  C_23
REMARK    4  A    between atoms: C_23  and  C_24
REMARK    5  A    between atoms: C_24  and  S_25
REMARK    6  A    between atoms: S_25  and  C_26
REMARK    7  A    between atoms: C_26  and  C_27
REMARK    8  A    between atoms: C_27  and  N_28
REMARK    9  A    between atoms: C_27  and  C_33
REMARK   10  A    between atoms: C_33  and  O_34
REMARK                            x       y       z     vdW  Elec       q    Type
REMARK                         _______ _______ _______ _____ _____    ______ ____
ROOT
ATOM      1  N   UNK     1      34.599 -17.442 -21.559  0.00  0.00    -0.301 N 
ATOM      2  N   UNK     1      34.098 -16.056 -25.428  0.00  0.00    -0.248 NA
ATOM      3  N   UNK     1      34.865 -17.736 -23.879  0.00  0.00    -0.233 NA
ATOM      4  C   UNK     1      33.808 -15.717 -23.071  0.00  0.00    +0.117 C 
ATOM      5  C   UNK     1      32.747 -13.692 -22.271  0.00  0.00    +0.047 C 
ATOM      6  C   UNK     1      33.350 -14.917 -22.009  0.00  0.00    +0.001 C 
ATOM      7  C   UNK     1      33.665 -15.299 -24.404  0.00  0.00    +0.067 C 
ATOM      8  C   UNK     1      34.419 -16.953 -22.878  0.00  0.00    +0.115 C 
ATOM      9  C   UNK     1      32.600 -13.267 -23.587  0.00  0.00    +0.016 C 
ATOM     10  C   UNK     1      33.057 -14.068 -24.638  0.00  0.00    +0.016 C 
ATOM     11  C   UNK     1      34.674 -17.233 -25.109  0.00  0.00    +0.251 C 
ATOM     12  H   UNK     1      34.713 -16.733 -20.885  0.00  0.00    +0.153 HD
ENDROOT
BRANCH   1  13
ATOM     13  C   UNK     1      34.645 -18.740 -21.029  0.00  0.00    +0.049 C 
ATOM     14  C   UNK     1      33.461 -19.420 -20.745  0.00  0.00    +0.015 C 
ATOM     15  C   UNK     1      35.876 -19.349 -20.782  0.00  0.00    +0.015 C 
ATOM     16  C   UNK     1      33.507 -20.711 -20.218  0.00  0.00    +0.001 C 
ATOM     17  C   UNK     1      35.922 -20.640 -20.255  0.00  0.00    +0.001 C 
ATOM     18  C   UNK     1      34.737 -21.321 -19.973  0.00  0.00    +0.000 C 
ENDBRANCH   1  13
BRANCH   5  20
ATOM     19  O   UNK     1      31.030 -11.228 -22.305  0.00  0.00    -0.275 OA
ATOM     20  N   UNK     1      32.290 -12.894 -21.222  0.00  0.00    -0.284 N 
ATOM     21  C   UNK     1      31.485 -11.746 -21.290  0.00  0.00    +0.227 C 
ATOM     22  H   UNK     1      32.569 -13.171 -20.319  0.00  0.00    +0.155 HD
BRANCH  21  23
ATOM     23  C   UNK     1      31.219 -11.175 -19.903  0.00  0.00    +0.097 C 
BRANCH  23  24
ATOM     24  C   UNK     1      32.277 -10.161 -19.484  0.00  0.00    +0.067 C 
BRANCH  24  25
ATOM     25  S   UNK     1      31.727  -8.471 -19.853  0.00  0.00    -0.141 S 
BRANCH  25  26
ATOM     26  C   UNK     1      33.083  -7.987 -20.947  0.00  0.00    +0.047 C 
BRANCH  26  27
ATOM     27  C   UNK     1      32.632  -6.976 -22.003  0.00  0.00    +0.047 C 
BRANCH  27  28
ATOM     28  N   UNK     1      31.988  -5.831 -21.357  0.00  0.00    +0.389 N 
ATOM     29  H   UNK     1      32.701  -5.196 -21.000  0.00  0.00    -0.088 HD
ATOM     30  H   UNK     1      31.407  -6.159 -20.585  0.00  0.00    -0.088 HD
ATOM     31  H   UNK     1      31.406  -5.341 -22.036  0.00  0.00    -0.088 HD
ENDBRANCH  27  28
BRANCH  27  33
ATOM     32  O   UNK     1      30.571  -7.037 -23.265  0.00  0.00    -0.253 OA
ATOM     33  C   UNK     1      31.636  -7.571 -22.980  0.00  0.00    +0.294 C 
BRANCH  33  34
ATOM     34  O   UNK     1      32.015  -8.772 -23.485  0.00  0.00    -0.482 OA
ATOM     35  H   UNK     1      32.741  -9.231 -23.109  0.00  0.00    +0.295 HD
ENDBRANCH  33  34
ENDBRANCH  27  33
ENDBRANCH  26  27
ENDBRANCH  25  26
ENDBRANCH  24  25
ENDBRANCH  23  24
ENDBRANCH  21  23
ENDBRANCH   5  20
TORSDOF 10
ENDMDL
MODEL 5
REMARK VINA RESULT:      -9.8      6.207     10.315
REMARK  Name = 46937083
REMARK  10 active torsions:
REMARK  status: ('A' for Active; 'I' for Inactive)
REMARK    1  A    between atoms: N_1  and  C_13
REMARK    2  A    between atoms: C_5  and  N_20
REMARK    3  A    between atoms: C_21  and  C_23
REMARK    4  A    between atoms: C_23  and  C_24
REMARK    5  A    between atoms: C_24  and  S_25
REMARK    6  A    between atoms: S_25  and  C_26
REMARK    7  A    between atoms: C_26  and  C_27
REMARK    8  A    between atoms: C_27  and  N_28
REMARK    9  A    between atoms: C_27  and  C_33
REMARK   10  A    between atoms: C_33  and  O_34
REMARK                            x       y       z     vdW  Elec       q    Type
REMARK                         _______ _______ _______ _____ _____    ______ ____
ROOT
ATOM      1  N   UNK     1      32.810 -23.095 -14.903  0.00  0.00    -0.301 N 
ATOM      2  N   UNK     1      36.244 -24.407 -13.000  0.00  0.00    -0.248 NA
ATOM      3  N   UNK     1      33.844 -24.217 -13.112  0.00  0.00    -0.233 NA
ATOM      4  C   UNK     1      35.230 -23.255 -14.843  0.00  0.00    +0.117 C 
ATOM      5  C   UNK     1      36.626 -22.296 -16.574  0.00  0.00    +0.047 C 
ATOM      6  C   UNK     1      35.363 -22.544 -16.048  0.00  0.00    +0.001 C 
ATOM      7  C   UNK     1      36.358 -23.725 -14.153  0.00  0.00    +0.067 C 
ATOM      8  C   UNK     1      33.995 -23.538 -14.264  0.00  0.00    +0.115 C 
ATOM      9  C   UNK     1      37.752 -22.756 -15.900  0.00  0.00    +0.016 C 
ATOM     10  C   UNK     1      37.612 -23.463 -14.702  0.00  0.00    +0.016 C 
ATOM     11  C   UNK     1      34.993 -24.616 -12.542  0.00  0.00    +0.251 C 
ATOM     12  H   UNK     1      32.924 -22.266 -15.422  0.00  0.00    +0.153 HD
ENDROOT
BRANCH   1  13
ATOM     13  C   UNK     1      31.504 -23.610 -14.939  0.00  0.00    +0.049 C 
ATOM     14  C   UNK     1      30.447 -22.800 -15.352  0.00  0.00    +0.015 C 
ATOM     15  C   UNK     1      31.265 -24.930 -14.558  0.00  0.00    +0.015 C 
ATOM     16  C   UNK     1      29.149 -23.311 -15.387  0.00  0.00    +0.001 C 
ATOM     17  C   UNK     1      29.968 -25.442 -14.594  0.00  0.00    +0.001 C 
ATOM     18  C   UNK     1      28.910 -24.632 -15.009  0.00  0.00    +0.000 C 
ENDBRANCH   1  13
BRANCH   5  20
ATOM     19  O   UNK     1      35.084 -22.499 -19.143  0.00  0.00    -0.275 OA
ATOM     20  N   UNK     1      36.765 -21.591 -17.770  0.00  0.00    -0.284 N 
ATOM     21  C   UNK     1      36.015 -21.723 -18.949  0.00  0.00    +0.227 C 
ATOM     22  H   UNK     1      37.481 -20.915 -17.789  0.00  0.00    +0.155 HD
BRANCH  21  23
ATOM     23  C   UNK     1      36.499 -20.757 -20.022  0.00  0.00    +0.097 C 
BRANCH  23  24
ATOM     24  C   UNK     1      35.363 -20.269 -20.914  0.00  0.00    +0.067 C 
BRANCH  24  25
ATOM     25  S   UNK     1      35.414 -18.463 -21.087  0.00  0.00    -0.141 S 
BRANCH  25  26
ATOM     26  C   UNK     1      35.935 -18.379 -22.816  0.00  0.00    +0.047 C 
BRANCH  26  27
ATOM     27  C   UNK     1      34.758 -18.116 -23.756  0.00  0.00    +0.047 C 
BRANCH  27  28
ATOM     28  N   UNK     1      34.592 -19.241 -24.678  0.00  0.00    +0.389 N 
ATOM     29  H   UNK     1      34.406 -18.888 -25.616  0.00  0.00    -0.088 HD
ATOM     30  H   UNK     1      33.809 -19.819 -24.372  0.00  0.00    -0.088 HD
ATOM     31  H   UNK     1      35.444 -19.801 -24.688  0.00  0.00    -0.088 HD
ENDBRANCH  27  28
BRANCH  27  33
ATOM     32  O   UNK     1      34.716 -16.812 -25.791  0.00  0.00    -0.253 OA
ATOM     33  C   UNK     1      34.958 -16.866 -24.592  0.00  0.00    +0.294 C 
BRANCH  33  34
ATOM     34  O   UNK     1      35.465 -15.818 -23.896  0.00  0.00    -0.482 OA
ATOM     35  H   UNK     1      35.765 -15.054 -24.350  0.00  0.00    +0.295 HD
ENDBRANCH  33  34
ENDBRANCH  27  33
ENDBRANCH  26  27
ENDBRANCH  25  26
ENDBRANCH  24  25
ENDBRANCH  23  24
ENDBRANCH  21  23
ENDBRANCH   5  20
TORSDOF 10
ENDMDL
MODEL 6
REMARK VINA RESULT:      -9.6      3.302     10.187
REMARK  Name = 46937083
REMARK  10 active torsions:
REMARK  status: ('A' for Active; 'I' for Inactive)
REMARK    1  A    between atoms: N_1  and  C_13
REMARK    2  A    between atoms: C_5  and  N_20
REMARK    3  A    between atoms: C_21  and  C_23
REMARK    4  A    between atoms: C_23  and  C_24
REMARK    5  A    between atoms: C_24  and  S_25
REMARK    6  A    between atoms: S_25  and  C_26
REMARK    7  A    between atoms: C_26  and  C_27
REMARK    8  A    between atoms: C_27  and  N_28
REMARK    9  A    between atoms: C_27  and  C_33
REMARK   10  A    between atoms: C_33  and  O_34
REMARK                            x       y       z     vdW  Elec       q    Type
REMARK                         _______ _______ _______ _____ _____    ______ ____
ROOT
ATOM      1  N   UNK     1      32.855  -7.690 -23.424  0.00  0.00    -0.301 N 
ATOM      2  N   UNK     1      31.928  -8.273 -19.431  0.00  0.00    -0.248 NA
ATOM      3  N   UNK     1      32.554  -6.827 -21.255  0.00  0.00    -0.233 NA
ATOM      4  C   UNK     1      32.223  -9.193 -21.627  0.00  0.00    +0.117 C 
ATOM      5  C   UNK     1      31.888 -11.564 -21.990  0.00  0.00    +0.047 C 
ATOM      6  C   UNK     1      32.208 -10.305 -22.486  0.00  0.00    +0.001 C 
ATOM      7  C   UNK     1      31.918  -9.329 -20.263  0.00  0.00    +0.067 C 
ATOM      8  C   UNK     1      32.534  -7.906 -22.059  0.00  0.00    +0.115 C 
ATOM      9  C   UNK     1      31.583 -11.712 -20.641  0.00  0.00    +0.016 C 
ATOM     10  C   UNK     1      31.600 -10.602 -19.792  0.00  0.00    +0.016 C 
ATOM     11  C   UNK     1      32.246  -7.079 -19.973  0.00  0.00    +0.251 C 
ATOM     12  H   UNK     1      33.278  -8.465 -23.860  0.00  0.00    +0.153 HD
ENDROOT
BRANCH   1  13
ATOM     13  C   UNK     1      32.685  -6.585 -24.272  0.00  0.00    +0.049 C 
ATOM     14  C   UNK     1      31.506  -5.841 -24.221  0.00  0.00    +0.015 C 
ATOM     15  C   UNK     1      33.693  -6.233 -25.169  0.00  0.00    +0.015 C 
ATOM     16  C   UNK     1      31.337  -4.744 -25.065  0.00  0.00    +0.001 C 
ATOM     17  C   UNK     1      33.525  -5.135 -26.013  0.00  0.00    +0.001 C 
ATOM     18  C   UNK     1      32.346  -4.390 -25.960  0.00  0.00    +0.000 C 
ENDBRANCH   1  13
BRANCH   5  20
ATOM     19  O   UNK     1      34.152 -13.143 -23.175  0.00  0.00    -0.275 OA
ATOM     20  N   UNK     1      31.871 -12.672 -22.837  0.00  0.00    -0.284 N 
ATOM     21  C   UNK     1      32.963 -13.378 -23.367  0.00  0.00    +0.227 C 
ATOM     22  H   UNK     1      30.979 -12.999 -23.098  0.00  0.00    +0.155 HD
BRANCH  21  23
ATOM     23  C   UNK     1      32.499 -14.528 -24.252  0.00  0.00    +0.097 C 
BRANCH  23  24
ATOM     24  C   UNK     1      33.534 -14.897 -25.308  0.00  0.00    +0.067 C 
BRANCH  24  25
ATOM     25  S   UNK     1      34.115 -16.600 -25.068  0.00  0.00    -0.141 S 
BRANCH  25  26
ATOM     26  C   UNK     1      35.281 -16.293 -23.721  0.00  0.00    +0.047 C 
BRANCH  26  27
ATOM     27  C   UNK     1      34.785 -16.868 -22.393  0.00  0.00    +0.047 C 
BRANCH  27  28
ATOM     28  N   UNK     1      34.664 -15.799 -21.400  0.00  0.00    +0.389 N 
ATOM     29  H   UNK     1      35.284 -15.029 -21.650  0.00  0.00    -0.088 HD
ATOM     30  H   UNK     1      34.922 -16.159 -20.481  0.00  0.00    -0.088 HD
ATOM     31  H   UNK     1      33.701 -15.465 -21.376  0.00  0.00    -0.088 HD
ENDBRANCH  27  28
BRANCH  27  33
ATOM     32  O   UNK     1      35.659 -18.335 -20.683  0.00  0.00    -0.253 OA
ATOM     33  C   UNK     1      35.731 -17.911 -21.829  0.00  0.00    +0.294 C 
BRANCH  33  34
ATOM     34  O   UNK     1      36.691 -18.308 -22.702  0.00  0.00    -0.482 OA
ATOM     35  H   UNK     1      37.402 -18.842 -22.406  0.00  0.00    +0.295 HD
ENDBRANCH  33  34
ENDBRANCH  27  33
ENDBRANCH  26  27
ENDBRANCH  25  26
ENDBRANCH  24  25
ENDBRANCH  23  24
ENDBRANCH  21  23
ENDBRANCH   5  20
TORSDOF 10
ENDMDL
MODEL 7
REMARK VINA RESULT:      -9.6     10.239     13.287
REMARK  Name = 46937083
REMARK  10 active torsions:
REMARK  status: ('A' for Active; 'I' for Inactive)
REMARK    1  A    between atoms: N_1  and  C_13
REMARK    2  A    between atoms: C_5  and  N_20
REMARK    3  A    between atoms: C_21  and  C_23
REMARK    4  A    between atoms: C_23  and  C_24
REMARK    5  A    between atoms: C_24  and  S_25
REMARK    6  A    between atoms: S_25  and  C_26
REMARK    7  A    between atoms: C_26  and  C_27
REMARK    8  A    between atoms: C_27  and  N_28
REMARK    9  A    between atoms: C_27  and  C_33
REMARK   10  A    between atoms: C_33  and  O_34
REMARK                            x       y       z     vdW  Elec       q    Type
REMARK                         _______ _______ _______ _____ _____    ______ ____
ROOT
ATOM      1  N   UNK     1      32.370 -23.616 -16.341  0.00  0.00    -0.301 N 
ATOM      2  N   UNK     1      34.820 -21.863 -19.181  0.00  0.00    -0.248 NA
ATOM      3  N   UNK     1      32.699 -22.802 -18.525  0.00  0.00    -0.233 NA
ATOM      4  C   UNK     1      34.526 -22.680 -16.945  0.00  0.00    +0.117 C 
ATOM      5  C   UNK     1      36.361 -22.552 -15.370  0.00  0.00    +0.047 C 
ATOM      6  C   UNK     1      35.049 -22.910 -15.661  0.00  0.00    +0.001 C 
ATOM      7  C   UNK     1      35.309 -22.089 -17.950  0.00  0.00    +0.067 C 
ATOM      8  C   UNK     1      33.221 -23.014 -17.302  0.00  0.00    +0.115 C 
ATOM      9  C   UNK     1      37.146 -21.965 -16.355  0.00  0.00    +0.016 C 
ATOM     10  C   UNK     1      36.620 -21.739 -17.630  0.00  0.00    +0.016 C 
ATOM     11  C   UNK     1      33.541 -22.232 -19.402  0.00  0.00    +0.251 C 
ATOM     12  H   UNK     1      32.847 -24.162 -15.675  0.00  0.00    +0.153 HD
ENDROOT
BRANCH   1  13
ATOM     13  C   UNK     1      30.979 -23.582 -16.155  0.00  0.00    +0.049 C 
ATOM     14  C   UNK     1      30.255 -22.446 -16.518  0.00  0.00    +0.015 C 
ATOM     15  C   UNK     1      30.323 -24.682 -15.605  0.00  0.00    +0.015 C 
ATOM     16  C   UNK     1      28.873 -22.412 -16.333  0.00  0.00    +0.001 C 
ATOM     17  C   UNK     1      28.940 -24.648 -15.420  0.00  0.00    +0.001 C 
ATOM     18  C   UNK     1      28.216 -23.513 -15.784  0.00  0.00    +0.000 C 
ENDBRANCH   1  13
BRANCH   5  20
ATOM     19  O   UNK     1      35.063 -23.658 -12.897  0.00  0.00    -0.275 OA
ATOM     20  N   UNK     1      36.886 -22.777 -14.097  0.00  0.00    -0.284 N 
ATOM     21  C   UNK     1      36.235 -23.299 -12.968  0.00  0.00    +0.227 C 
ATOM     22  H   UNK     1      37.834 -22.539 -13.975  0.00  0.00    +0.155 HD
BRANCH  21  23
ATOM     23  C   UNK     1      37.178 -23.380 -11.775  0.00  0.00    +0.097 C 
BRANCH  23  24
ATOM     24  C   UNK     1      38.276 -24.418 -11.977  0.00  0.00    +0.067 C 
BRANCH  24  25
ATOM     25  S   UNK     1      37.560 -26.045 -12.345  0.00  0.00    -0.141 S 
BRANCH  25  26
ATOM     26  C   UNK     1      38.062 -26.166 -14.077  0.00  0.00    +0.047 C 
BRANCH  26  27
ATOM     27  C   UNK     1      39.308 -25.331 -14.372  0.00  0.00    +0.047 C 
BRANCH  27  28
ATOM     28  N   UNK     1      39.069 -24.464 -15.528  0.00  0.00    +0.389 N 
ATOM     29  H   UNK     1      38.170 -24.699 -15.948  0.00  0.00    -0.088 HD
ATOM     30  H   UNK     1      39.811 -24.601 -16.214  0.00  0.00    -0.088 HD
ATOM     31  H   UNK     1      39.059 -23.490 -15.226  0.00  0.00    -0.088 HD
ENDBRANCH  27  28
BRANCH  27  33
ATOM     32  O   UNK     1      41.161 -26.788 -13.836  0.00  0.00    -0.253 OA
ATOM     33  C   UNK     1      40.516 -26.192 -14.690  0.00  0.00    +0.294 C 
BRANCH  33  34
ATOM     34  O   UNK     1      40.841 -26.215 -16.007  0.00  0.00    -0.482 OA
ATOM     35  H   UNK     1      40.175 -26.097 -16.656  0.00  0.00    +0.295 HD
ENDBRANCH  33  34
ENDBRANCH  27  33
ENDBRANCH  26  27
ENDBRANCH  25  26
ENDBRANCH  24  25
ENDBRANCH  23  24
ENDBRANCH  21  23
ENDBRANCH   5  20
TORSDOF 10
ENDMDL
MODEL 8
REMARK VINA RESULT:      -9.4      3.223      9.970
REMARK  Name = 46937083
REMARK  10 active torsions:
REMARK  status: ('A' for Active; 'I' for Inactive)
REMARK    1  A    between atoms: N_1  and  C_13
REMARK    2  A    between atoms: C_5  and  N_20
REMARK    3  A    between atoms: C_21  and  C_23
REMARK    4  A    between atoms: C_23  and  C_24
REMARK    5  A    between atoms: C_24  and  S_25
REMARK    6  A    between atoms: S_25  and  C_26
REMARK    7  A    between atoms: C_26  and  C_27
REMARK    8  A    between atoms: C_27  and  N_28
REMARK    9  A    between atoms: C_27  and  C_33
REMARK   10  A    between atoms: C_33  and  O_34
REMARK                            x       y       z     vdW  Elec       q    Type
REMARK                         _______ _______ _______ _____ _____    ______ ____
ROOT
ATOM      1  N   UNK     1      32.878  -8.408 -23.317  0.00  0.00    -0.301 N 
ATOM      2  N   UNK     1      31.670  -9.670 -19.564  0.00  0.00    -0.248 NA
ATOM      3  N   UNK     1      32.260  -7.910 -21.102  0.00  0.00    -0.233 NA
ATOM      4  C   UNK     1      32.293 -10.221 -21.814  0.00  0.00    +0.117 C 
ATOM      5  C   UNK     1      32.323 -12.538 -22.519  0.00  0.00    +0.047 C 
ATOM      6  C   UNK     1      32.512 -11.190 -22.808  0.00  0.00    +0.001 C 
ATOM      7  C   UNK     1      31.883 -10.589 -20.523  0.00  0.00    +0.067 C 
ATOM      8  C   UNK     1      32.463  -8.856 -22.038  0.00  0.00    +0.115 C 
ATOM      9  C   UNK     1      31.916 -12.915 -21.244  0.00  0.00    +0.016 C 
ATOM     10  C   UNK     1      31.701 -11.945 -20.261  0.00  0.00    +0.016 C 
ATOM     11  C   UNK     1      31.870  -8.381 -19.906  0.00  0.00    +0.251 C 
ATOM     12  H   UNK     1      33.442  -9.054 -23.801  0.00  0.00    +0.153 HD
ENDROOT
BRANCH   1  13
ATOM     13  C   UNK     1      32.638  -7.222 -24.028  0.00  0.00    +0.049 C 
ATOM     14  C   UNK     1      33.663  -6.634 -24.770  0.00  0.00    +0.015 C 
ATOM     15  C   UNK     1      31.376  -6.629 -23.991  0.00  0.00    +0.015 C 
ATOM     16  C   UNK     1      33.424  -5.455 -25.476  0.00  0.00    +0.001 C 
ATOM     17  C   UNK     1      31.137  -5.451 -24.697  0.00  0.00    +0.001 C 
ATOM     18  C   UNK     1      32.161  -4.863 -25.440  0.00  0.00    +0.000 C 
ENDBRANCH   1  13
BRANCH   5  20
ATOM     19  O   UNK     1      34.662 -14.367 -22.970  0.00  0.00    -0.275 OA
ATOM     20  N   UNK     1      32.538 -13.505 -23.501  0.00  0.00    -0.284 N 
ATOM     21  C   UNK     1      33.654 -14.339 -23.670  0.00  0.00    +0.227 C 
ATOM     22  H   UNK     1      31.814 -13.617 -24.160  0.00  0.00    +0.155 HD
BRANCH  21  23
ATOM     23  C   UNK     1      33.481 -15.255 -24.875  0.00  0.00    +0.097 C 
BRANCH  23  24
ATOM     24  C   UNK     1      34.721 -16.100 -25.140  0.00  0.00    +0.067 C 
BRANCH  24  25
ATOM     25  S   UNK     1      34.455 -17.815 -24.609  0.00  0.00    -0.141 S 
BRANCH  25  26
ATOM     26  C   UNK     1      35.432 -17.774 -23.088  0.00  0.00    +0.047 C 
BRANCH  26  27
ATOM     27  C   UNK     1      34.548 -17.781 -21.840  0.00  0.00    +0.047 C 
BRANCH  27  28
ATOM     28  N   UNK     1      34.895 -16.653 -20.973  0.00  0.00    +0.389 N 
ATOM     29  H   UNK     1      35.519 -16.020 -21.473  0.00  0.00    -0.088 HD
ATOM     30  H   UNK     1      35.363 -17.000 -20.136  0.00  0.00    -0.088 HD
ATOM     31  H   UNK     1      34.046 -16.155 -20.708  0.00  0.00    -0.088 HD
ENDBRANCH  27  28
BRANCH  27  33
ATOM     32  O   UNK     1      35.754 -19.356 -20.458  0.00  0.00    -0.253 OA
ATOM     33  C   UNK     1      34.713 -19.051 -21.026  0.00  0.00    +0.294 C 
BRANCH  33  34
ATOM     34  O   UNK     1      33.609 -19.840 -21.014  0.00  0.00    -0.482 OA
ATOM     35  H   UNK     1      33.373 -20.328 -21.779  0.00  0.00    +0.295 HD
ENDBRANCH  33  34
ENDBRANCH  27  33
ENDBRANCH  26  27
ENDBRANCH  25  26
ENDBRANCH  24  25
ENDBRANCH  23  24
ENDBRANCH  21  23
ENDBRANCH   5  20
TORSDOF 10
ENDMDL
MODEL 9
REMARK VINA RESULT:      -9.3      4.719      9.758
REMARK  Name = 46937083
REMARK  10 active torsions:
REMARK  status: ('A' for Active; 'I' for Inactive)
REMARK    1  A    between atoms: N_1  and  C_13
REMARK    2  A    between atoms: C_5  and  N_20
REMARK    3  A    between atoms: C_21  and  C_23
REMARK    4  A    between atoms: C_23  and  C_24
REMARK    5  A    between atoms: C_24  and  S_25
REMARK    6  A    between atoms: S_25  and  C_26
REMARK    7  A    between atoms: C_26  and  C_27
REMARK    8  A    between atoms: C_27  and  N_28
REMARK    9  A    between atoms: C_27  and  C_33
REMARK   10  A    between atoms: C_33  and  O_34
REMARK                            x       y       z     vdW  Elec       q    Type
REMARK                         _______ _______ _______ _____ _____    ______ ____
ROOT
ATOM      1  N   UNK     1      32.595 -14.084 -22.333  0.00  0.00    -0.301 N 
ATOM      2  N   UNK     1      33.575 -15.455 -26.115  0.00  0.00    -0.248 NA
ATOM      3  N   UNK     1      32.417 -13.908 -24.673  0.00  0.00    -0.233 NA
ATOM      4  C   UNK     1      33.784 -15.668 -23.735  0.00  0.00    +0.117 C 
ATOM      5  C   UNK     1      35.157 -17.433 -22.804  0.00  0.00    +0.047 C 
ATOM      6  C   UNK     1      34.320 -16.338 -22.621  0.00  0.00    +0.001 C 
ATOM      7  C   UNK     1      34.081 -16.087 -25.041  0.00  0.00    +0.067 C 
ATOM      8  C   UNK     1      32.941 -14.565 -23.621  0.00  0.00    +0.115 C 
ATOM      9  C   UNK     1      35.459 -17.858 -24.093  0.00  0.00    +0.016 C 
ATOM     10  C   UNK     1      34.922 -17.187 -25.196  0.00  0.00    +0.016 C 
ATOM     11  C   UNK     1      32.771 -14.399 -25.872  0.00  0.00    +0.251 C 
ATOM     12  H   UNK     1      32.577 -14.783 -21.640  0.00  0.00    +0.153 HD
ENDROOT
BRANCH   1  13
ATOM     13  C   UNK     1      32.275 -12.804 -21.855  0.00  0.00    +0.049 C 
ATOM     14  C   UNK     1      31.906 -12.630 -20.521  0.00  0.00    +0.015 C 
ATOM     15  C   UNK     1      32.323 -11.707 -22.715  0.00  0.00    +0.015 C 
ATOM     16  C   UNK     1      31.587 -11.358 -20.046  0.00  0.00    +0.001 C 
ATOM     17  C   UNK     1      32.004 -10.434 -22.240  0.00  0.00    +0.001 C 
ATOM     18  C   UNK     1      31.637 -10.260 -20.905  0.00  0.00    +0.000 C 
ENDBRANCH   1  13
BRANCH   5  20
ATOM     19  O   UNK     1      34.710 -20.236 -21.823  0.00  0.00    -0.275 OA
ATOM     20  N   UNK     1      35.692 -18.102 -21.703  0.00  0.00    -0.284 N 
ATOM     21  C   UNK     1      35.451 -19.420 -21.284  0.00  0.00    +0.227 C 
ATOM     22  H   UNK     1      36.319 -17.583 -21.148  0.00  0.00    +0.155 HD
BRANCH  21  23
ATOM     23  C   UNK     1      36.242 -19.753 -20.026  0.00  0.00    +0.097 C 
BRANCH  23  24
ATOM     24  C   UNK     1      36.491 -21.249 -19.880  0.00  0.00    +0.067 C 
BRANCH  24  25
ATOM     25  S   UNK     1      35.470 -21.943 -18.549  0.00  0.00    -0.141 S 
BRANCH  25  26
ATOM     26  C   UNK     1      36.695 -21.887 -17.221  0.00  0.00    +0.047 C 
BRANCH  26  27
ATOM     27  C   UNK     1      36.372 -22.878 -16.103  0.00  0.00    +0.047 C 
BRANCH  27  28
ATOM     28  N   UNK     1      35.339 -22.324 -15.225  0.00  0.00    +0.389 N 
ATOM     29  H   UNK     1      35.460 -21.314 -15.153  0.00  0.00    -0.088 HD
ATOM     30  H   UNK     1      35.420 -22.744 -14.299  0.00  0.00    -0.088 HD
ATOM     31  H   UNK     1      34.419 -22.530 -15.613  0.00  0.00    -0.088 HD
ENDBRANCH  27  28
BRANCH  27  33
ATOM     32  O   UNK     1      37.571 -23.140 -14.019  0.00  0.00    -0.253 OA
ATOM     33  C   UNK     1      37.583 -23.189 -15.243  0.00  0.00    +0.294 C 
BRANCH  33  34
ATOM     34  O   UNK     1      38.696 -23.494 -15.956  0.00  0.00    -0.482 OA
ATOM     35  H   UNK     1      38.819 -23.132 -16.812  0.00  0.00    +0.295 HD
ENDBRANCH  33  34
ENDBRANCH  27  33
ENDBRANCH  26  27
ENDBRANCH  25  26
ENDBRANCH  24  25
ENDBRANCH  23  24
ENDBRANCH  21  23
ENDBRANCH   5  20
TORSDOF 10
ENDMDL
