MODEL 1
REMARK VINA RESULT:      -6.7      0.000      0.000
REMARK  Name = 71467
REMARK  5 active torsions:
REMARK  status: ('A' for Active; 'I' for Inactive)
REMARK    1  A    between atoms: C_1  and  C_2
REMARK    2  A    between atoms: C_1  and  O_9
REMARK    3  A    between atoms: C_2  and  N_4
REMARK    4  A    between atoms: N_4  and  N_6
REMARK    5  A    between atoms: O_9  and  C_10
REMARK                            x       y       z     vdW  Elec       q    Type
REMARK                         _______ _______ _______ _____ _____    ______ ____
ROOT
ATOM      1  C   UNL     1      35.551 -18.625 -23.238  0.00  0.00    +0.222 C 
ENDROOT
BRANCH   1   2
ATOM      2  C   UNL     1      34.804 -17.419 -23.810  0.00  0.00    +0.112 C 
ATOM      3  C   UNL     1      34.495 -17.596 -25.296  0.00  0.00    +0.022 C 
BRANCH   2   4
ATOM      4  N   UNL     1      35.605 -16.213 -23.603  0.00  0.00    -0.246 NA
ATOM      5  H   UNL     1      36.548 -16.470 -23.310  0.00  0.00    +0.141 HD
BRANCH   4   6
ATOM      6  N   UNL     1      34.978 -15.434 -22.588  0.00  0.00    -0.270 NA
ATOM      7  H   UNL     1      35.558 -14.623 -22.375  0.00  0.00    +0.137 HD
ATOM      8  H   UNL     1      34.862 -15.999 -21.747  0.00  0.00    +0.137 HD
ENDBRANCH   4   6
ENDBRANCH   2   4
ENDBRANCH   1   2
BRANCH   1   9
ATOM      9  O   UNL     1      35.642 -18.505 -21.823  0.00  0.00    -0.474 OA
BRANCH   9  10
ATOM     10  C   UNL     1      34.978 -19.446 -21.080  0.00  0.00    +0.139 C 
ATOM     11  C   UNL     1      35.700 -20.424 -20.404  0.00  0.00    +0.037 C 
ATOM     12  C   UNL     1      33.590 -19.415 -21.012  0.00  0.00    +0.037 C 
ATOM     13  C   UNL     1      35.024 -21.383 -19.650  0.00  0.00    +0.003 C 
ATOM     14  C   UNL     1      32.915 -20.374 -20.257  0.00  0.00    +0.003 C 
ATOM     15  C   UNL     1      33.632 -21.358 -19.575  0.00  0.00    +0.000 C 
ENDBRANCH   9  10
ENDBRANCH   1   9
TORSDOF 5
ENDMDL
MODEL 2
REMARK VINA RESULT:      -6.7      0.172      1.405
REMARK  Name = 71467
REMARK  5 active torsions:
REMARK  status: ('A' for Active; 'I' for Inactive)
REMARK    1  A    between atoms: C_1  and  C_2
REMARK    2  A    between atoms: C_1  and  O_9
REMARK    3  A    between atoms: C_2  and  N_4
REMARK    4  A    between atoms: N_4  and  N_6
REMARK    5  A    between atoms: O_9  and  C_10
REMARK                            x       y       z     vdW  Elec       q    Type
REMARK                         _______ _______ _______ _____ _____    ______ ____
ROOT
ATOM      1  C   UNL     1      35.731 -18.502 -23.033  0.00  0.00    +0.222 C 
ENDROOT
BRANCH   1   2
ATOM      2  C   UNL     1      34.862 -17.446 -23.719  0.00  0.00    +0.112 C 
ATOM      3  C   UNL     1      34.528 -17.835 -25.159  0.00  0.00    +0.022 C 
BRANCH   2   4
ATOM      4  N   UNL     1      35.555 -16.159 -23.693  0.00  0.00    -0.246 NA
ATOM      5  H   UNL     1      36.548 -16.305 -23.507  0.00  0.00    +0.141 HD
BRANCH   4   6
ATOM      6  N   UNL     1      34.980 -15.367 -22.657  0.00  0.00    -0.270 NA
ATOM      7  H   UNL     1      35.720 -14.885 -22.148  0.00  0.00    +0.137 HD
ATOM      8  H   UNL     1      34.463 -15.968 -22.016  0.00  0.00    +0.137 HD
ENDBRANCH   4   6
ENDBRANCH   2   4
ENDBRANCH   1   2
BRANCH   1   9
ATOM      9  O   UNL     1      35.620 -18.369 -21.621  0.00  0.00    -0.474 OA
BRANCH   9  10
ATOM     10  C   UNL     1      34.998 -19.391 -20.953  0.00  0.00    +0.139 C 
ATOM     11  C   UNL     1      33.610 -19.428 -20.890  0.00  0.00    +0.037 C 
ATOM     12  C   UNL     1      35.762 -20.381 -20.345  0.00  0.00    +0.037 C 
ATOM     13  C   UNL     1      32.977 -20.467 -20.208  0.00  0.00    +0.003 C 
ATOM     14  C   UNL     1      35.129 -21.421 -19.663  0.00  0.00    +0.003 C 
ATOM     15  C   UNL     1      33.736 -21.464 -19.596  0.00  0.00    +0.000 C 
ENDBRANCH   9  10
ENDBRANCH   1   9
TORSDOF 5
ENDMDL
MODEL 3
REMARK VINA RESULT:      -6.7      1.674      2.355
REMARK  Name = 71467
REMARK  5 active torsions:
REMARK  status: ('A' for Active; 'I' for Inactive)
REMARK    1  A    between atoms: C_1  and  C_2
REMARK    2  A    between atoms: C_1  and  O_9
REMARK    3  A    between atoms: C_2  and  N_4
REMARK    4  A    between atoms: N_4  and  N_6
REMARK    5  A    between atoms: O_9  and  C_10
REMARK                            x       y       z     vdW  Elec       q    Type
REMARK                         _______ _______ _______ _____ _____    ______ ____
ROOT
ATOM      1  C   UNL     1      35.204 -17.166 -21.320  0.00  0.00    +0.222 C 
ENDROOT
BRANCH   1   2
ATOM      2  C   UNL     1      34.597 -15.770 -21.471  0.00  0.00    +0.112 C 
ATOM      3  C   UNL     1      33.110 -15.757 -21.116  0.00  0.00    +0.022 C 
BRANCH   2   4
ATOM      4  N   UNL     1      34.789 -15.305 -22.843  0.00  0.00    -0.246 NA
ATOM      5  H   UNL     1      33.888 -15.250 -23.319  0.00  0.00    +0.141 HD
BRANCH   4   6
ATOM      6  N   UNL     1      35.633 -16.239 -23.513  0.00  0.00    -0.270 NA
ATOM      7  H   UNL     1      36.211 -15.748 -24.194  0.00  0.00    +0.137 HD
ATOM      8  H   UNL     1      35.060 -16.934 -23.992  0.00  0.00    +0.137 HD
ENDBRANCH   4   6
ENDBRANCH   2   4
ENDBRANCH   1   2
BRANCH   1   9
ATOM      9  O   UNL     1      34.236 -18.149 -21.666  0.00  0.00    -0.474 OA
BRANCH   9  10
ATOM     10  C   UNL     1      34.266 -19.321 -20.956  0.00  0.00    +0.139 C 
ATOM     11  C   UNL     1      33.076 -19.891 -20.518  0.00  0.00    +0.037 C 
ATOM     12  C   UNL     1      35.487 -19.927 -20.681  0.00  0.00    +0.037 C 
ATOM     13  C   UNL     1      33.108 -21.083 -19.794  0.00  0.00    +0.003 C 
ATOM     14  C   UNL     1      35.518 -21.119 -19.957  0.00  0.00    +0.003 C 
ATOM     15  C   UNL     1      34.328 -21.698 -19.515  0.00  0.00    +0.000 C 
ENDBRANCH   9  10
ENDBRANCH   1   9
TORSDOF 5
ENDMDL
MODEL 4
REMARK VINA RESULT:      -6.5      4.770      6.585
REMARK  Name = 71467
REMARK  5 active torsions:
REMARK  status: ('A' for Active; 'I' for Inactive)
REMARK    1  A    between atoms: C_1  and  C_2
REMARK    2  A    between atoms: C_1  and  O_9
REMARK    3  A    between atoms: C_2  and  N_4
REMARK    4  A    between atoms: N_4  and  N_6
REMARK    5  A    between atoms: O_9  and  C_10
REMARK                            x       y       z     vdW  Elec       q    Type
REMARK                         _______ _______ _______ _____ _____    ______ ____
ROOT
ATOM      1  C   UNL     1      36.496 -21.841 -17.759  0.00  0.00    +0.222 C 
ENDROOT
BRANCH   1   2
ATOM      2  C   UNL     1      36.258 -22.471 -16.385  0.00  0.00    +0.112 C 
ATOM      3  C   UNL     1      37.563 -22.946 -15.746  0.00  0.00    +0.022 C 
BRANCH   2   4
ATOM      4  N   UNL     1      35.329 -23.591 -16.522  0.00  0.00    -0.246 NA
ATOM      5  H   UNL     1      35.331 -23.926 -17.486  0.00  0.00    +0.141 HD
BRANCH   4   6
ATOM      6  N   UNL     1      34.026 -23.131 -16.173  0.00  0.00    -0.270 NA
ATOM      7  H   UNL     1      33.438 -23.928 -15.928  0.00  0.00    +0.137 HD
ATOM      8  H   UNL     1      33.615 -22.638 -16.965  0.00  0.00    +0.137 HD
ENDBRANCH   4   6
ENDBRANCH   2   4
ENDBRANCH   1   2
BRANCH   1   9
ATOM      9  O   UNL     1      35.542 -22.344 -18.687  0.00  0.00    -0.474 OA
BRANCH   9  10
ATOM     10  C   UNL     1      34.926 -21.426 -19.497  0.00  0.00    +0.139 C 
ATOM     11  C   UNL     1      33.540 -21.317 -19.484  0.00  0.00    +0.037 C 
ATOM     12  C   UNL     1      35.694 -20.614 -20.324  0.00  0.00    +0.037 C 
ATOM     13  C   UNL     1      32.914 -20.383 -20.310  0.00  0.00    +0.003 C 
ATOM     14  C   UNL     1      35.067 -19.680 -21.150  0.00  0.00    +0.003 C 
ATOM     15  C   UNL     1      33.676 -19.565 -21.142  0.00  0.00    +0.000 C 
ENDBRANCH   9  10
ENDBRANCH   1   9
TORSDOF 5
ENDMDL
MODEL 5
REMARK VINA RESULT:      -6.4      5.062      6.782
REMARK  Name = 71467
REMARK  5 active torsions:
REMARK  status: ('A' for Active; 'I' for Inactive)
REMARK    1  A    between atoms: C_1  and  C_2
REMARK    2  A    between atoms: C_1  and  O_9
REMARK    3  A    between atoms: C_2  and  N_4
REMARK    4  A    between atoms: N_4  and  N_6
REMARK    5  A    between atoms: O_9  and  C_10
REMARK                            x       y       z     vdW  Elec       q    Type
REMARK                         _______ _______ _______ _____ _____    ______ ____
ROOT
ATOM      1  C   UNL     1      36.401 -22.000 -17.437  0.00  0.00    +0.222 C 
ENDROOT
BRANCH   1   2
ATOM      2  C   UNL     1      36.427 -22.902 -16.203  0.00  0.00    +0.112 C 
ATOM      3  C   UNL     1      35.176 -22.723 -15.343  0.00  0.00    +0.022 C 
BRANCH   2   4
ATOM      4  N   UNL     1      37.623 -22.609 -15.416  0.00  0.00    -0.246 NA
ATOM      5  H   UNL     1      37.960 -21.670 -15.634  0.00  0.00    +0.141 HD
BRANCH   4   6
ATOM      6  N   UNL     1      38.621 -23.570 -15.751  0.00  0.00    -0.270 NA
ATOM      7  H   UNL     1      38.279 -24.167 -16.504  0.00  0.00    +0.137 HD
ATOM      8  H   UNL     1      38.832 -24.142 -14.933  0.00  0.00    +0.137 HD
ENDBRANCH   4   6
ENDBRANCH   2   4
ENDBRANCH   1   2
BRANCH   1   9
ATOM      9  O   UNL     1      35.413 -22.465 -18.349  0.00  0.00    -0.474 OA
BRANCH   9  10
ATOM     10  C   UNL     1      34.934 -21.556 -19.257  0.00  0.00    +0.139 C 
ATOM     11  C   UNL     1      35.827 -20.808 -20.017  0.00  0.00    +0.037 C 
ATOM     12  C   UNL     1      33.563 -21.392 -19.408  0.00  0.00    +0.037 C 
ATOM     13  C   UNL     1      35.339 -19.882 -20.939  0.00  0.00    +0.003 C 
ATOM     14  C   UNL     1      33.076 -20.465 -20.331  0.00  0.00    +0.003 C 
ATOM     15  C   UNL     1      33.965 -19.711 -21.097  0.00  0.00    +0.000 C 
ENDBRANCH   9  10
ENDBRANCH   1   9
TORSDOF 5
ENDMDL
MODEL 6
REMARK VINA RESULT:      -6.3      3.502      5.439
REMARK  Name = 71467
REMARK  5 active torsions:
REMARK  status: ('A' for Active; 'I' for Inactive)
REMARK    1  A    between atoms: C_1  and  C_2
REMARK    2  A    between atoms: C_1  and  O_9
REMARK    3  A    between atoms: C_2  and  N_4
REMARK    4  A    between atoms: N_4  and  N_6
REMARK    5  A    between atoms: O_9  and  C_10
REMARK                            x       y       z     vdW  Elec       q    Type
REMARK                         _______ _______ _______ _____ _____    ______ ____
ROOT
ATOM      1  C   UNL     1      33.668 -20.126 -20.564  0.00  0.00    +0.222 C 
ENDROOT
BRANCH   1   2
ATOM      2  C   UNL     1      34.093 -21.170 -19.530  0.00  0.00    +0.112 C 
ATOM      3  C   UNL     1      35.526 -21.648 -19.762  0.00  0.00    +0.022 C 
BRANCH   2   4
ATOM      4  N   UNL     1      33.171 -22.304 -19.581  0.00  0.00    -0.246 NA
ATOM      5  H   UNL     1      32.444 -22.191 -18.874  0.00  0.00    +0.141 HD
BRANCH   4   6
ATOM      6  N   UNL     1      33.915 -23.492 -19.324  0.00  0.00    -0.270 NA
ATOM      7  H   UNL     1      33.796 -24.143 -20.099  0.00  0.00    +0.137 HD
ATOM      8  H   UNL     1      33.580 -23.924 -18.463  0.00  0.00    +0.137 HD
ENDBRANCH   4   6
ENDBRANCH   2   4
ENDBRANCH   1   2
BRANCH   1   9
ATOM      9  O   UNL     1      34.671 -19.122 -20.669  0.00  0.00    -0.474 OA
BRANCH   9  10
ATOM     10  C   UNL     1      34.765 -18.468 -21.870  0.00  0.00    +0.139 C 
ATOM     11  C   UNL     1      34.938 -17.089 -21.891  0.00  0.00    +0.037 C 
ATOM     12  C   UNL     1      34.685 -19.191 -23.054  0.00  0.00    +0.037 C 
ATOM     13  C   UNL     1      35.031 -16.424 -23.113  0.00  0.00    +0.003 C 
ATOM     14  C   UNL     1      34.780 -18.526 -24.277  0.00  0.00    +0.003 C 
ATOM     15  C   UNL     1      34.953 -17.142 -24.306  0.00  0.00    +0.000 C 
ENDBRANCH   9  10
ENDBRANCH   1   9
TORSDOF 5
ENDMDL
MODEL 7
REMARK VINA RESULT:      -6.3      3.191      5.105
REMARK  Name = 71467
REMARK  5 active torsions:
REMARK  status: ('A' for Active; 'I' for Inactive)
REMARK    1  A    between atoms: C_1  and  C_2
REMARK    2  A    between atoms: C_1  and  O_9
REMARK    3  A    between atoms: C_2  and  N_4
REMARK    4  A    between atoms: N_4  and  N_6
REMARK    5  A    between atoms: O_9  and  C_10
REMARK                            x       y       z     vdW  Elec       q    Type
REMARK                         _______ _______ _______ _____ _____    ______ ____
ROOT
ATOM      1  C   UNL     1      35.810 -18.957 -21.295  0.00  0.00    +0.222 C 
ENDROOT
BRANCH   1   2
ATOM      2  C   UNL     1      34.983 -20.178 -20.892  0.00  0.00    +0.112 C 
ATOM      3  C   UNL     1      33.510 -19.823 -20.688  0.00  0.00    +0.022 C 
BRANCH   2   4
ATOM      4  N   UNL     1      35.535 -20.753 -19.667  0.00  0.00    -0.246 NA
ATOM      5  H   UNL     1      34.907 -20.568 -18.884  0.00  0.00    +0.141 HD
BRANCH   4   6
ATOM      6  N   UNL     1      36.801 -20.146 -19.424  0.00  0.00    -0.270 NA
ATOM      7  H   UNL     1      36.731 -19.521 -18.622  0.00  0.00    +0.137 HD
ATOM      8  H   UNL     1      37.087 -19.614 -20.246  0.00  0.00    +0.137 HD
ENDBRANCH   4   6
ENDBRANCH   2   4
ENDBRANCH   1   2
BRANCH   1   9
ATOM      9  O   UNL     1      35.335 -17.808 -20.602  0.00  0.00    -0.474 OA
BRANCH   9  10
ATOM     10  C   UNL     1      34.998 -16.723 -21.368  0.00  0.00    +0.139 C 
ATOM     11  C   UNL     1      34.512 -15.572 -20.755  0.00  0.00    +0.037 C 
ATOM     12  C   UNL     1      35.144 -16.783 -22.749  0.00  0.00    +0.037 C 
ATOM     13  C   UNL     1      34.167 -14.469 -21.535  0.00  0.00    +0.003 C 
ATOM     14  C   UNL     1      34.799 -15.678 -23.529  0.00  0.00    +0.003 C 
ATOM     15  C   UNL     1      34.311 -14.521 -22.921  0.00  0.00    +0.000 C 
ENDBRANCH   9  10
ENDBRANCH   1   9
TORSDOF 5
ENDMDL
MODEL 8
REMARK VINA RESULT:      -6.1      8.052      9.283
REMARK  Name = 71467
REMARK  5 active torsions:
REMARK  status: ('A' for Active; 'I' for Inactive)
REMARK    1  A    between atoms: C_1  and  C_2
REMARK    2  A    between atoms: C_1  and  O_9
REMARK    3  A    between atoms: C_2  and  N_4
REMARK    4  A    between atoms: N_4  and  N_6
REMARK    5  A    between atoms: O_9  and  C_10
REMARK                            x       y       z     vdW  Elec       q    Type
REMARK                         _______ _______ _______ _____ _____    ______ ____
ROOT
ATOM      1  C   UNL     1      35.832 -25.085 -14.836  0.00  0.00    +0.222 C 
ENDROOT
BRANCH   1   2
ATOM      2  C   UNL     1      37.353 -25.159 -14.691  0.00  0.00    +0.112 C 
ATOM      3  C   UNL     1      38.035 -23.902 -15.231  0.00  0.00    +0.022 C 
BRANCH   2   4
ATOM      4  N   UNL     1      37.848 -26.340 -15.395  0.00  0.00    -0.246 NA
ATOM      5  H   UNL     1      38.488 -26.057 -16.139  0.00  0.00    +0.141 HD
BRANCH   4   6
ATOM      6  N   UNL     1      36.730 -27.024 -15.955  0.00  0.00    -0.270 NA
ATOM      7  H   UNL     1      36.057 -27.236 -15.218  0.00  0.00    +0.137 HD
ATOM      8  H   UNL     1      37.043 -27.892 -16.388  0.00  0.00    +0.137 HD
ENDBRANCH   4   6
ENDBRANCH   2   4
ENDBRANCH   1   2
BRANCH   1   9
ATOM      9  O   UNL     1      35.494 -24.189 -15.888  0.00  0.00    -0.474 OA
BRANCH   9  10
ATOM     10  C   UNL     1      34.184 -23.793 -15.963  0.00  0.00    +0.139 C 
ATOM     11  C   UNL     1      33.357 -23.937 -14.855  0.00  0.00    +0.037 C 
ATOM     12  C   UNL     1      33.696 -23.253 -17.147  0.00  0.00    +0.037 C 
ATOM     13  C   UNL     1      32.023 -23.536 -14.933  0.00  0.00    +0.003 C 
ATOM     14  C   UNL     1      32.362 -22.851 -17.224  0.00  0.00    +0.003 C 
ATOM     15  C   UNL     1      31.526 -22.992 -16.117  0.00  0.00    +0.000 C 
ENDBRANCH   9  10
ENDBRANCH   1   9
TORSDOF 5
ENDMDL
MODEL 9
REMARK VINA RESULT:      -6.1     10.201     12.374
REMARK  Name = 71467
REMARK  5 active torsions:
REMARK  status: ('A' for Active; 'I' for Inactive)
REMARK    1  A    between atoms: C_1  and  C_2
REMARK    2  A    between atoms: C_1  and  O_9
REMARK    3  A    between atoms: C_2  and  N_4
REMARK    4  A    between atoms: N_4  and  N_6
REMARK    5  A    between atoms: O_9  and  C_10
REMARK                            x       y       z     vdW  Elec       q    Type
REMARK                         _______ _______ _______ _____ _____    ______ ____
ROOT
ATOM      1  C   UNL     1      31.862  -9.074 -21.674  0.00  0.00    +0.222 C 
ENDROOT
BRANCH   1   2
ATOM      2  C   UNL     1      32.219  -9.212 -20.194  0.00  0.00    +0.112 C 
ATOM      3  C   UNL     1      31.435 -10.341 -19.524  0.00  0.00    +0.022 C 
BRANCH   2   4
ATOM      4  N   UNL     1      31.957  -7.946 -19.513  0.00  0.00    -0.246 NA
ATOM      5  H   UNL     1      31.206  -7.446 -19.990  0.00  0.00    +0.141 HD
BRANCH   4   6
ATOM      6  N   UNL     1      33.151  -7.169 -19.545  0.00  0.00    -0.270 NA
ATOM      7  H   UNL     1      33.916  -7.705 -19.136  0.00  0.00    +0.137 HD
ATOM      8  H   UNL     1      33.014  -6.311 -19.012  0.00  0.00    +0.137 HD
ENDBRANCH   4   6
ENDBRANCH   2   4
ENDBRANCH   1   2
BRANCH   1   9
ATOM      9  O   UNL     1      31.786  -7.696 -22.021  0.00  0.00    -0.474 OA
BRANCH   9  10
ATOM     10  C   UNL     1      32.622  -7.264 -23.018  0.00  0.00    +0.139 C 
ATOM     11  C   UNL     1      32.145  -6.383 -23.982  0.00  0.00    +0.037 C 
ATOM     12  C   UNL     1      33.937  -7.712 -23.055  0.00  0.00    +0.037 C 
ATOM     13  C   UNL     1      32.995  -5.945 -24.998  0.00  0.00    +0.003 C 
ATOM     14  C   UNL     1      34.787  -7.274 -24.071  0.00  0.00    +0.003 C 
ATOM     15  C   UNL     1      34.316  -6.390 -25.042  0.00  0.00    +0.000 C 
ENDBRANCH   9  10
ENDBRANCH   1   9
TORSDOF 5
ENDMDL
