MODEL 1
REMARK VINA RESULT:      -6.6      0.000      0.000
REMARK  Name = 65150
REMARK  10 active torsions:
REMARK  status: ('A' for Active; 'I' for Inactive)
REMARK    1  A    between atoms: C_1  and  O_2
REMARK    2  A    between atoms: C_1  and  C_4
REMARK    3  A    between atoms: C_1  and  CA_13
REMARK    4  A    between atoms: C_4  and  O_5
REMARK    5  A    between atoms: C_4  and  C_7
REMARK    6  A    between atoms: C_7  and  O_8
REMARK    7  A    between atoms: C_7  and  C_10
REMARK    8  A    between atoms: C_10  and  O_11
REMARK    9  A    between atoms: CA_13  and  N_15
REMARK   10  A    between atoms: CA_13  and  C_20
REMARK                            x       y       z     vdW  Elec       q    Type
REMARK                         _______ _______ _______ _____ _____    ______ ____
ROOT
ATOM      1  C   UNL     1      37.673 -26.053 -14.946  0.00  0.00    +0.165 C 
ENDROOT
BRANCH   1   2
ATOM      2  O   UNL     1      38.447 -27.246 -14.765  0.00  0.00    -0.380 OA
ATOM      3  H   UNL     1      38.479 -27.740 -15.600  0.00  0.00    +0.211 HD
ENDBRANCH   1   2
BRANCH   1   4
ATOM      4  C   UNL     1      36.494 -26.100 -13.954  0.00  0.00    +0.168 C 
BRANCH   4   5
ATOM      5  O   UNL     1      35.394 -25.416 -14.569  0.00  0.00    -0.379 OA
ATOM      6  H   UNL     1      35.177 -24.624 -14.054  0.00  0.00    +0.211 HD
ENDBRANCH   4   5
BRANCH   4   7
ATOM      7  C   UNL     1      36.762 -25.479 -12.572  0.00  0.00    +0.169 C 
BRANCH   7   8
ATOM      8  O   UNL     1      37.073 -26.501 -11.625  0.00  0.00    -0.379 OA
ATOM      9  H   UNL     1      37.798 -27.048 -11.966  0.00  0.00    +0.211 HD
ENDBRANCH   7   8
BRANCH   7  10
ATOM     10  C   UNL     1      35.548 -24.718 -12.041  0.00  0.00    +0.169 C 
BRANCH  10  11
ATOM     11  O   UNL     1      35.305 -25.119 -10.696  0.00  0.00    -0.379 OA
ATOM     12  H   UNL     1      35.973 -25.768 -10.427  0.00  0.00    +0.211 HD
ENDBRANCH  10  11
ENDBRANCH   7  10
ENDBRANCH   4   7
ENDBRANCH   1   4
BRANCH   1  13
ATOM     13  CA  UNL     1      38.608 -24.845 -14.792  0.00  0.00    +0.166 C 
BRANCH  13  15
ATOM     14  O   UNL     1      36.628 -22.722 -14.717  0.00  0.00    -0.275 OA
ATOM     15  N   UNL     1      38.385 -23.820 -15.781  0.00  0.00    -0.297 N 
ATOM     16  C   UNL     1      37.409 -22.842 -15.657  0.00  0.00    +0.223 C 
ATOM     17  C   UNL     1      37.409 -21.883 -16.817  0.00  0.00    +0.095 C 
ATOM     18  H   UNL     1      38.954 -23.813 -16.584  0.00  0.00    +0.150 HD
ENDBRANCH  13  15
BRANCH  13  20
ATOM     19  O   UNL     1      40.524 -25.865 -15.862  0.00  0.00    -0.286 OA
ATOM     20  C   UNL     1      40.065 -25.250 -14.902  0.00  0.00    +0.229 C 
ENDBRANCH  13  20
ENDBRANCH   1  13
TORSDOF 10
ENDMDL
MODEL 2
REMARK VINA RESULT:      -6.5      1.711      3.014
REMARK  Name = 65150
REMARK  10 active torsions:
REMARK  status: ('A' for Active; 'I' for Inactive)
REMARK    1  A    between atoms: C_1  and  O_2
REMARK    2  A    between atoms: C_1  and  C_4
REMARK    3  A    between atoms: C_1  and  CA_13
REMARK    4  A    between atoms: C_4  and  O_5
REMARK    5  A    between atoms: C_4  and  C_7
REMARK    6  A    between atoms: C_7  and  O_8
REMARK    7  A    between atoms: C_7  and  C_10
REMARK    8  A    between atoms: C_10  and  O_11
REMARK    9  A    between atoms: CA_13  and  N_15
REMARK   10  A    between atoms: CA_13  and  C_20
REMARK                            x       y       z     vdW  Elec       q    Type
REMARK                         _______ _______ _______ _____ _____    ______ ____
ROOT
ATOM      1  C   UNL     1      36.202 -25.850 -14.554  0.00  0.00    +0.165 C 
ENDROOT
BRANCH   1   2
ATOM      2  O   UNL     1      36.144 -26.651 -15.741  0.00  0.00    -0.380 OA
ATOM      3  H   UNL     1      36.342 -26.099 -16.514  0.00  0.00    +0.211 HD
ENDBRANCH   1   2
BRANCH   1   4
ATOM      4  C   UNL     1      37.680 -25.741 -14.129  0.00  0.00    +0.168 C 
BRANCH   4   5
ATOM      5  O   UNL     1      38.381 -26.826 -14.753  0.00  0.00    -0.379 OA
ATOM      6  H   UNL     1      38.633 -26.572 -15.654  0.00  0.00    +0.211 HD
ENDBRANCH   4   5
BRANCH   4   7
ATOM      7  C   UNL     1      37.942 -25.780 -12.614  0.00  0.00    +0.169 C 
BRANCH   7   8
ATOM      8  O   UNL     1      36.851 -26.410 -11.942  0.00  0.00    -0.379 OA
ATOM      9  H   UNL     1      36.700 -27.289 -12.326  0.00  0.00    +0.211 HD
ENDBRANCH   7   8
BRANCH   7  10
ATOM     10  C   UNL     1      38.093 -24.378 -12.024  0.00  0.00    +0.169 C 
BRANCH  10  11
ATOM     11  O   UNL     1      37.149 -24.219 -10.968  0.00  0.00    -0.379 OA
ATOM     12  H   UNL     1      37.118 -25.031 -10.438  0.00  0.00    +0.211 HD
ENDBRANCH  10  11
ENDBRANCH   7  10
ENDBRANCH   4   7
ENDBRANCH   1   4
BRANCH   1  13
ATOM     13  CA  UNL     1      35.506 -24.512 -14.842  0.00  0.00    +0.166 C 
BRANCH  13  15
ATOM     14  O   UNL     1      35.322 -22.793 -17.174  0.00  0.00    -0.275 OA
ATOM     15  N   UNL     1      36.419 -23.466 -15.233  0.00  0.00    -0.297 N 
ATOM     16  C   UNL     1      36.246 -22.693 -16.372  0.00  0.00    +0.223 C 
ATOM     17  C   UNL     1      37.328 -21.659 -16.531  0.00  0.00    +0.095 C 
ATOM     18  H   UNL     1      37.203 -23.293 -14.665  0.00  0.00    +0.150 HD
ENDBRANCH  13  15
BRANCH  13  20
ATOM     19  O   UNL     1      34.610 -24.657 -12.598  0.00  0.00    -0.286 OA
ATOM     20  C   UNL     1      34.752 -24.003 -13.628  0.00  0.00    +0.229 C 
ENDBRANCH  13  20
ENDBRANCH   1  13
TORSDOF 10
ENDMDL
MODEL 3
REMARK VINA RESULT:      -6.2      2.656      4.601
REMARK  Name = 65150
REMARK  10 active torsions:
REMARK  status: ('A' for Active; 'I' for Inactive)
REMARK    1  A    between atoms: C_1  and  O_2
REMARK    2  A    between atoms: C_1  and  C_4
REMARK    3  A    between atoms: C_1  and  CA_13
REMARK    4  A    between atoms: C_4  and  O_5
REMARK    5  A    between atoms: C_4  and  C_7
REMARK    6  A    between atoms: C_7  and  O_8
REMARK    7  A    between atoms: C_7  and  C_10
REMARK    8  A    between atoms: C_10  and  O_11
REMARK    9  A    between atoms: CA_13  and  N_15
REMARK   10  A    between atoms: CA_13  and  C_20
REMARK                            x       y       z     vdW  Elec       q    Type
REMARK                         _______ _______ _______ _____ _____    ______ ____
ROOT
ATOM      1  C   UNL     1      35.768 -24.562 -12.613  0.00  0.00    +0.165 C 
ENDROOT
BRANCH   1   2
ATOM      2  O   UNL     1      35.013 -25.100 -11.520  0.00  0.00    -0.380 OA
ATOM      3  H   UNL     1      34.182 -25.474 -11.854  0.00  0.00    +0.211 HD
ENDBRANCH   1   2
BRANCH   1   4
ATOM      4  C   UNL     1      36.884 -25.569 -12.958  0.00  0.00    +0.168 C 
BRANCH   4   5
ATOM      5  O   UNL     1      36.845 -26.600 -11.963  0.00  0.00    -0.379 OA
ATOM      6  H   UNL     1      36.990 -27.462 -12.384  0.00  0.00    +0.211 HD
ENDBRANCH   4   5
BRANCH   4   7
ATOM      7  C   UNL     1      38.307 -24.988 -13.024  0.00  0.00    +0.169 C 
BRANCH   7   8
ATOM      8  O   UNL     1      38.257 -23.604 -13.370  0.00  0.00    -0.379 OA
ATOM      9  H   UNL     1      38.673 -23.080 -12.667  0.00  0.00    +0.211 HD
ENDBRANCH   7   8
BRANCH   7  10
ATOM     10  C   UNL     1      39.163 -25.692 -14.076  0.00  0.00    +0.169 C 
BRANCH  10  11
ATOM     11  O   UNL     1      38.484 -26.865 -14.515  0.00  0.00    -0.379 OA
ATOM     12  H   UNL     1      37.767 -26.616 -15.118  0.00  0.00    +0.211 HD
ENDBRANCH  10  11
ENDBRANCH   7  10
ENDBRANCH   4   7
ENDBRANCH   1   4
BRANCH   1  13
ATOM     13  CA  UNL     1      34.797 -24.247 -13.759  0.00  0.00    +0.166 C 
BRANCH  13  15
ATOM     14  O   UNL     1      32.263 -23.058 -14.530  0.00  0.00    -0.275 OA
ATOM     15  N   UNL     1      33.476 -24.789 -13.554  0.00  0.00    -0.297 N 
ATOM     16  C   UNL     1      32.318 -24.143 -13.960  0.00  0.00    +0.223 C 
ATOM     17  C   UNL     1      31.079 -24.939 -13.646  0.00  0.00    +0.095 C 
ATOM     18  H   UNL     1      33.393 -25.660 -13.103  0.00  0.00    +0.150 HD
ENDBRANCH  13  15
BRANCH  13  20
ATOM     19  O   UNL     1      35.549 -24.095 -16.055  0.00  0.00    -0.286 OA
ATOM     20  C   UNL     1      35.296 -24.800 -15.081  0.00  0.00    +0.229 C 
ENDBRANCH  13  20
ENDBRANCH   1  13
TORSDOF 10
ENDMDL
MODEL 4
REMARK VINA RESULT:      -6.2      2.208      4.271
REMARK  Name = 65150
REMARK  10 active torsions:
REMARK  status: ('A' for Active; 'I' for Inactive)
REMARK    1  A    between atoms: C_1  and  O_2
REMARK    2  A    between atoms: C_1  and  C_4
REMARK    3  A    between atoms: C_1  and  CA_13
REMARK    4  A    between atoms: C_4  and  O_5
REMARK    5  A    between atoms: C_4  and  C_7
REMARK    6  A    between atoms: C_7  and  O_8
REMARK    7  A    between atoms: C_7  and  C_10
REMARK    8  A    between atoms: C_10  and  O_11
REMARK    9  A    between atoms: CA_13  and  N_15
REMARK   10  A    between atoms: CA_13  and  C_20
REMARK                            x       y       z     vdW  Elec       q    Type
REMARK                         _______ _______ _______ _____ _____    ______ ____
ROOT
ATOM      1  C   UNL     1      36.868 -25.260 -13.452  0.00  0.00    +0.165 C 
ENDROOT
BRANCH   1   2
ATOM      2  O   UNL     1      36.037 -26.206 -14.136  0.00  0.00    -0.380 OA
ATOM      3  H   UNL     1      36.195 -27.094 -13.779  0.00  0.00    +0.211 HD
ENDBRANCH   1   2
BRANCH   1   4
ATOM      4  C   UNL     1      37.894 -24.713 -14.465  0.00  0.00    +0.168 C 
BRANCH   4   5
ATOM      5  O   UNL     1      37.165 -24.317 -15.634  0.00  0.00    -0.379 OA
ATOM      6  H   UNL     1      37.401 -23.407 -15.870  0.00  0.00    +0.211 HD
ENDBRANCH   4   5
BRANCH   4   7
ATOM      7  C   UNL     1      39.009 -25.690 -14.874  0.00  0.00    +0.169 C 
BRANCH   7   8
ATOM      8  O   UNL     1      38.589 -27.037 -14.654  0.00  0.00    -0.379 OA
ATOM      9  H   UNL     1      39.049 -27.397 -13.880  0.00  0.00    +0.211 HD
ENDBRANCH   7   8
BRANCH   7  10
ATOM     10  C   UNL     1      40.287 -25.473 -14.065  0.00  0.00    +0.169 C 
BRANCH  10  11
ATOM     11  O   UNL     1      41.142 -26.599 -14.242  0.00  0.00    -0.379 OA
ATOM     12  H   UNL     1      40.702 -27.394 -13.903  0.00  0.00    +0.211 HD
ENDBRANCH  10  11
ENDBRANCH   7  10
ENDBRANCH   4   7
ENDBRANCH   1   4
BRANCH   1  13
ATOM     13  CA  UNL     1      35.961 -24.202 -12.807  0.00  0.00    +0.166 C 
BRANCH  13  15
ATOM     14  O   UNL     1      33.100 -24.681 -12.937  0.00  0.00    -0.275 OA
ATOM     15  N   UNL     1      35.017 -23.621 -13.729  0.00  0.00    -0.297 N 
ATOM     16  C   UNL     1      33.661 -23.912 -13.713  0.00  0.00    +0.223 C 
ATOM     17  C   UNL     1      32.899 -23.150 -14.764  0.00  0.00    +0.095 C 
ATOM     18  H   UNL     1      35.351 -22.986 -14.403  0.00  0.00    +0.150 HD
ENDBRANCH  13  15
BRANCH  13  20
ATOM     19  O   UNL     1      37.289 -23.094 -11.114  0.00  0.00    -0.286 OA
ATOM     20  C   UNL     1      36.767 -23.056 -12.225  0.00  0.00    +0.229 C 
ENDBRANCH  13  20
ENDBRANCH   1  13
TORSDOF 10
ENDMDL
MODEL 5
REMARK VINA RESULT:      -6.1      2.537      4.526
REMARK  Name = 65150
REMARK  10 active torsions:
REMARK  status: ('A' for Active; 'I' for Inactive)
REMARK    1  A    between atoms: C_1  and  O_2
REMARK    2  A    between atoms: C_1  and  C_4
REMARK    3  A    between atoms: C_1  and  CA_13
REMARK    4  A    between atoms: C_4  and  O_5
REMARK    5  A    between atoms: C_4  and  C_7
REMARK    6  A    between atoms: C_7  and  O_8
REMARK    7  A    between atoms: C_7  and  C_10
REMARK    8  A    between atoms: C_10  and  O_11
REMARK    9  A    between atoms: CA_13  and  N_15
REMARK   10  A    between atoms: CA_13  and  C_20
REMARK                            x       y       z     vdW  Elec       q    Type
REMARK                         _______ _______ _______ _____ _____    ______ ____
ROOT
ATOM      1  C   UNL     1      36.246 -23.583 -14.103  0.00  0.00    +0.165 C 
ENDROOT
BRANCH   1   2
ATOM      2  O   UNL     1      37.226 -23.326 -13.088  0.00  0.00    -0.380 OA
ATOM      3  H   UNL     1      37.655 -22.473 -13.260  0.00  0.00    +0.211 HD
ENDBRANCH   1   2
BRANCH   1   4
ATOM      4  C   UNL     1      36.863 -24.569 -15.115  0.00  0.00    +0.168 C 
BRANCH   4   5
ATOM      5  O   UNL     1      35.791 -25.366 -15.636  0.00  0.00    -0.379 OA
ATOM      6  H   UNL     1      34.962 -25.119 -15.198  0.00  0.00    +0.211 HD
ENDBRANCH   4   5
BRANCH   4   7
ATOM      7  C   UNL     1      37.955 -25.498 -14.558  0.00  0.00    +0.169 C 
BRANCH   7   8
ATOM      8  O   UNL     1      38.984 -25.686 -15.530  0.00  0.00    -0.379 OA
ATOM      9  H   UNL     1      39.805 -25.276 -15.215  0.00  0.00    +0.211 HD
ENDBRANCH   7   8
BRANCH   7  10
ATOM     10  C   UNL     1      37.406 -26.879 -14.202  0.00  0.00    +0.169 C 
BRANCH  10  11
ATOM     11  O   UNL     1      36.842 -26.827 -12.894  0.00  0.00    -0.379 OA
ATOM     12  H   UNL     1      37.347 -26.205 -12.349  0.00  0.00    +0.211 HD
ENDBRANCH  10  11
ENDBRANCH   7  10
ENDBRANCH   4   7
ENDBRANCH   1   4
BRANCH   1  13
ATOM     13  CA  UNL     1      34.961 -24.068 -13.418  0.00  0.00    +0.166 C 
BRANCH  13  15
ATOM     14  O   UNL     1      32.212 -25.001 -13.396  0.00  0.00    -0.275 OA
ATOM     15  N   UNL     1      33.786 -23.340 -13.828  0.00  0.00    -0.297 N 
ATOM     16  C   UNL     1      32.506 -23.873 -13.781  0.00  0.00    +0.223 C 
ATOM     17  C   UNL     1      31.461 -22.893 -14.240  0.00  0.00    +0.095 C 
ATOM     18  H   UNL     1      33.897 -22.419 -14.157  0.00  0.00    +0.150 HD
ENDBRANCH  13  15
BRANCH  13  20
ATOM     19  O   UNL     1      35.245 -24.897 -11.162  0.00  0.00    -0.286 OA
ATOM     20  C   UNL     1      35.051 -23.942 -11.909  0.00  0.00    +0.229 C 
ENDBRANCH  13  20
ENDBRANCH   1  13
TORSDOF 10
ENDMDL
MODEL 6
REMARK VINA RESULT:      -6.0     11.152     13.955
REMARK  Name = 65150
REMARK  10 active torsions:
REMARK  status: ('A' for Active; 'I' for Inactive)
REMARK    1  A    between atoms: C_1  and  O_2
REMARK    2  A    between atoms: C_1  and  C_4
REMARK    3  A    between atoms: C_1  and  CA_13
REMARK    4  A    between atoms: C_4  and  O_5
REMARK    5  A    between atoms: C_4  and  C_7
REMARK    6  A    between atoms: C_7  and  O_8
REMARK    7  A    between atoms: C_7  and  C_10
REMARK    8  A    between atoms: C_10  and  O_11
REMARK    9  A    between atoms: CA_13  and  N_15
REMARK   10  A    between atoms: CA_13  and  C_20
REMARK                            x       y       z     vdW  Elec       q    Type
REMARK                         _______ _______ _______ _____ _____    ______ ____
ROOT
ATOM      1  C   UNL     1      34.084 -16.661 -24.745  0.00  0.00    +0.165 C 
ENDROOT
BRANCH   1   2
ATOM      2  O   UNL     1      34.984 -17.035 -25.796  0.00  0.00    -0.380 OA
ATOM      3  H   UNL     1      34.623 -17.797 -26.276  0.00  0.00    +0.211 HD
ENDBRANCH   1   2
BRANCH   1   4
ATOM      4  C   UNL     1      34.733 -17.059 -23.404  0.00  0.00    +0.168 C 
BRANCH   4   5
ATOM      5  O   UNL     1      35.745 -16.084 -23.117  0.00  0.00    -0.379 OA
ATOM      6  H   UNL     1      35.796 -15.943 -22.159  0.00  0.00    +0.211 HD
ENDBRANCH   4   5
BRANCH   4   7
ATOM      7  C   UNL     1      35.360 -18.462 -23.359  0.00  0.00    +0.169 C 
BRANCH   7   8
ATOM      8  O   UNL     1      34.709 -19.322 -24.294  0.00  0.00    -0.379 OA
ATOM      9  H   UNL     1      35.000 -19.103 -25.193  0.00  0.00    +0.211 HD
ENDBRANCH   7   8
BRANCH   7  10
ATOM     10  C   UNL     1      35.228 -19.105 -21.979  0.00  0.00    +0.169 C 
BRANCH  10  11
ATOM     11  O   UNL     1      35.594 -18.148 -20.988  0.00  0.00    -0.379 OA
ATOM     12  H   UNL     1      36.508 -17.863 -21.137  0.00  0.00    +0.211 HD
ENDBRANCH  10  11
ENDBRANCH   7  10
ENDBRANCH   4   7
ENDBRANCH   1   4
BRANCH   1  13
ATOM     13  CA  UNL     1      33.762 -15.168 -24.896  0.00  0.00    +0.166 C 
BRANCH  13  15
ATOM     14  O   UNL     1      33.904 -12.495 -23.772  0.00  0.00    -0.275 OA
ATOM     15  N   UNL     1      32.989 -14.636 -23.801  0.00  0.00    -0.297 N 
ATOM     16  C   UNL     1      33.128 -13.339 -23.331  0.00  0.00    +0.223 C 
ATOM     17  C   UNL     1      32.183 -13.035 -22.200  0.00  0.00    +0.095 C 
ATOM     18  H   UNL     1      32.330 -15.223 -23.365  0.00  0.00    +0.150 HD
ENDBRANCH  13  15
BRANCH  13  20
ATOM     19  O   UNL     1      33.499 -14.682 -27.253  0.00  0.00    -0.286 OA
ATOM     20  C   UNL     1      32.973 -14.893 -26.163  0.00  0.00    +0.229 C 
ENDBRANCH  13  20
ENDBRANCH   1  13
TORSDOF 10
ENDMDL
MODEL 7
REMARK VINA RESULT:      -6.0      9.133     12.248
REMARK  Name = 65150
REMARK  10 active torsions:
REMARK  status: ('A' for Active; 'I' for Inactive)
REMARK    1  A    between atoms: C_1  and  O_2
REMARK    2  A    between atoms: C_1  and  C_4
REMARK    3  A    between atoms: C_1  and  CA_13
REMARK    4  A    between atoms: C_4  and  O_5
REMARK    5  A    between atoms: C_4  and  C_7
REMARK    6  A    between atoms: C_7  and  O_8
REMARK    7  A    between atoms: C_7  and  C_10
REMARK    8  A    between atoms: C_10  and  O_11
REMARK    9  A    between atoms: CA_13  and  N_15
REMARK   10  A    between atoms: CA_13  and  C_20
REMARK                            x       y       z     vdW  Elec       q    Type
REMARK                         _______ _______ _______ _____ _____    ______ ____
ROOT
ATOM      1  C   UNL     1      35.292 -16.929 -22.349  0.00  0.00    +0.165 C 
ENDROOT
BRANCH   1   2
ATOM      2  O   UNL     1      35.764 -16.389 -23.591  0.00  0.00    -0.380 OA
ATOM      3  H   UNL     1      35.740 -15.420 -23.552  0.00  0.00    +0.211 HD
ENDBRANCH   1   2
BRANCH   1   4
ATOM      4  C   UNL     1      34.375 -15.876 -21.695  0.00  0.00    +0.168 C 
BRANCH   4   5
ATOM      5  O   UNL     1      33.324 -16.587 -21.028  0.00  0.00    -0.379 OA
ATOM      6  H   UNL     1      33.476 -16.567 -20.070  0.00  0.00    +0.211 HD
ENDBRANCH   4   5
BRANCH   4   7
ATOM      7  C   UNL     1      33.756 -14.846 -22.654  0.00  0.00    +0.169 C 
BRANCH   7   8
ATOM      8  O   UNL     1      34.693 -13.804 -22.929  0.00  0.00    -0.379 OA
ATOM      9  H   UNL     1      35.528 -14.193 -23.235  0.00  0.00    +0.211 HD
ENDBRANCH   7   8
BRANCH   7  10
ATOM     10  C   UNL     1      32.507 -14.192 -22.063  0.00  0.00    +0.169 C 
BRANCH  10  11
ATOM     11  O   UNL     1      32.781 -13.808 -20.718  0.00  0.00    -0.379 OA
ATOM     12  H   UNL     1      32.682 -12.848 -20.630  0.00  0.00    +0.211 HD
ENDBRANCH  10  11
ENDBRANCH   7  10
ENDBRANCH   4   7
ENDBRANCH   1   4
BRANCH   1  13
ATOM     13  CA  UNL     1      34.630 -18.284 -22.635  0.00  0.00    +0.166 C 
BRANCH  13  15
ATOM     14  O   UNL     1      32.914 -19.609 -20.704  0.00  0.00    -0.275 OA
ATOM     15  N   UNL     1      35.001 -19.311 -21.692  0.00  0.00    -0.297 N 
ATOM     16  C   UNL     1      34.106 -19.887 -20.804  0.00  0.00    +0.223 C 
ATOM     17  C   UNL     1      34.748 -20.949 -19.952  0.00  0.00    +0.095 C 
ATOM     18  H   UNL     1      35.936 -19.618 -21.679  0.00  0.00    +0.150 HD
ENDBRANCH  13  15
BRANCH  13  20
ATOM     19  O   UNL     1      34.391 -18.485 -25.034  0.00  0.00    -0.286 OA
ATOM     20  C   UNL     1      34.994 -18.803 -24.013  0.00  0.00    +0.229 C 
ENDBRANCH  13  20
ENDBRANCH   1  13
TORSDOF 10
ENDMDL
MODEL 8
REMARK VINA RESULT:      -5.9      2.142      4.056
REMARK  Name = 65150
REMARK  10 active torsions:
REMARK  status: ('A' for Active; 'I' for Inactive)
REMARK    1  A    between atoms: C_1  and  O_2
REMARK    2  A    between atoms: C_1  and  C_4
REMARK    3  A    between atoms: C_1  and  CA_13
REMARK    4  A    between atoms: C_4  and  O_5
REMARK    5  A    between atoms: C_4  and  C_7
REMARK    6  A    between atoms: C_7  and  O_8
REMARK    7  A    between atoms: C_7  and  C_10
REMARK    8  A    between atoms: C_10  and  O_11
REMARK    9  A    between atoms: CA_13  and  N_15
REMARK   10  A    between atoms: CA_13  and  C_20
REMARK                            x       y       z     vdW  Elec       q    Type
REMARK                         _______ _______ _______ _____ _____    ______ ____
ROOT
ATOM      1  C   UNL     1      35.485 -23.741 -12.975  0.00  0.00    +0.165 C 
ENDROOT
BRANCH   1   2
ATOM      2  O   UNL     1      34.207 -23.532 -12.359  0.00  0.00    -0.380 OA
ATOM      3  H   UNL     1      33.515 -23.532 -13.040  0.00  0.00    +0.211 HD
ENDBRANCH   1   2
BRANCH   1   4
ATOM      4  C   UNL     1      36.193 -24.882 -12.217  0.00  0.00    +0.168 C 
BRANCH   4   5
ATOM      5  O   UNL     1      35.534 -25.022 -10.951  0.00  0.00    -0.379 OA
ATOM      6  H   UNL     1      34.865 -25.721 -11.010  0.00  0.00    +0.211 HD
ENDBRANCH   4   5
BRANCH   4   7
ATOM      7  C   UNL     1      37.700 -24.688 -11.981  0.00  0.00    +0.169 C 
BRANCH   7   8
ATOM      8  O   UNL     1      38.082 -23.352 -12.307  0.00  0.00    -0.379 OA
ATOM      9  H   UNL     1      37.442 -22.976 -12.933  0.00  0.00    +0.211 HD
ENDBRANCH   7   8
BRANCH   7  10
ATOM     10  C   UNL     1      38.540 -25.627 -12.845  0.00  0.00    +0.169 C 
BRANCH  10  11
ATOM     11  O   UNL     1      39.584 -24.877 -13.460  0.00  0.00    -0.379 OA
ATOM     12  H   UNL     1      40.219 -24.593 -12.785  0.00  0.00    +0.211 HD
ENDBRANCH  10  11
ENDBRANCH   7  10
ENDBRANCH   4   7
ENDBRANCH   1   4
BRANCH   1  13
ATOM     13  CA  UNL     1      35.261 -23.992 -14.472  0.00  0.00    +0.166 C 
BRANCH  13  15
ATOM     14  O   UNL     1      37.983 -23.464 -15.334  0.00  0.00    -0.275 OA
ATOM     15  N   UNL     1      35.721 -22.911 -15.308  0.00  0.00    -0.297 N 
ATOM     16  C   UNL     1      37.049 -22.740 -15.668  0.00  0.00    +0.223 C 
ATOM     17  C   UNL     1      37.250 -21.548 -16.565  0.00  0.00    +0.095 C 
ATOM     18  H   UNL     1      35.059 -22.262 -15.639  0.00  0.00    +0.150 HD
ENDBRANCH  13  15
BRANCH  13  20
ATOM     19  O   UNL     1      33.015 -23.272 -15.015  0.00  0.00    -0.286 OA
ATOM     20  C   UNL     1      33.792 -24.197 -14.790  0.00  0.00    +0.229 C 
ENDBRANCH  13  20
ENDBRANCH   1  13
TORSDOF 10
ENDMDL
MODEL 9
REMARK VINA RESULT:      -5.9     10.808     13.752
REMARK  Name = 65150
REMARK  10 active torsions:
REMARK  status: ('A' for Active; 'I' for Inactive)
REMARK    1  A    between atoms: C_1  and  O_2
REMARK    2  A    between atoms: C_1  and  C_4
REMARK    3  A    between atoms: C_1  and  CA_13
REMARK    4  A    between atoms: C_4  and  O_5
REMARK    5  A    between atoms: C_4  and  C_7
REMARK    6  A    between atoms: C_7  and  O_8
REMARK    7  A    between atoms: C_7  and  C_10
REMARK    8  A    between atoms: C_10  and  O_11
REMARK    9  A    between atoms: CA_13  and  N_15
REMARK   10  A    between atoms: CA_13  and  C_20
REMARK                            x       y       z     vdW  Elec       q    Type
REMARK                         _______ _______ _______ _____ _____    ______ ____
ROOT
ATOM      1  C   UNL     1      34.715 -15.051 -23.202  0.00  0.00    +0.165 C 
ENDROOT
BRANCH   1   2
ATOM      2  O   UNL     1      34.961 -14.261 -22.031  0.00  0.00    -0.380 OA
ATOM      3  H   UNL     1      35.854 -14.445 -21.699  0.00  0.00    +0.211 HD
ENDBRANCH   1   2
BRANCH   1   4
ATOM      4  C   UNL     1      35.049 -16.517 -22.861  0.00  0.00    +0.168 C 
BRANCH   4   5
ATOM      5  O   UNL     1      34.561 -17.325 -23.941  0.00  0.00    -0.379 OA
ATOM      6  H   UNL     1      34.762 -16.892 -24.785  0.00  0.00    +0.211 HD
ENDBRANCH   4   5
BRANCH   4   7
ATOM      7  C   UNL     1      34.466 -17.042 -21.538  0.00  0.00    +0.169 C 
BRANCH   7   8
ATOM      8  O   UNL     1      35.138 -16.440 -20.431  0.00  0.00    -0.379 OA
ATOM      9  H   UNL     1      35.665 -15.687 -20.744  0.00  0.00    +0.211 HD
ENDBRANCH   7   8
BRANCH   7  10
ATOM     10  C   UNL     1      34.626 -18.555 -21.401  0.00  0.00    +0.169 C 
BRANCH  10  11
ATOM     11  O   UNL     1      35.805 -18.828 -20.650  0.00  0.00    -0.379 OA
ATOM     12  H   UNL     1      36.503 -19.142 -21.245  0.00  0.00    +0.211 HD
ENDBRANCH  10  11
ENDBRANCH   7  10
ENDBRANCH   4   7
ENDBRANCH   1   4
BRANCH   1  13
ATOM     13  CA  UNL     1      33.271 -14.800 -23.656  0.00  0.00    +0.166 C 
BRANCH  13  15
ATOM     14  O   UNL     1      33.496 -15.762 -26.386  0.00  0.00    -0.275 OA
ATOM     15  N   UNL     1      33.180 -14.024 -24.869  0.00  0.00    -0.297 N 
ATOM     16  C   UNL     1      33.301 -14.576 -26.136  0.00  0.00    +0.223 C 
ATOM     17  C   UNL     1      33.141 -13.550 -27.225  0.00  0.00    +0.095 C 
ATOM     18  H   UNL     1      33.025 -13.055 -24.794  0.00  0.00    +0.150 HD
ENDBRANCH  13  15
BRANCH  13  20
ATOM     19  O   UNL     1      32.040 -14.588 -21.583  0.00  0.00    -0.286 OA
ATOM     20  C   UNL     1      32.476 -14.055 -22.601  0.00  0.00    +0.229 C 
ENDBRANCH  13  20
ENDBRANCH   1  13
TORSDOF 10
ENDMDL
