MODEL 1
REMARK VINA RESULT:      -9.2      0.000      0.000
REMARK  Name = 25210476
REMARK  6 active torsions:
REMARK  status: ('A' for Active; 'I' for Inactive)
REMARK    1  A    between atoms: C_2  and  C_15
REMARK    2  A    between atoms: C_3  and  C_6
REMARK    3  A    between atoms: C_9  and  N_14
REMARK    4  A    between atoms: C_15  and  C_16
REMARK    5  A    between atoms: C_16  and  C_18
REMARK    6  A    between atoms: C_18  and  O_19
REMARK                            x       y       z     vdW  Elec       q    Type
REMARK                         _______ _______ _______ _____ _____    ______ ____
ROOT
ATOM      1  S   UNL     1      35.243 -17.419 -21.524  0.00  0.00    -0.091 S 
ATOM      2  C   UNL     1      34.896 -17.029 -23.155  0.00  0.00    +0.008 C 
ATOM      3  C   UNL     1      35.164 -19.098 -21.852  0.00  0.00    +0.029 C 
ATOM      4  C   UNL     1      34.726 -18.155 -23.931  0.00  0.00    +0.003 C 
ATOM      5  C   UNL     1      34.880 -19.353 -23.175  0.00  0.00    +0.007 C 
ENDROOT
BRANCH   3   6
ATOM      6  C   UNL     1      35.391 -20.030 -20.775  0.00  0.00    +0.008 C 
ATOM      7  C   UNL     1      34.346 -20.833 -20.317  0.00  0.00    +0.025 C 
ATOM      8  C   UNL     1      36.655 -20.131 -20.193  0.00  0.00    +0.001 C 
ATOM      9  C   UNL     1      34.565 -21.736 -19.277  0.00  0.00    +0.143 C 
ATOM     10  C   UNL     1      36.873 -21.034 -19.153  0.00  0.00    +0.002 C 
ATOM     11  C   UNL     1      35.829 -21.837 -18.695  0.00  0.00    +0.024 C 
BRANCH   9  14
ATOM     12  O   UNL     1      33.690 -23.791 -18.699  0.00  0.00    -0.126 OA
ATOM     13  O   UNL     1      32.406 -22.018 -18.518  0.00  0.00    -0.126 OA
ATOM     14  N   UNL     1      33.502 -22.554 -18.809  0.00  0.00    +0.058 N 
ENDBRANCH   9  14
ENDBRANCH   3   6
BRANCH   2  15
ATOM     15  C   UNL     1      34.814 -15.610 -23.563  0.00  0.00    +0.045 C 
BRANCH  15  16
ATOM     16  C   UNL     1      33.411 -15.164 -24.010  0.00  0.00    +0.115 C 
BRANCH  16  18
ATOM     17  O   UNL     1      33.996 -15.793 -26.268  0.00  0.00    -0.250 OA
ATOM     18  C   UNL     1      33.295 -15.129 -25.515  0.00  0.00    +0.314 C 
BRANCH  18  19
ATOM     19  O   UNL     1      32.348 -14.261 -25.951  0.00  0.00    -0.480 OA
ATOM     20  H   UNL     1      31.921 -14.408 -26.771  0.00  0.00    +0.295 HD
ENDBRANCH  18  19
ENDBRANCH  16  18
ENDBRANCH  15  16
ENDBRANCH   2  15
TORSDOF 6
ENDMDL
MODEL 2
REMARK VINA RESULT:      -9.1      1.493      1.871
REMARK  Name = 25210476
REMARK  6 active torsions:
REMARK  status: ('A' for Active; 'I' for Inactive)
REMARK    1  A    between atoms: C_2  and  C_15
REMARK    2  A    between atoms: C_3  and  C_6
REMARK    3  A    between atoms: C_9  and  N_14
REMARK    4  A    between atoms: C_15  and  C_16
REMARK    5  A    between atoms: C_16  and  C_18
REMARK    6  A    between atoms: C_18  and  O_19
REMARK                            x       y       z     vdW  Elec       q    Type
REMARK                         _______ _______ _______ _____ _____    ______ ____
ROOT
ATOM      1  S   UNL     1      34.986 -17.183 -21.587  0.00  0.00    -0.091 S 
ATOM      2  C   UNL     1      34.750 -16.725 -23.220  0.00  0.00    +0.008 C 
ATOM      3  C   UNL     1      35.185 -18.828 -22.021  0.00  0.00    +0.029 C 
ATOM      4  C   UNL     1      34.823 -17.802 -24.075  0.00  0.00    +0.003 C 
ATOM      5  C   UNL     1      35.075 -19.021 -23.380  0.00  0.00    +0.007 C 
ENDROOT
BRANCH   3   6
ATOM      6  C   UNL     1      35.436 -19.797 -20.983  0.00  0.00    +0.008 C 
ATOM      7  C   UNL     1      34.398 -20.606 -20.519  0.00  0.00    +0.025 C 
ATOM      8  C   UNL     1      36.717 -19.928 -20.444  0.00  0.00    +0.001 C 
ATOM      9  C   UNL     1      34.642 -21.545 -19.517  0.00  0.00    +0.143 C 
ATOM     10  C   UNL     1      36.959 -20.867 -19.442  0.00  0.00    +0.002 C 
ATOM     11  C   UNL     1      35.921 -21.675 -18.978  0.00  0.00    +0.024 C 
BRANCH   9  14
ATOM     12  O   UNL     1      32.498 -21.836 -18.716  0.00  0.00    -0.126 OA
ATOM     13  O   UNL     1      33.771 -23.607 -18.964  0.00  0.00    -0.126 OA
ATOM     14  N   UNL     1      33.586 -22.369 -19.043  0.00  0.00    +0.058 N 
ENDBRANCH   9  14
ENDBRANCH   3   6
BRANCH   2  15
ATOM     15  C   UNL     1      34.504 -15.304 -23.550  0.00  0.00    +0.045 C 
BRANCH  15  16
ATOM     16  C   UNL     1      34.143 -14.430 -22.336  0.00  0.00    +0.115 C 
BRANCH  16  18
ATOM     17  O   UNL     1      32.041 -15.182 -21.412  0.00  0.00    -0.250 OA
ATOM     18  C   UNL     1      32.651 -14.383 -22.112  0.00  0.00    +0.314 C 
BRANCH  18  19
ATOM     19  O   UNL     1      32.047 -13.377 -22.791  0.00  0.00    -0.480 OA
ATOM     20  H   UNL     1      31.229 -13.528 -23.221  0.00  0.00    +0.295 HD
ENDBRANCH  18  19
ENDBRANCH  16  18
ENDBRANCH  15  16
ENDBRANCH   2  15
TORSDOF 6
ENDMDL
MODEL 3
REMARK VINA RESULT:      -9.0      7.249     10.906
REMARK  Name = 25210476
REMARK  6 active torsions:
REMARK  status: ('A' for Active; 'I' for Inactive)
REMARK    1  A    between atoms: C_2  and  C_15
REMARK    2  A    between atoms: C_3  and  C_6
REMARK    3  A    between atoms: C_9  and  N_14
REMARK    4  A    between atoms: C_15  and  C_16
REMARK    5  A    between atoms: C_16  and  C_18
REMARK    6  A    between atoms: C_18  and  O_19
REMARK                            x       y       z     vdW  Elec       q    Type
REMARK                         _______ _______ _______ _____ _____    ______ ____
ROOT
ATOM      1  S   UNL     1      36.380 -24.960 -14.813  0.00  0.00    -0.091 S 
ATOM      2  C   UNL     1      37.059 -25.246 -13.267  0.00  0.00    +0.008 C 
ATOM      3  C   UNL     1      34.950 -24.315 -14.125  0.00  0.00    +0.029 C 
ATOM      4  C   UNL     1      36.214 -24.857 -12.251  0.00  0.00    +0.003 C 
ATOM      5  C   UNL     1      34.992 -24.318 -12.749  0.00  0.00    +0.007 C 
ENDROOT
BRANCH   3   6
ATOM      6  C   UNL     1      33.901 -23.856 -15.002  0.00  0.00    +0.008 C 
ATOM      7  C   UNL     1      34.196 -23.507 -16.320  0.00  0.00    +0.025 C 
ATOM      8  C   UNL     1      32.590 -23.762 -14.533  0.00  0.00    +0.001 C 
ATOM      9  C   UNL     1      33.182 -23.065 -17.168  0.00  0.00    +0.143 C 
ATOM     10  C   UNL     1      31.576 -23.319 -15.382  0.00  0.00    +0.002 C 
ATOM     11  C   UNL     1      31.872 -22.971 -16.699  0.00  0.00    +0.024 C 
BRANCH   9  14
ATOM     12  O   UNL     1      34.547 -23.125 -19.026  0.00  0.00    -0.126 OA
ATOM     13  O   UNL     1      32.672 -21.989 -19.143  0.00  0.00    -0.126 OA
ATOM     14  N   UNL     1      33.481 -22.709 -18.511  0.00  0.00    +0.058 N 
ENDBRANCH   9  14
ENDBRANCH   3   6
BRANCH   2  15
ATOM     15  C   UNL     1      38.406 -25.847 -13.163  0.00  0.00    +0.045 C 
BRANCH  15  16
ATOM     16  C   UNL     1      39.502 -25.070 -13.913  0.00  0.00    +0.115 C 
BRANCH  16  18
ATOM     17  O   UNL     1      41.233 -26.745 -14.090  0.00  0.00    -0.250 OA
ATOM     18  C   UNL     1      40.437 -26.000 -14.647  0.00  0.00    +0.314 C 
BRANCH  18  19
ATOM     19  O   UNL     1      40.325 -25.906 -15.995  0.00  0.00    -0.480 OA
ATOM     20  H   UNL     1      40.660 -26.589 -16.541  0.00  0.00    +0.295 HD
ENDBRANCH  18  19
ENDBRANCH  16  18
ENDBRANCH  15  16
ENDBRANCH   2  15
TORSDOF 6
ENDMDL
MODEL 4
REMARK VINA RESULT:      -9.0      8.044      9.135
REMARK  Name = 25210476
REMARK  6 active torsions:
REMARK  status: ('A' for Active; 'I' for Inactive)
REMARK    1  A    between atoms: C_2  and  C_15
REMARK    2  A    between atoms: C_3  and  C_6
REMARK    3  A    between atoms: C_9  and  N_14
REMARK    4  A    between atoms: C_15  and  C_16
REMARK    5  A    between atoms: C_16  and  C_18
REMARK    6  A    between atoms: C_18  and  O_19
REMARK                            x       y       z     vdW  Elec       q    Type
REMARK                         _______ _______ _______ _____ _____    ______ ____
ROOT
ATOM      1  S   UNL     1      32.724 -23.558 -14.586  0.00  0.00    -0.091 S 
ATOM      2  C   UNL     1      31.440 -23.193 -15.658  0.00  0.00    +0.008 C 
ATOM      3  C   UNL     1      33.872 -23.502 -15.855  0.00  0.00    +0.029 C 
ATOM      4  C   UNL     1      31.879 -23.032 -16.954  0.00  0.00    +0.003 C 
ATOM      5  C   UNL     1      33.288 -23.211 -17.067  0.00  0.00    +0.007 C 
ENDROOT
BRANCH   3   6
ATOM      6  C   UNL     1      35.260 -23.749 -15.551  0.00  0.00    +0.008 C 
ATOM      7  C   UNL     1      35.632 -24.923 -14.896  0.00  0.00    +0.025 C 
ATOM      8  C   UNL     1      36.231 -22.814 -15.912  0.00  0.00    +0.001 C 
ATOM      9  C   UNL     1      36.975 -25.163 -14.604  0.00  0.00    +0.143 C 
ATOM     10  C   UNL     1      37.574 -23.055 -15.619  0.00  0.00    +0.002 C 
ATOM     11  C   UNL     1      37.945 -24.229 -14.966  0.00  0.00    +0.024 C 
BRANCH   9  14
ATOM     12  O   UNL     1      36.978 -26.542 -12.755  0.00  0.00    -0.126 OA
ATOM     13  O   UNL     1      38.057 -27.198 -14.551  0.00  0.00    -0.126 OA
ATOM     14  N   UNL     1      37.355 -26.359 -13.938  0.00  0.00    +0.058 N 
ENDBRANCH   9  14
ENDBRANCH   3   6
BRANCH   2  15
ATOM     15  C   UNL     1      30.060 -23.090 -15.135  0.00  0.00    +0.045 C 
BRANCH  15  16
ATOM     16  C   UNL     1      29.049 -24.009 -15.843  0.00  0.00    +0.115 C 
BRANCH  16  18
ATOM     17  O   UNL     1      27.572 -23.784 -17.742  0.00  0.00    -0.250 OA
ATOM     18  C   UNL     1      28.225 -23.248 -16.855  0.00  0.00    +0.314 C 
BRANCH  18  19
ATOM     19  O   UNL     1      28.305 -21.904 -16.697  0.00  0.00    -0.480 OA
ATOM     20  H   UNL     1      27.617 -21.443 -16.260  0.00  0.00    +0.295 HD
ENDBRANCH  18  19
ENDBRANCH  16  18
ENDBRANCH  15  16
ENDBRANCH   2  15
TORSDOF 6
ENDMDL
MODEL 5
REMARK VINA RESULT:      -8.9      8.446      9.733
REMARK  Name = 25210476
REMARK  6 active torsions:
REMARK  status: ('A' for Active; 'I' for Inactive)
REMARK    1  A    between atoms: C_2  and  C_15
REMARK    2  A    between atoms: C_3  and  C_6
REMARK    3  A    between atoms: C_9  and  N_14
REMARK    4  A    between atoms: C_15  and  C_16
REMARK    5  A    between atoms: C_16  and  C_18
REMARK    6  A    between atoms: C_18  and  O_19
REMARK                            x       y       z     vdW  Elec       q    Type
REMARK                         _______ _______ _______ _____ _____    ______ ____
ROOT
ATOM      1  S   UNL     1      32.484 -23.915 -14.018  0.00  0.00    -0.091 S 
ATOM      2  C   UNL     1      31.505 -23.334 -15.297  0.00  0.00    +0.008 C 
ATOM      3  C   UNL     1      33.878 -23.917 -15.013  0.00  0.00    +0.029 C 
ATOM      4  C   UNL     1      32.226 -23.145 -16.456  0.00  0.00    +0.003 C 
ATOM      5  C   UNL     1      33.601 -23.484 -16.290  0.00  0.00    +0.007 C 
ENDROOT
BRANCH   3   6
ATOM      6  C   UNL     1      35.135 -24.345 -14.451  0.00  0.00    +0.008 C 
ATOM      7  C   UNL     1      35.616 -23.749 -13.284  0.00  0.00    +0.025 C 
ATOM      8  C   UNL     1      35.870 -25.355 -15.072  0.00  0.00    +0.001 C 
ATOM      9  C   UNL     1      36.830 -24.165 -12.739  0.00  0.00    +0.143 C 
ATOM     10  C   UNL     1      37.085 -25.770 -14.526  0.00  0.00    +0.002 C 
ATOM     11  C   UNL     1      37.565 -25.174 -13.360  0.00  0.00    +0.024 C 
BRANCH   9  14
ATOM     12  O   UNL     1      36.766 -23.828 -10.458  0.00  0.00    -0.126 OA
ATOM     13  O   UNL     1      38.295 -22.773 -11.628  0.00  0.00    -0.126 OA
ATOM     14  N   UNL     1      37.321 -23.559 -11.551  0.00  0.00    +0.058 N 
ENDBRANCH   9  14
ENDBRANCH   3   6
BRANCH   2  15
ATOM     15  C   UNL     1      30.063 -23.101 -15.063  0.00  0.00    +0.045 C 
BRANCH  15  16
ATOM     16  C   UNL     1      29.138 -24.061 -15.832  0.00  0.00    +0.115 C 
BRANCH  16  18
ATOM     17  O   UNL     1      27.614 -23.900 -17.699  0.00  0.00    -0.250 OA
ATOM     18  C   UNL     1      28.380 -23.343 -16.923  0.00  0.00    +0.314 C 
BRANCH  18  19
ATOM     19  O   UNL     1      28.656 -22.017 -16.973  0.00  0.00    -0.480 OA
ATOM     20  H   UNL     1      28.112 -21.445 -17.477  0.00  0.00    +0.295 HD
ENDBRANCH  18  19
ENDBRANCH  16  18
ENDBRANCH  15  16
ENDBRANCH   2  15
TORSDOF 6
ENDMDL
MODEL 6
REMARK VINA RESULT:      -8.9      3.178      7.958
REMARK  Name = 25210476
REMARK  6 active torsions:
REMARK  status: ('A' for Active; 'I' for Inactive)
REMARK    1  A    between atoms: C_2  and  C_15
REMARK    2  A    between atoms: C_3  and  C_6
REMARK    3  A    between atoms: C_9  and  N_14
REMARK    4  A    between atoms: C_15  and  C_16
REMARK    5  A    between atoms: C_16  and  C_18
REMARK    6  A    between atoms: C_18  and  O_19
REMARK                            x       y       z     vdW  Elec       q    Type
REMARK                         _______ _______ _______ _____ _____    ______ ____
ROOT
ATOM      1  S   UNL     1      33.382 -20.709 -20.083  0.00  0.00    -0.091 S 
ATOM      2  C   UNL     1      34.170 -21.879 -19.112  0.00  0.00    +0.008 C 
ATOM      3  C   UNL     1      34.875 -20.110 -20.668  0.00  0.00    +0.029 C 
ATOM      4  C   UNL     1      35.541 -21.813 -19.234  0.00  0.00    +0.003 C 
ATOM      5  C   UNL     1      35.949 -20.788 -20.136  0.00  0.00    +0.007 C 
ENDROOT
BRANCH   3   6
ATOM      6  C   UNL     1      34.867 -19.017 -21.610  0.00  0.00    +0.008 C 
ATOM      7  C   UNL     1      34.800 -17.702 -21.151  0.00  0.00    +0.025 C 
ATOM      8  C   UNL     1      34.928 -19.276 -22.980  0.00  0.00    +0.001 C 
ATOM      9  C   UNL     1      34.794 -16.645 -22.062  0.00  0.00    +0.143 C 
ATOM     10  C   UNL     1      34.922 -18.218 -23.890  0.00  0.00    +0.002 C 
ATOM     11  C   UNL     1      34.855 -16.904 -23.431  0.00  0.00    +0.024 C 
BRANCH   9  14
ATOM     12  O   UNL     1      34.532 -14.382 -22.424  0.00  0.00    -0.126 OA
ATOM     13  O   UNL     1      34.861 -15.081 -20.369  0.00  0.00    -0.126 OA
ATOM     14  N   UNL     1      34.726 -15.305 -21.596  0.00  0.00    +0.058 N 
ENDBRANCH   9  14
ENDBRANCH   3   6
BRANCH   2  15
ATOM     15  C   UNL     1      33.364 -22.798 -18.280  0.00  0.00    +0.045 C 
BRANCH  15  16
ATOM     16  C   UNL     1      34.022 -23.175 -16.941  0.00  0.00    +0.115 C 
BRANCH  16  18
ATOM     17  O   UNL     1      31.845 -23.671 -16.017  0.00  0.00    -0.250 OA
ATOM     18  C   UNL     1      32.999 -23.300 -15.838  0.00  0.00    +0.314 C 
BRANCH  18  19
ATOM     19  O   UNL     1      33.482 -22.931 -14.626  0.00  0.00    -0.480 OA
ATOM     20  H   UNL     1      34.330 -22.541 -14.560  0.00  0.00    +0.295 HD
ENDBRANCH  18  19
ENDBRANCH  16  18
ENDBRANCH  15  16
ENDBRANCH   2  15
TORSDOF 6
ENDMDL
MODEL 7
REMARK VINA RESULT:      -8.8      3.053      7.859
REMARK  Name = 25210476
REMARK  6 active torsions:
REMARK  status: ('A' for Active; 'I' for Inactive)
REMARK    1  A    between atoms: C_2  and  C_15
REMARK    2  A    between atoms: C_3  and  C_6
REMARK    3  A    between atoms: C_9  and  N_14
REMARK    4  A    between atoms: C_15  and  C_16
REMARK    5  A    between atoms: C_16  and  C_18
REMARK    6  A    between atoms: C_18  and  O_19
REMARK                            x       y       z     vdW  Elec       q    Type
REMARK                         _______ _______ _______ _____ _____    ______ ____
ROOT
ATOM      1  S   UNL     1      35.639 -20.275 -20.582  0.00  0.00    -0.091 S 
ATOM      2  C   UNL     1      34.670 -21.259 -19.569  0.00  0.00    +0.008 C 
ATOM      3  C   UNL     1      34.259 -19.539 -21.278  0.00  0.00    +0.029 C 
ATOM      4  C   UNL     1      33.325 -21.030 -19.758  0.00  0.00    +0.003 C 
ATOM      5  C   UNL     1      33.087 -20.032 -20.749  0.00  0.00    +0.007 C 
ENDROOT
BRANCH   3   6
ATOM      6  C   UNL     1      34.444 -18.529 -22.291  0.00  0.00    +0.008 C 
ATOM      7  C   UNL     1      34.380 -17.178 -21.948  0.00  0.00    +0.025 C 
ATOM      8  C   UNL     1      34.688 -18.902 -23.613  0.00  0.00    +0.001 C 
ATOM      9  C   UNL     1      34.561 -16.201 -22.927  0.00  0.00    +0.143 C 
ATOM     10  C   UNL     1      34.869 -17.925 -24.591  0.00  0.00    +0.002 C 
ATOM     11  C   UNL     1      34.806 -16.575 -24.248  0.00  0.00    +0.024 C 
BRANCH   9  14
ATOM     12  O   UNL     1      34.615 -14.497 -21.374  0.00  0.00    -0.126 OA
ATOM     13  O   UNL     1      34.323 -13.977 -23.487  0.00  0.00    -0.126 OA
ATOM     14  N   UNL     1      34.496 -14.825 -22.579  0.00  0.00    +0.058 N 
ENDBRANCH   9  14
ENDBRANCH   3   6
BRANCH   2  15
ATOM     15  C   UNL     1      35.319 -22.210 -18.641  0.00  0.00    +0.045 C 
BRANCH  15  16
ATOM     16  C   UNL     1      36.593 -21.666 -17.971  0.00  0.00    +0.115 C 
BRANCH  16  18
ATOM     17  O   UNL     1      37.747 -22.001 -15.876  0.00  0.00    -0.250 OA
ATOM     18  C   UNL     1      36.830 -22.310 -16.626  0.00  0.00    +0.314 C 
BRANCH  18  19
ATOM     19  O   UNL     1      35.936 -23.290 -16.345  0.00  0.00    -0.480 OA
ATOM     20  H   UNL     1      35.256 -23.137 -15.720  0.00  0.00    +0.295 HD
ENDBRANCH  18  19
ENDBRANCH  16  18
ENDBRANCH  15  16
ENDBRANCH   2  15
TORSDOF 6
ENDMDL
MODEL 8
REMARK VINA RESULT:      -8.8      2.547      7.705
REMARK  Name = 25210476
REMARK  6 active torsions:
REMARK  status: ('A' for Active; 'I' for Inactive)
REMARK    1  A    between atoms: C_2  and  C_15
REMARK    2  A    between atoms: C_3  and  C_6
REMARK    3  A    between atoms: C_9  and  N_14
REMARK    4  A    between atoms: C_15  and  C_16
REMARK    5  A    between atoms: C_16  and  C_18
REMARK    6  A    between atoms: C_18  and  O_19
REMARK                            x       y       z     vdW  Elec       q    Type
REMARK                         _______ _______ _______ _____ _____    ______ ____
ROOT
ATOM      1  S   UNL     1      34.097 -20.147 -20.646  0.00  0.00    -0.091 S 
ATOM      2  C   UNL     1      35.185 -21.209 -19.858  0.00  0.00    +0.008 C 
ATOM      3  C   UNL     1      35.360 -19.062 -21.044  0.00  0.00    +0.029 C 
ATOM      4  C   UNL     1      36.481 -20.745 -19.899  0.00  0.00    +0.003 C 
ATOM      5  C   UNL     1      36.582 -19.501 -20.586  0.00  0.00    +0.007 C 
ENDROOT
BRANCH   3   6
ATOM      6  C   UNL     1      35.043 -17.862 -21.780  0.00  0.00    +0.008 C 
ATOM      7  C   UNL     1      34.884 -17.915 -23.165  0.00  0.00    +0.025 C 
ATOM      8  C   UNL     1      34.893 -16.649 -21.106  0.00  0.00    +0.001 C 
ATOM      9  C   UNL     1      34.575 -16.756 -23.876  0.00  0.00    +0.143 C 
ATOM     10  C   UNL     1      34.584 -15.490 -21.819  0.00  0.00    +0.002 C 
ATOM     11  C   UNL     1      34.425 -15.544 -23.203  0.00  0.00    +0.024 C 
BRANCH   9  14
ATOM     12  O   UNL     1      34.600 -17.900 -25.879  0.00  0.00    -0.126 OA
ATOM     13  O   UNL     1      34.086 -15.765 -25.899  0.00  0.00    -0.126 OA
ATOM     14  N   UNL     1      34.413 -16.809 -25.286  0.00  0.00    +0.058 N 
ENDBRANCH   9  14
ENDBRANCH   3   6
BRANCH   2  15
ATOM     15  C   UNL     1      34.671 -22.451 -19.240  0.00  0.00    +0.045 C 
BRANCH  15  16
ATOM     16  C   UNL     1      33.308 -22.290 -18.544  0.00  0.00    +0.115 C 
BRANCH  16  18
ATOM     17  O   UNL     1      32.141 -23.418 -16.754  0.00  0.00    -0.250 OA
ATOM     18  C   UNL     1      33.193 -23.191 -17.338  0.00  0.00    +0.314 C 
BRANCH  18  19
ATOM     19  O   UNL     1      34.386 -23.704 -16.947  0.00  0.00    -0.480 OA
ATOM     20  H   UNL     1      34.431 -24.264 -16.197  0.00  0.00    +0.295 HD
ENDBRANCH  18  19
ENDBRANCH  16  18
ENDBRANCH  15  16
ENDBRANCH   2  15
TORSDOF 6
ENDMDL
MODEL 9
REMARK VINA RESULT:      -8.7      8.878     10.038
REMARK  Name = 25210476
REMARK  6 active torsions:
REMARK  status: ('A' for Active; 'I' for Inactive)
REMARK    1  A    between atoms: C_2  and  C_15
REMARK    2  A    between atoms: C_3  and  C_6
REMARK    3  A    between atoms: C_9  and  N_14
REMARK    4  A    between atoms: C_15  and  C_16
REMARK    5  A    between atoms: C_16  and  C_18
REMARK    6  A    between atoms: C_18  and  O_19
REMARK                            x       y       z     vdW  Elec       q    Type
REMARK                         _______ _______ _______ _____ _____    ______ ____
ROOT
ATOM      1  S   UNL     1      31.478 -23.431 -15.757  0.00  0.00    -0.091 S 
ATOM      2  C   UNL     1      29.981 -24.210 -15.467  0.00  0.00    +0.008 C 
ATOM      3  C   UNL     1      32.206 -24.215 -14.420  0.00  0.00    +0.029 C 
ATOM      4  C   UNL     1      30.037 -25.049 -14.376  0.00  0.00    +0.003 C 
ATOM      5  C   UNL     1      31.327 -25.051 -13.770  0.00  0.00    +0.007 C 
ENDROOT
BRANCH   3   6
ATOM      6  C   UNL     1      33.591 -23.942 -14.122  0.00  0.00    +0.008 C 
ATOM      7  C   UNL     1      34.129 -24.331 -12.895  0.00  0.00    +0.025 C 
ATOM      8  C   UNL     1      34.393 -23.292 -15.061  0.00  0.00    +0.001 C 
ATOM      9  C   UNL     1      35.468 -24.070 -12.607  0.00  0.00    +0.143 C 
ATOM     10  C   UNL     1      35.733 -23.031 -14.772  0.00  0.00    +0.002 C 
ATOM     11  C   UNL     1      36.270 -23.420 -13.545  0.00  0.00    +0.024 C 
BRANCH   9  14
ATOM     12  O   UNL     1      37.207 -24.163 -11.094  0.00  0.00    -0.126 OA
ATOM     13  O   UNL     1      35.298 -25.103 -10.553  0.00  0.00    -0.126 OA
ATOM     14  N   UNL     1      36.018 -24.465 -11.358  0.00  0.00    +0.058 N 
ENDBRANCH   9  14
ENDBRANCH   3   6
BRANCH   2  15
ATOM     15  C   UNL     1      28.831 -23.932 -16.355  0.00  0.00    +0.045 C 
BRANCH  15  16
ATOM     16  C   UNL     1      28.617 -22.438 -16.657  0.00  0.00    +0.115 C 
BRANCH  16  18
ATOM     17  O   UNL     1      26.435 -22.397 -15.621  0.00  0.00    -0.250 OA
ATOM     18  C   UNL     1      27.161 -22.055 -16.546  0.00  0.00    +0.314 C 
BRANCH  18  19
ATOM     19  O   UNL     1      26.729 -21.312 -17.595  0.00  0.00    -0.480 OA
ATOM     20  H   UNL     1      26.222 -20.539 -17.444  0.00  0.00    +0.295 HD
ENDBRANCH  18  19
ENDBRANCH  16  18
ENDBRANCH  15  16
ENDBRANCH   2  15
TORSDOF 6
ENDMDL
