MODEL 1
REMARK VINA RESULT:      -9.1      0.000      0.000
REMARK  Name = 24764487
REMARK  6 active torsions:
REMARK  status: ('A' for Active; 'I' for Inactive)
REMARK    1  A    between atoms: C_1  and  C_13
REMARK    2  A    between atoms: C_2  and  O_18
REMARK    3  A    between atoms: C_4  and  S_7
REMARK    4  A    between atoms: C_5  and  O_16
REMARK    5  A    between atoms: S_7  and  N_10
REMARK    6  A    between atoms: O_18  and  C_23
REMARK                            x       y       z     vdW  Elec       q    Type
REMARK                         _______ _______ _______ _____ _____    ______ ____
ROOT
ATOM      1  C   UNL     1      33.428 -23.085 -17.146  0.00  0.00    +0.015 C 
ATOM      2  C   UNL     1      34.040 -23.861 -16.161  0.00  0.00    +0.143 C 
ATOM      3  C   UNL     1      32.092 -22.708 -17.006  0.00  0.00    +0.037 C 
ATOM      4  C   UNL     1      31.980 -23.884 -14.899  0.00  0.00    +0.158 C 
ATOM      5  C   UNL     1      31.368 -23.108 -15.883  0.00  0.00    +0.157 C 
ATOM      6  C   UNL     1      33.316 -24.261 -15.038  0.00  0.00    +0.060 C 
ENDROOT
BRANCH   4   7
ATOM      7  S   UNL     1      31.093 -24.397 -13.480  0.00  0.00    +0.060 S 
ATOM      8  O   UNL     1      31.850 -25.455 -12.827  0.00  0.00    -0.153 OA
ATOM      9  O   UNL     1      30.704 -23.213 -12.729  0.00  0.00    -0.153 OA
BRANCH   7  10
ATOM     10  N   UNL     1      29.701 -25.076 -14.200  0.00  0.00    -0.203 NA
ATOM     11  H   UNL     1      29.687 -24.848 -15.194  0.00  0.00    +0.144 HD
ATOM     12  H   UNL     1      28.867 -24.697 -13.753  0.00  0.00    +0.144 HD
ENDBRANCH   7  10
ENDBRANCH   4   7
BRANCH   1  13
ATOM     13  C   UNL     1      34.187 -22.648 -18.355  0.00  0.00    +0.025 C 
ATOM     14  C   UNL     1      33.351 -21.744 -19.279  0.00  0.00    +0.005 C 
ATOM     15  C   UNL     1      35.512 -21.949 -17.996  0.00  0.00    +0.005 C 
ENDBRANCH   1  13
BRANCH   5  16
ATOM     16  O   UNL     1      30.065 -22.728 -15.767  0.00  0.00    -0.470 OA
ATOM     17  C   UNL     1      29.199 -23.045 -16.855  0.00  0.00    +0.253 C 
ENDBRANCH   5  16
BRANCH   2  18
ATOM     18  O   UNL     1      35.344 -24.237 -16.282  0.00  0.00    -0.448 OA
BRANCH  18  23
ATOM     19  N   UNL     1      37.245 -25.443 -13.371  0.00  0.00    -0.320 NA
ATOM     20  N   UNL     1      37.317 -23.035 -13.441  0.00  0.00    -0.167 NA
ATOM     21  N   UNL     1      36.062 -26.650 -15.038  0.00  0.00    -0.330 N 
ATOM     22  N   UNL     1      38.405 -24.224 -11.736  0.00  0.00    -0.293 N 
ATOM     23  C   UNL     1      36.116 -24.254 -15.134  0.00  0.00    +0.209 C 
ATOM     24  C   UNL     1      36.492 -25.416 -14.491  0.00  0.00    +0.226 C 
ATOM     25  C   UNL     1      36.562 -23.082 -14.559  0.00  0.00    +0.153 C 
ATOM     26  C   UNL     1      37.616 -24.234 -12.907  0.00  0.00    +0.143 C 
ATOM     27  H   UNL     1      36.313 -27.496 -14.602  0.00  0.00    +0.145 HD
ATOM     28  H   UNL     1      35.511 -26.661 -15.854  0.00  0.00    +0.145 HD
ATOM     29  H   UNL     1      38.654 -25.072 -11.303  0.00  0.00    +0.155 HD
ATOM     30  H   UNL     1      38.705 -23.368 -11.352  0.00  0.00    +0.155 HD
ENDBRANCH  18  23
ENDBRANCH   2  18
TORSDOF 6
ENDMDL
MODEL 2
REMARK VINA RESULT:      -8.8      2.533      5.836
REMARK  Name = 24764487
REMARK  6 active torsions:
REMARK  status: ('A' for Active; 'I' for Inactive)
REMARK    1  A    between atoms: C_1  and  C_13
REMARK    2  A    between atoms: C_2  and  O_18
REMARK    3  A    between atoms: C_4  and  S_7
REMARK    4  A    between atoms: C_5  and  O_16
REMARK    5  A    between atoms: S_7  and  N_10
REMARK    6  A    between atoms: O_18  and  C_23
REMARK                            x       y       z     vdW  Elec       q    Type
REMARK                         _______ _______ _______ _____ _____    ______ ____
ROOT
ATOM      1  C   UNL     1      35.720 -22.844 -15.834  0.00  0.00    +0.015 C 
ATOM      2  C   UNL     1      34.657 -23.033 -14.949  0.00  0.00    +0.143 C 
ATOM      3  C   UNL     1      36.999 -23.286 -15.491  0.00  0.00    +0.037 C 
ATOM      4  C   UNL     1      36.151 -24.105 -13.383  0.00  0.00    +0.158 C 
ATOM      5  C   UNL     1      37.214 -23.916 -14.266  0.00  0.00    +0.157 C 
ATOM      6  C   UNL     1      34.873 -23.663 -13.724  0.00  0.00    +0.060 C 
ENDROOT
BRANCH   4   7
ATOM      7  S   UNL     1      36.397 -24.893 -11.840  0.00  0.00    +0.060 S 
ATOM      8  O   UNL     1      37.492 -24.225 -11.154  0.00  0.00    -0.153 OA
ATOM      9  O   UNL     1      35.104 -25.029 -11.184  0.00  0.00    -0.153 OA
BRANCH   7  10
ATOM     10  N   UNL     1      36.922 -26.438 -12.348  0.00  0.00    -0.203 NA
ATOM     11  H   UNL     1      37.402 -26.903 -11.578  0.00  0.00    +0.144 HD
ATOM     12  H   UNL     1      37.560 -26.337 -13.136  0.00  0.00    +0.144 HD
ENDBRANCH   7  10
ENDBRANCH   4   7
BRANCH   1  13
ATOM     13  C   UNL     1      35.508 -22.171 -17.150  0.00  0.00    +0.025 C 
ATOM     14  C   UNL     1      36.833 -21.837 -17.858  0.00  0.00    +0.005 C 
ATOM     15  C   UNL     1      34.603 -22.990 -18.088  0.00  0.00    +0.005 C 
ENDBRANCH   1  13
BRANCH   5  16
ATOM     16  O   UNL     1      38.471 -24.340 -13.953  0.00  0.00    -0.470 OA
ATOM     17  C   UNL     1      39.115 -25.204 -14.887  0.00  0.00    +0.253 C 
ENDBRANCH   5  16
BRANCH   2  18
ATOM     18  O   UNL     1      33.403 -22.607 -15.268  0.00  0.00    -0.448 OA
BRANCH  18  23
ATOM     19  N   UNL     1      30.244 -24.418 -15.806  0.00  0.00    -0.320 NA
ATOM     20  N   UNL     1      31.383 -25.333 -13.888  0.00  0.00    -0.167 NA
ATOM     21  N   UNL     1      31.206 -22.617 -17.017  0.00  0.00    -0.330 N 
ATOM     22  N   UNL     1      29.317 -26.197 -14.588  0.00  0.00    -0.293 N 
ATOM     23  C   UNL     1      32.362 -23.506 -15.113  0.00  0.00    +0.209 C 
ATOM     24  C   UNL     1      31.264 -23.546 -15.948  0.00  0.00    +0.226 C 
ATOM     25  C   UNL     1      32.368 -24.432 -14.090  0.00  0.00    +0.153 C 
ATOM     26  C   UNL     1      30.367 -25.270 -14.769  0.00  0.00    +0.143 C 
ATOM     27  H   UNL     1      30.435 -22.620 -17.630  0.00  0.00    +0.145 HD
ATOM     28  H   UNL     1      31.935 -21.968 -17.145  0.00  0.00    +0.145 HD
ATOM     29  H   UNL     1      28.549 -26.197 -15.204  0.00  0.00    +0.155 HD
ATOM     30  H   UNL     1      29.354 -26.844 -13.846  0.00  0.00    +0.155 HD
ENDBRANCH  18  23
ENDBRANCH   2  18
TORSDOF 6
ENDMDL
MODEL 3
REMARK VINA RESULT:      -8.8      3.592      5.457
REMARK  Name = 24764487
REMARK  6 active torsions:
REMARK  status: ('A' for Active; 'I' for Inactive)
REMARK    1  A    between atoms: C_1  and  C_13
REMARK    2  A    between atoms: C_2  and  O_18
REMARK    3  A    between atoms: C_4  and  S_7
REMARK    4  A    between atoms: C_5  and  O_16
REMARK    5  A    between atoms: S_7  and  N_10
REMARK    6  A    between atoms: O_18  and  C_23
REMARK                            x       y       z     vdW  Elec       q    Type
REMARK                         _______ _______ _______ _____ _____    ______ ____
ROOT
ATOM      1  C   UNL     1      34.438 -23.441 -16.042  0.00  0.00    +0.015 C 
ATOM      2  C   UNL     1      33.764 -23.266 -17.252  0.00  0.00    +0.143 C 
ATOM      3  C   UNL     1      33.717 -23.546 -14.852  0.00  0.00    +0.037 C 
ATOM      4  C   UNL     1      31.651 -23.300 -16.081  0.00  0.00    +0.158 C 
ATOM      5  C   UNL     1      32.324 -23.475 -14.872  0.00  0.00    +0.157 C 
ATOM      6  C   UNL     1      32.372 -23.195 -17.271  0.00  0.00    +0.060 C 
ENDROOT
BRANCH   4   7
ATOM      7  S   UNL     1      29.905 -23.208 -16.131  0.00  0.00    +0.060 S 
ATOM      8  O   UNL     1      29.522 -22.424 -17.296  0.00  0.00    -0.153 OA
ATOM      9  O   UNL     1      29.370 -24.550 -15.953  0.00  0.00    -0.153 OA
BRANCH   7  10
ATOM     10  N   UNL     1      29.590 -22.297 -14.721  0.00  0.00    -0.203 NA
ATOM     11  H   UNL     1      30.415 -21.748 -14.481  0.00  0.00    +0.144 HD
ATOM     12  H   UNL     1      29.364 -22.927 -13.953  0.00  0.00    +0.144 HD
ENDBRANCH   7  10
ENDBRANCH   4   7
BRANCH   1  13
ATOM     13  C   UNL     1      35.928 -23.519 -16.002  0.00  0.00    +0.025 C 
ATOM     14  C   UNL     1      36.579 -22.161 -15.687  0.00  0.00    +0.005 C 
ATOM     15  C   UNL     1      36.434 -24.586 -15.013  0.00  0.00    +0.005 C 
ENDBRANCH   1  13
BRANCH   5  16
ATOM     16  O   UNL     1      31.641 -23.580 -13.698  0.00  0.00    -0.470 OA
ATOM     17  C   UNL     1      31.405 -24.895 -13.200  0.00  0.00    +0.253 C 
ENDBRANCH   5  16
BRANCH   2  18
ATOM     18  O   UNL     1      34.454 -23.162 -18.423  0.00  0.00    -0.448 OA
BRANCH  18  23
ATOM     19  N   UNL     1      35.258 -20.059 -20.231  0.00  0.00    -0.320 NA
ATOM     20  N   UNL     1      32.873 -20.407 -20.245  0.00  0.00    -0.167 NA
ATOM     21  N   UNL     1      36.684 -21.619 -19.149  0.00  0.00    -0.330 N 
ATOM     22  N   UNL     1      33.824 -18.534 -21.290  0.00  0.00    -0.293 N 
ATOM     23  C   UNL     1      34.315 -21.991 -19.146  0.00  0.00    +0.209 C 
ATOM     24  C   UNL     1      35.382 -21.203 -19.525  0.00  0.00    +0.226 C 
ATOM     25  C   UNL     1      33.071 -21.539 -19.538  0.00  0.00    +0.153 C 
ATOM     26  C   UNL     1      33.993 -19.725 -20.552  0.00  0.00    +0.143 C 
ATOM     27  H   UNL     1      37.466 -21.078 -19.404  0.00  0.00    +0.145 HD
ATOM     28  H   UNL     1      36.806 -22.448 -18.633  0.00  0.00    +0.145 HD
ATOM     29  H   UNL     1      34.609 -17.996 -21.543  0.00  0.00    +0.155 HD
ATOM     30  H   UNL     1      32.921 -18.241 -21.552  0.00  0.00    +0.155 HD
ENDBRANCH  18  23
ENDBRANCH   2  18
TORSDOF 6
ENDMDL
MODEL 4
REMARK VINA RESULT:      -8.5     11.976     14.373
REMARK  Name = 24764487
REMARK  6 active torsions:
REMARK  status: ('A' for Active; 'I' for Inactive)
REMARK    1  A    between atoms: C_1  and  C_13
REMARK    2  A    between atoms: C_2  and  O_18
REMARK    3  A    between atoms: C_4  and  S_7
REMARK    4  A    between atoms: C_5  and  O_16
REMARK    5  A    between atoms: S_7  and  N_10
REMARK    6  A    between atoms: O_18  and  C_23
REMARK                            x       y       z     vdW  Elec       q    Type
REMARK                         _______ _______ _______ _____ _____    ______ ____
ROOT
ATOM      1  C   UNL     1      33.479 -12.616 -24.181  0.00  0.00    +0.015 C 
ATOM      2  C   UNL     1      32.589 -12.411 -23.126  0.00  0.00    +0.143 C 
ATOM      3  C   UNL     1      34.328 -13.724 -24.171  0.00  0.00    +0.037 C 
ATOM      4  C   UNL     1      33.395 -14.420 -22.054  0.00  0.00    +0.158 C 
ATOM      5  C   UNL     1      34.285 -14.626 -23.108  0.00  0.00    +0.157 C 
ATOM      6  C   UNL     1      32.547 -13.312 -22.063  0.00  0.00    +0.060 C 
ENDROOT
BRANCH   4   7
ATOM      7  S   UNL     1      33.323 -15.538 -20.710  0.00  0.00    +0.060 S 
ATOM      8  O   UNL     1      32.429 -14.984 -19.703  0.00  0.00    -0.153 OA
ATOM      9  O   UNL     1      33.085 -16.874 -21.236  0.00  0.00    -0.153 OA
BRANCH   7  10
ATOM     10  N   UNL     1      34.929 -15.450 -20.133  0.00  0.00    -0.203 NA
ATOM     11  H   UNL     1      35.093 -16.207 -19.470  0.00  0.00    +0.144 HD
ATOM     12  H   UNL     1      35.075 -14.554 -19.670  0.00  0.00    +0.144 HD
ENDBRANCH   7  10
ENDBRANCH   4   7
BRANCH   1  13
ATOM     13  C   UNL     1      33.539 -11.661 -25.327  0.00  0.00    +0.025 C 
ATOM     14  C   UNL     1      34.781 -10.754 -25.272  0.00  0.00    +0.005 C 
ATOM     15  C   UNL     1      33.470 -12.375 -26.690  0.00  0.00    +0.005 C 
ENDBRANCH   1  13
BRANCH   5  16
ATOM     16  O   UNL     1      35.122 -15.701 -23.120  0.00  0.00    -0.470 OA
ATOM     17  C   UNL     1      34.962 -16.635 -24.185  0.00  0.00    +0.253 C 
ENDBRANCH   5  16
BRANCH   2  18
ATOM     18  O   UNL     1      31.754 -11.334 -23.121  0.00  0.00    -0.448 OA
BRANCH  18  23
ATOM     19  N   UNL     1      31.784  -9.241 -20.093  0.00  0.00    -0.320 NA
ATOM     20  N   UNL     1      33.198  -8.249 -21.775  0.00  0.00    -0.167 NA
ATOM     21  N   UNL     1      30.638 -11.271 -20.545  0.00  0.00    -0.330 N 
ATOM     22  N   UNL     1      32.926  -7.235 -19.676  0.00  0.00    -0.293 N 
ATOM     23  C   UNL     1      32.038 -10.308 -22.237  0.00  0.00    +0.209 C 
ATOM     24  C   UNL     1      31.513 -10.237 -20.963  0.00  0.00    +0.226 C 
ATOM     25  C   UNL     1      32.883  -9.276 -22.592  0.00  0.00    +0.153 C 
ATOM     26  C   UNL     1      32.621  -8.294 -20.559  0.00  0.00    +0.143 C 
ATOM     27  H   UNL     1      30.247 -11.249 -19.642  0.00  0.00    +0.145 HD
ATOM     28  H   UNL     1      30.422 -12.011 -21.158  0.00  0.00    +0.145 HD
ATOM     29  H   UNL     1      32.533  -7.217 -18.774  0.00  0.00    +0.155 HD
ATOM     30  H   UNL     1      33.533  -6.514 -19.963  0.00  0.00    +0.155 HD
ENDBRANCH  18  23
ENDBRANCH   2  18
TORSDOF 6
ENDMDL
MODEL 5
REMARK VINA RESULT:      -8.4      0.743      1.593
REMARK  Name = 24764487
REMARK  6 active torsions:
REMARK  status: ('A' for Active; 'I' for Inactive)
REMARK    1  A    between atoms: C_1  and  C_13
REMARK    2  A    between atoms: C_2  and  O_18
REMARK    3  A    between atoms: C_4  and  S_7
REMARK    4  A    between atoms: C_5  and  O_16
REMARK    5  A    between atoms: S_7  and  N_10
REMARK    6  A    between atoms: O_18  and  C_23
REMARK                            x       y       z     vdW  Elec       q    Type
REMARK                         _______ _______ _______ _____ _____    ______ ____
ROOT
ATOM      1  C   UNL     1      33.193 -22.899 -17.314  0.00  0.00    +0.015 C 
ATOM      2  C   UNL     1      33.929 -23.573 -16.339  0.00  0.00    +0.143 C 
ATOM      3  C   UNL     1      31.828 -22.680 -17.130  0.00  0.00    +0.037 C 
ATOM      4  C   UNL     1      31.934 -23.809 -14.997  0.00  0.00    +0.158 C 
ATOM      5  C   UNL     1      31.199 -23.134 -15.971  0.00  0.00    +0.157 C 
ATOM      6  C   UNL     1      33.300 -24.028 -15.181  0.00  0.00    +0.060 C 
ENDROOT
BRANCH   4   7
ATOM      7  S   UNL     1      31.168 -24.388 -13.535  0.00  0.00    +0.060 S 
ATOM      8  O   UNL     1      32.046 -25.371 -12.917  0.00  0.00    -0.153 OA
ATOM      9  O   UNL     1      30.713 -23.238 -12.768  0.00  0.00    -0.153 OA
BRANCH   7  10
ATOM     10  N   UNL     1      29.807 -25.192 -14.183  0.00  0.00    -0.203 NA
ATOM     11  H   UNL     1      30.112 -25.863 -14.887  0.00  0.00    +0.144 HD
ATOM     12  H   UNL     1      29.181 -24.510 -14.611  0.00  0.00    +0.144 HD
ENDBRANCH   7  10
ENDBRANCH   4   7
BRANCH   1  13
ATOM     13  C   UNL     1      33.851 -22.405 -18.561  0.00  0.00    +0.025 C 
ATOM     14  C   UNL     1      34.137 -23.539 -19.562  0.00  0.00    +0.005 C 
ATOM     15  C   UNL     1      33.042 -21.290 -19.248  0.00  0.00    +0.005 C 
ENDBRANCH   1  13
BRANCH   5  16
ATOM     16  O   UNL     1      29.865 -22.909 -15.812  0.00  0.00    -0.470 OA
ATOM     17  C   UNL     1      29.024 -23.180 -16.932  0.00  0.00    +0.253 C 
ENDBRANCH   5  16
BRANCH   2  18
ATOM     18  O   UNL     1      35.263 -23.796 -16.504  0.00  0.00    -0.448 OA
BRANCH  18  23
ATOM     19  N   UNL     1      37.727 -22.967 -13.899  0.00  0.00    -0.320 NA
ATOM     20  N   UNL     1      36.687 -25.080 -13.384  0.00  0.00    -0.167 NA
ATOM     21  N   UNL     1      37.098 -21.773 -15.852  0.00  0.00    -0.330 N 
ATOM     22  N   UNL     1      38.330 -24.171 -11.977  0.00  0.00    -0.293 N 
ATOM     23  C   UNL     1      36.046 -23.873 -15.366  0.00  0.00    +0.209 C 
ATOM     24  C   UNL     1      36.959 -22.902 -15.007  0.00  0.00    +0.226 C 
ATOM     25  C   UNL     1      35.952 -24.950 -14.508  0.00  0.00    +0.153 C 
ATOM     26  C   UNL     1      37.543 -24.068 -13.145  0.00  0.00    +0.143 C 
ATOM     27  H   UNL     1      37.741 -21.064 -15.623  0.00  0.00    +0.145 HD
ATOM     28  H   UNL     1      36.552 -21.698 -16.667  0.00  0.00    +0.145 HD
ATOM     29  H   UNL     1      38.972 -23.459 -11.752  0.00  0.00    +0.155 HD
ATOM     30  H   UNL     1      38.237 -24.954 -11.388  0.00  0.00    +0.155 HD
ENDBRANCH  18  23
ENDBRANCH   2  18
TORSDOF 6
ENDMDL
MODEL 6
REMARK VINA RESULT:      -8.4      3.513      6.076
REMARK  Name = 24764487
REMARK  6 active torsions:
REMARK  status: ('A' for Active; 'I' for Inactive)
REMARK    1  A    between atoms: C_1  and  C_13
REMARK    2  A    between atoms: C_2  and  O_18
REMARK    3  A    between atoms: C_4  and  S_7
REMARK    4  A    between atoms: C_5  and  O_16
REMARK    5  A    between atoms: S_7  and  N_10
REMARK    6  A    between atoms: O_18  and  C_23
REMARK                            x       y       z     vdW  Elec       q    Type
REMARK                         _______ _______ _______ _____ _____    ______ ____
ROOT
ATOM      1  C   UNL     1      33.880 -24.187 -14.375  0.00  0.00    +0.015 C 
ATOM      2  C   UNL     1      34.731 -24.091 -15.477  0.00  0.00    +0.143 C 
ATOM      3  C   UNL     1      34.402 -24.479 -13.115  0.00  0.00    +0.037 C 
ATOM      4  C   UNL     1      36.624 -24.579 -14.058  0.00  0.00    +0.158 C 
ATOM      5  C   UNL     1      35.774 -24.675 -12.956  0.00  0.00    +0.157 C 
ATOM      6  C   UNL     1      36.102 -24.288 -15.319  0.00  0.00    +0.060 C 
ENDROOT
BRANCH   4   7
ATOM      7  S   UNL     1      38.349 -24.821 -13.884  0.00  0.00    +0.060 S 
ATOM      8  O   UNL     1      38.579 -26.206 -13.504  0.00  0.00    -0.153 OA
ATOM      9  O   UNL     1      39.009 -24.271 -15.059  0.00  0.00    -0.153 OA
BRANCH   7  10
ATOM     10  N   UNL     1      38.681 -23.815 -12.544  0.00  0.00    -0.203 NA
ATOM     11  H   UNL     1      38.461 -24.315 -11.682  0.00  0.00    +0.144 HD
ATOM     12  H   UNL     1      38.112 -22.972 -12.603  0.00  0.00    +0.144 HD
ENDBRANCH   7  10
ENDBRANCH   4   7
BRANCH   1  13
ATOM     13  C   UNL     1      32.409 -23.980 -14.526  0.00  0.00    +0.025 C 
ATOM     14  C   UNL     1      31.588 -25.093 -13.851  0.00  0.00    +0.005 C 
ATOM     15  C   UNL     1      31.954 -22.604 -14.008  0.00  0.00    +0.005 C 
ENDBRANCH   1  13
BRANCH   5  16
ATOM     16  O   UNL     1      36.262 -24.959 -11.716  0.00  0.00    -0.470 OA
ATOM     17  C   UNL     1      35.667 -24.277 -10.614  0.00  0.00    +0.253 C 
ENDBRANCH   5  16
BRANCH   2  18
ATOM     18  O   UNL     1      34.237 -23.807 -16.715  0.00  0.00    -0.448 OA
BRANCH  18  23
ATOM     19  N   UNL     1      35.075 -21.445 -19.409  0.00  0.00    -0.320 NA
ATOM     20  N   UNL     1      36.849 -21.470 -17.777  0.00  0.00    -0.167 NA
ATOM     21  N   UNL     1      33.165 -22.824 -19.116  0.00  0.00    -0.330 N 
ATOM     22  N   UNL     1      36.976 -20.095 -19.674  0.00  0.00    -0.293 N 
ATOM     23  C   UNL     1      34.913 -22.870 -17.476  0.00  0.00    +0.209 C 
ATOM     24  C   UNL     1      34.424 -22.360 -18.660  0.00  0.00    +0.226 C 
ATOM     25  C   UNL     1      36.142 -22.384 -17.079  0.00  0.00    +0.153 C 
ATOM     26  C   UNL     1      36.265 -21.051 -18.916  0.00  0.00    +0.143 C 
ATOM     27  H   UNL     1      32.788 -22.479 -19.958  0.00  0.00    +0.145 HD
ATOM     28  H   UNL     1      32.667 -23.491 -18.591  0.00  0.00    +0.145 HD
ATOM     29  H   UNL     1      36.596 -19.753 -20.515  0.00  0.00    +0.155 HD
ATOM     30  H   UNL     1      37.851 -19.771 -19.361  0.00  0.00    +0.155 HD
ENDBRANCH  18  23
ENDBRANCH   2  18
TORSDOF 6
ENDMDL
MODEL 7
REMARK VINA RESULT:      -8.3     12.136     14.517
REMARK  Name = 24764487
REMARK  6 active torsions:
REMARK  status: ('A' for Active; 'I' for Inactive)
REMARK    1  A    between atoms: C_1  and  C_13
REMARK    2  A    between atoms: C_2  and  O_18
REMARK    3  A    between atoms: C_4  and  S_7
REMARK    4  A    between atoms: C_5  and  O_16
REMARK    5  A    between atoms: S_7  and  N_10
REMARK    6  A    between atoms: O_18  and  C_23
REMARK                            x       y       z     vdW  Elec       q    Type
REMARK                         _______ _______ _______ _____ _____    ______ ____
ROOT
ATOM      1  C   UNL     1      33.430 -12.512 -23.916  0.00  0.00    +0.015 C 
ATOM      2  C   UNL     1      32.483 -12.384 -22.898  0.00  0.00    +0.143 C 
ATOM      3  C   UNL     1      34.312 -13.592 -23.915  0.00  0.00    +0.037 C 
ATOM      4  C   UNL     1      33.303 -14.416 -21.881  0.00  0.00    +0.158 C 
ATOM      5  C   UNL     1      34.249 -14.545 -22.898  0.00  0.00    +0.157 C 
ATOM      6  C   UNL     1      32.421 -13.335 -21.881  0.00  0.00    +0.060 C 
ENDROOT
BRANCH   4   7
ATOM      7  S   UNL     1      33.204 -15.597 -20.594  0.00  0.00    +0.060 S 
ATOM      8  O   UNL     1      32.341 -15.064 -19.550  0.00  0.00    -0.153 OA
ATOM      9  O   UNL     1      32.912 -16.895 -21.184  0.00  0.00    -0.153 OA
BRANCH   7  10
ATOM     10  N   UNL     1      34.817 -15.597 -20.032  0.00  0.00    -0.203 NA
ATOM     11  H   UNL     1      35.147 -16.558 -19.947  0.00  0.00    +0.144 HD
ATOM     12  H   UNL     1      34.860 -15.140 -19.122  0.00  0.00    +0.144 HD
ENDBRANCH   7  10
ENDBRANCH   4   7
BRANCH   1  13
ATOM     13  C   UNL     1      33.512 -11.503 -25.013  0.00  0.00    +0.025 C 
ATOM     14  C   UNL     1      34.681 -10.520 -24.821  0.00  0.00    +0.005 C 
ATOM     15  C   UNL     1      33.598 -12.155 -26.405  0.00  0.00    +0.005 C 
ENDBRANCH   1  13
BRANCH   5  16
ATOM     16  O   UNL     1      35.120 -15.592 -22.918  0.00  0.00    -0.470 OA
ATOM     17  C   UNL     1      35.001 -16.514 -23.999  0.00  0.00    +0.253 C 
ENDBRANCH   5  16
BRANCH   2  18
ATOM     18  O   UNL     1      31.615 -11.334 -22.884  0.00  0.00    -0.448 OA
BRANCH  18  23
ATOM     19  N   UNL     1      32.341  -7.934 -21.677  0.00  0.00    -0.320 NA
ATOM     20  N   UNL     1      32.339  -9.469 -19.818  0.00  0.00    -0.167 NA
ATOM     21  N   UNL     1      31.912  -8.724 -23.875  0.00  0.00    -0.330 N 
ATOM     22  N   UNL     1      32.763  -7.184 -19.495  0.00  0.00    -0.293 N 
ATOM     23  C   UNL     1      31.905 -10.273 -22.044  0.00  0.00    +0.209 C 
ATOM     24  C   UNL     1      32.058  -8.976 -22.488  0.00  0.00    +0.226 C 
ATOM     25  C   UNL     1      32.058 -10.463 -20.686  0.00  0.00    +0.153 C 
ATOM     26  C   UNL     1      32.467  -8.248 -20.373  0.00  0.00    +0.143 C 
ATOM     27  H   UNL     1      32.016  -7.809 -24.222  0.00  0.00    +0.145 HD
ATOM     28  H   UNL     1      31.707  -9.464 -24.490  0.00  0.00    +0.145 HD
ATOM     29  H   UNL     1      32.866  -6.270 -19.846  0.00  0.00    +0.155 HD
ATOM     30  H   UNL     1      32.866  -7.355 -18.530  0.00  0.00    +0.155 HD
ENDBRANCH  18  23
ENDBRANCH   2  18
TORSDOF 6
ENDMDL
MODEL 8
REMARK VINA RESULT:      -7.8     11.701     13.748
REMARK  Name = 24764487
REMARK  6 active torsions:
REMARK  status: ('A' for Active; 'I' for Inactive)
REMARK    1  A    between atoms: C_1  and  C_13
REMARK    2  A    between atoms: C_2  and  O_18
REMARK    3  A    between atoms: C_4  and  S_7
REMARK    4  A    between atoms: C_5  and  O_16
REMARK    5  A    between atoms: S_7  and  N_10
REMARK    6  A    between atoms: O_18  and  C_23
REMARK                            x       y       z     vdW  Elec       q    Type
REMARK                         _______ _______ _______ _____ _____    ______ ____
ROOT
ATOM      1  C   UNL     1      33.782 -11.680 -24.594  0.00  0.00    +0.015 C 
ATOM      2  C   UNL     1      33.413 -12.837 -23.907  0.00  0.00    +0.143 C 
ATOM      3  C   UNL     1      33.420 -10.428 -24.097  0.00  0.00    +0.037 C 
ATOM      4  C   UNL     1      32.321 -11.489 -22.225  0.00  0.00    +0.158 C 
ATOM      5  C   UNL     1      32.690 -10.332 -22.912  0.00  0.00    +0.157 C 
ATOM      6  C   UNL     1      32.683 -12.742 -22.723  0.00  0.00    +0.060 C 
ENDROOT
BRANCH   4   7
ATOM      7  S   UNL     1      31.406 -11.396 -20.737  0.00  0.00    +0.060 S 
ATOM      8  O   UNL     1      30.002 -11.217 -21.075  0.00  0.00    -0.153 OA
ATOM      9  O   UNL     1      31.811 -12.499 -19.879  0.00  0.00    -0.153 OA
BRANCH   7  10
ATOM     10  N   UNL     1      32.008  -9.938 -20.081  0.00  0.00    -0.203 NA
ATOM     11  H   UNL     1      31.253  -9.254 -20.022  0.00  0.00    +0.144 HD
ATOM     12  H   UNL     1      32.749  -9.576 -20.679  0.00  0.00    +0.144 HD
ENDBRANCH   7  10
ENDBRANCH   4   7
BRANCH   1  13
ATOM     13  C   UNL     1      34.564 -11.763 -25.864  0.00  0.00    +0.025 C 
ATOM     14  C   UNL     1      33.687 -12.147 -27.069  0.00  0.00    +0.005 C 
ATOM     15  C   UNL     1      35.331 -10.463 -26.167  0.00  0.00    +0.005 C 
ENDBRANCH   1  13
BRANCH   5  16
ATOM     16  O   UNL     1      32.348  -9.100 -22.444  0.00  0.00    -0.470 OA
ATOM     17  C   UNL     1      31.446  -8.332 -23.239  0.00  0.00    +0.253 C 
ENDBRANCH   5  16
BRANCH   2  18
ATOM     18  O   UNL     1      33.759 -14.067 -24.380  0.00  0.00    -0.448 OA
BRANCH  18  23
ATOM     19  N   UNL     1      34.866 -17.252 -22.904  0.00  0.00    -0.320 NA
ATOM     20  N   UNL     1      34.791 -15.553 -21.196  0.00  0.00    -0.167 NA
ATOM     21  N   UNL     1      34.270 -16.721 -25.140  0.00  0.00    -0.330 N 
ATOM     22  N   UNL     1      35.448 -17.747 -20.686  0.00  0.00    -0.293 N 
ATOM     23  C   UNL     1      34.186 -15.010 -23.462  0.00  0.00    +0.209 C 
ATOM     24  C   UNL     1      34.449 -16.324 -23.792  0.00  0.00    +0.226 C 
ATOM     25  C   UNL     1      34.376 -14.678 -22.136  0.00  0.00    +0.153 C 
ATOM     26  C   UNL     1      35.013 -16.803 -21.642  0.00  0.00    +0.143 C 
ATOM     27  H   UNL     1      34.449 -17.652 -25.407  0.00  0.00    +0.145 HD
ATOM     28  H   UNL     1      33.966 -16.067 -25.810  0.00  0.00    +0.145 HD
ATOM     29  H   UNL     1      35.626 -18.676 -20.957  0.00  0.00    +0.155 HD
ATOM     30  H   UNL     1      35.572 -17.475 -19.748  0.00  0.00    +0.155 HD
ENDBRANCH  18  23
ENDBRANCH   2  18
TORSDOF 6
ENDMDL
MODEL 9
REMARK VINA RESULT:      -7.8     12.390     14.819
REMARK  Name = 24764487
REMARK  6 active torsions:
REMARK  status: ('A' for Active; 'I' for Inactive)
REMARK    1  A    between atoms: C_1  and  C_13
REMARK    2  A    between atoms: C_2  and  O_18
REMARK    3  A    between atoms: C_4  and  S_7
REMARK    4  A    between atoms: C_5  and  O_16
REMARK    5  A    between atoms: S_7  and  N_10
REMARK    6  A    between atoms: O_18  and  C_23
REMARK                            x       y       z     vdW  Elec       q    Type
REMARK                         _______ _______ _______ _____ _____    ______ ____
ROOT
ATOM      1  C   UNL     1      33.694 -14.863 -22.421  0.00  0.00    +0.015 C 
ATOM      2  C   UNL     1      33.027 -13.720 -22.865  0.00  0.00    +0.143 C 
ATOM      3  C   UNL     1      34.101 -15.832 -23.339  0.00  0.00    +0.037 C 
ATOM      4  C   UNL     1      33.177 -14.515 -25.141  0.00  0.00    +0.158 C 
ATOM      5  C   UNL     1      33.844 -15.658 -24.699  0.00  0.00    +0.157 C 
ATOM      6  C   UNL     1      32.768 -13.546 -24.223  0.00  0.00    +0.060 C 
ENDROOT
BRANCH   4   7
ATOM      7  S   UNL     1      32.842 -14.274 -26.841  0.00  0.00    +0.060 S 
ATOM      8  O   UNL     1      31.815 -13.250 -26.963  0.00  0.00    -0.153 OA
ATOM      9  O   UNL     1      34.109 -14.118 -27.541  0.00  0.00    -0.153 OA
BRANCH   7  10
ATOM     10  N   UNL     1      32.167 -15.788 -27.254  0.00  0.00    -0.203 NA
ATOM     11  H   UNL     1      31.599 -15.688 -28.095  0.00  0.00    +0.144 HD
ATOM     12  H   UNL     1      31.584 -16.120 -26.487  0.00  0.00    +0.144 HD
ENDBRANCH   7  10
ENDBRANCH   4   7
BRANCH   1  13
ATOM     13  C   UNL     1      33.978 -15.066 -20.970  0.00  0.00    +0.025 C 
ATOM     14  C   UNL     1      32.694 -15.192 -20.131  0.00  0.00    +0.005 C 
ATOM     15  C   UNL     1      34.892 -16.279 -20.715  0.00  0.00    +0.005 C 
ENDBRANCH   1  13
BRANCH   5  16
ATOM     16  O   UNL     1      34.252 -16.616 -25.576  0.00  0.00    -0.470 OA
ATOM     17  C   UNL     1      34.563 -17.899 -25.037  0.00  0.00    +0.253 C 
ENDBRANCH   5  16
BRANCH   2  18
ATOM     18  O   UNL     1      32.622 -12.765 -21.981  0.00  0.00    -0.448 OA
BRANCH  18  23
ATOM     19  N   UNL     1      30.983  -9.538 -22.653  0.00  0.00    -0.320 NA
ATOM     20  N   UNL     1      33.082  -9.640 -23.835  0.00  0.00    -0.167 NA
ATOM     21  N   UNL     1      30.280 -11.368 -21.313  0.00  0.00    -0.330 N 
ATOM     22  N   UNL     1      31.704  -7.747 -23.986  0.00  0.00    -0.293 N 
ATOM     23  C   UNL     1      32.372 -11.497 -22.477  0.00  0.00    +0.209 C 
ATOM     24  C   UNL     1      31.236 -10.775 -22.175  0.00  0.00    +0.226 C 
ATOM     25  C   UNL     1      33.269 -10.874 -23.320  0.00  0.00    +0.153 C 
ATOM     26  C   UNL     1      31.935  -9.039 -23.466  0.00  0.00    +0.143 C 
ATOM     27  H   UNL     1      29.458 -10.878 -21.078  0.00  0.00    +0.145 HD
ATOM     28  H   UNL     1      30.437 -12.269 -20.949  0.00  0.00    +0.145 HD
ATOM     29  H   UNL     1      30.882  -7.261 -23.749  0.00  0.00    +0.155 HD
ATOM     30  H   UNL     1      32.365  -7.332 -24.586  0.00  0.00    +0.155 HD
ENDBRANCH  18  23
ENDBRANCH   2  18
TORSDOF 6
ENDMDL
