MODEL 1
REMARK VINA RESULT:      -8.0      0.000      0.000
REMARK  Name = 515328
REMARK  4 active torsions:
REMARK  status: ('A' for Active; 'I' for Inactive)
REMARK    1  A    between atoms: N_3  and  C1*_15
REMARK    2  A    between atoms: C3*_13  and  O3*_17
REMARK    3  A    between atoms: C4*_16  and  C5*_19
REMARK    4  A    between atoms: C5*_19  and  O5*_20
REMARK                            x       y       z     vdW  Elec       q    Type
REMARK                         _______ _______ _______ _____ _____    ______ ____
ROOT
ATOM      1  F   UNL     1      32.566 -23.982 -15.411  0.00  0.00    -0.199 F 
ATOM      2  O   UNL     1      37.448 -22.231 -16.737  0.00  0.00    -0.193 OA
ATOM      3  N   UNL     1      36.063 -23.094 -15.103  0.00  0.00    -0.178 N 
ATOM      4  N   UNL     1      35.303 -22.648 -17.356  0.00  0.00    -0.304 NA
ATOM      5  N   UNL     1      33.100 -23.080 -17.980  0.00  0.00    -0.330 N 
ATOM      6  C   UNL     1      34.793 -23.544 -14.780  0.00  0.00    +0.113 C 
ATOM      7  C   UNL     1      36.328 -22.636 -16.421  0.00  0.00    +0.276 C 
ATOM      8  C   UNL     1      33.813 -23.556 -15.676  0.00  0.00    +0.200 C 
ATOM      9  C   UNL     1      34.106 -23.074 -17.044  0.00  0.00    +0.220 C 
ATOM     10  H   UNL     1      33.278 -22.763 -18.895  0.00  0.00    +0.145 HD
ATOM     11  H   UNL     1      32.203 -23.403 -17.736  0.00  0.00    +0.145 HD
ENDROOT
BRANCH   3  15
ATOM     12  O4* UNL     1      37.978 -24.205 -14.346  0.00  0.00    -0.334 OA
ATOM     13  C3* UNL     1      37.665 -23.997 -12.005  0.00  0.00    +0.144 C 
ATOM     14  C2* UNL     1      36.568 -23.223 -12.698  0.00  0.00    +0.084 C 
ATOM     15  C1* UNL     1      37.102 -23.092 -14.115  0.00  0.00    +0.209 C 
ATOM     16  C4* UNL     1      38.194 -24.905 -13.106  0.00  0.00    +0.173 C 
BRANCH  13  17
ATOM     17  O3* UNL     1      38.690 -23.101 -11.580  0.00  0.00    -0.382 OA
ATOM     18  H3* UNL     1      38.391 -22.186 -11.704  0.00  0.00    +0.210 HD
ENDBRANCH  13  17
BRANCH  16  19
ATOM     19  C5* UNL     1      37.455 -26.234 -13.184  0.00  0.00    +0.169 C 
BRANCH  19  20
ATOM     20  O5* UNL     1      36.875 -26.510 -11.919  0.00  0.00    -0.379 OA
ATOM     21  H5* UNL     1      36.940 -25.725 -11.354  0.00  0.00    +0.211 HD
ENDBRANCH  19  20
ENDBRANCH  16  19
ENDBRANCH   3  15
TORSDOF 4
ENDMDL
MODEL 2
REMARK VINA RESULT:      -7.7      2.122      2.921
REMARK  Name = 515328
REMARK  4 active torsions:
REMARK  status: ('A' for Active; 'I' for Inactive)
REMARK    1  A    between atoms: N_3  and  C1*_15
REMARK    2  A    between atoms: C3*_13  and  O3*_17
REMARK    3  A    between atoms: C4*_16  and  C5*_19
REMARK    4  A    between atoms: C5*_19  and  O5*_20
REMARK                            x       y       z     vdW  Elec       q    Type
REMARK                         _______ _______ _______ _____ _____    ______ ____
ROOT
ATOM      1  F   UNL     1      30.712 -23.197 -14.197  0.00  0.00    -0.199 F 
ATOM      2  O   UNL     1      34.098 -23.216 -18.345  0.00  0.00    -0.193 OA
ATOM      3  N   UNL     1      33.792 -23.518 -16.076  0.00  0.00    -0.178 N 
ATOM      4  N   UNL     1      31.986 -22.911 -17.567  0.00  0.00    -0.304 NA
ATOM      5  N   UNL     1      29.823 -22.601 -16.758  0.00  0.00    -0.330 N 
ATOM      6  C   UNL     1      32.899 -23.508 -15.016  0.00  0.00    +0.113 C 
ATOM      7  C   UNL     1      33.327 -23.214 -17.382  0.00  0.00    +0.276 C 
ATOM      8  C   UNL     1      31.615 -23.220 -15.193  0.00  0.00    +0.200 C 
ATOM      9  C   UNL     1      31.149 -22.903 -16.561  0.00  0.00    +0.220 C 
ATOM     10  H   UNL     1      29.496 -22.388 -17.662  0.00  0.00    +0.145 HD
ATOM     11  H   UNL     1      29.200 -22.598 -15.995  0.00  0.00    +0.145 HD
ENDROOT
BRANCH   3  15
ATOM     12  O4* UNL     1      35.277 -24.783 -14.784  0.00  0.00    -0.334 OA
ATOM     13  C3* UNL     1      37.037 -23.213 -14.540  0.00  0.00    +0.144 C 
ATOM     14  C2* UNL     1      36.000 -22.620 -15.466  0.00  0.00    +0.084 C 
ATOM     15  C1* UNL     1      35.172 -23.834 -15.855  0.00  0.00    +0.209 C 
ATOM     16  C4* UNL     1      36.278 -24.338 -13.850  0.00  0.00    +0.173 C 
BRANCH  13  17
ATOM     17  O3* UNL     1      38.112 -23.753 -15.307  0.00  0.00    -0.382 OA
ATOM     18  H3* UNL     1      38.717 -23.038 -15.562  0.00  0.00    +0.210 HD
ENDBRANCH  13  17
BRANCH  16  19
ATOM     19  C5* UNL     1      35.567 -23.881 -12.583  0.00  0.00    +0.169 C 
BRANCH  19  20
ATOM     20  O5* UNL     1      34.720 -24.926 -12.130  0.00  0.00    -0.379 OA
ATOM     21  H5* UNL     1      34.107 -25.176 -12.839  0.00  0.00    +0.211 HD
ENDBRANCH  19  20
ENDBRANCH  16  19
ENDBRANCH   3  15
TORSDOF 4
ENDMDL
MODEL 3
REMARK VINA RESULT:      -7.5      6.730      9.691
REMARK  Name = 515328
REMARK  4 active torsions:
REMARK  status: ('A' for Active; 'I' for Inactive)
REMARK    1  A    between atoms: N_3  and  C1*_15
REMARK    2  A    between atoms: C3*_13  and  O3*_17
REMARK    3  A    between atoms: C4*_16  and  C5*_19
REMARK    4  A    between atoms: C5*_19  and  O5*_20
REMARK                            x       y       z     vdW  Elec       q    Type
REMARK                         _______ _______ _______ _____ _____    ______ ____
ROOT
ATOM      1  F   UNL     1      32.318 -21.040 -19.996  0.00  0.00    -0.199 F 
ATOM      2  O   UNL     1      37.404 -19.476 -20.588  0.00  0.00    -0.193 OA
ATOM      3  N   UNL     1      35.175 -19.078 -21.045  0.00  0.00    -0.178 N 
ATOM      4  N   UNL     1      35.921 -20.969 -19.734  0.00  0.00    -0.304 NA
ATOM      5  N   UNL     1      34.391 -22.495 -18.861  0.00  0.00    -0.330 N 
ATOM      6  C   UNL     1      33.866 -19.499 -20.879  0.00  0.00    +0.113 C 
ATOM      7  C   UNL     1      36.229 -19.828 -20.458  0.00  0.00    +0.276 C 
ATOM      8  C   UNL     1      33.571 -20.591 -20.184  0.00  0.00    +0.200 C 
ATOM      9  C   UNL     1      34.682 -21.361 -19.582  0.00  0.00    +0.220 C 
ATOM     10  H   UNL     1      35.118 -23.019 -18.454  0.00  0.00    +0.145 HD
ATOM     11  H   UNL     1      33.455 -22.782 -18.752  0.00  0.00    +0.145 HD
ENDROOT
BRANCH   3  15
ATOM     12  O4* UNL     1      35.243 -16.740 -20.977  0.00  0.00    -0.334 OA
ATOM     13  C3* UNL     1      34.432 -16.250 -23.150  0.00  0.00    +0.144 C 
ATOM     14  C2* UNL     1      34.581 -17.750 -23.029  0.00  0.00    +0.084 C 
ATOM     15  C1* UNL     1      35.464 -17.894 -21.800  0.00  0.00    +0.209 C 
ATOM     16  C4* UNL     1      34.445 -15.785 -21.701  0.00  0.00    +0.173 C 
BRANCH  13  17
ATOM     17  O3* UNL     1      35.556 -15.711 -23.843  0.00  0.00    -0.382 OA
ATOM     18  H3* UNL     1      35.579 -14.749 -23.722  0.00  0.00    +0.210 HD
ENDBRANCH  13  17
BRANCH  16  19
ATOM     19  C5* UNL     1      33.057 -15.762 -21.074  0.00  0.00    +0.169 C 
BRANCH  19  20
ATOM     20  O5* UNL     1      32.221 -14.912 -21.843  0.00  0.00    -0.379 OA
ATOM     21  H5* UNL     1      32.767 -14.351 -22.416  0.00  0.00    +0.211 HD
ENDBRANCH  19  20
ENDBRANCH  16  19
ENDBRANCH   3  15
TORSDOF 4
ENDMDL
MODEL 4
REMARK VINA RESULT:      -7.5      8.980     10.954
REMARK  Name = 515328
REMARK  4 active torsions:
REMARK  status: ('A' for Active; 'I' for Inactive)
REMARK    1  A    between atoms: N_3  and  C1*_15
REMARK    2  A    between atoms: C3*_13  and  O3*_17
REMARK    3  A    between atoms: C4*_16  and  C5*_19
REMARK    4  A    between atoms: C5*_19  and  O5*_20
REMARK                            x       y       z     vdW  Elec       q    Type
REMARK                         _______ _______ _______ _____ _____    ______ ____
ROOT
ATOM      1  F   UNL     1      33.202 -13.832 -23.323  0.00  0.00    -0.199 F 
ATOM      2  O   UNL     1      34.797 -18.361 -25.691  0.00  0.00    -0.193 OA
ATOM      3  N   UNL     1      34.663 -17.118 -23.750  0.00  0.00    -0.178 N 
ATOM      4  N   UNL     1      33.794 -16.331 -25.865  0.00  0.00    -0.304 NA
ATOM      5  N   UNL     1      32.767 -14.246 -26.032  0.00  0.00    -0.330 N 
ATOM      6  C   UNL     1      34.242 -15.939 -23.155  0.00  0.00    +0.113 C 
ATOM      7  C   UNL     1      34.434 -17.322 -25.136  0.00  0.00    +0.276 C 
ATOM      8  C   UNL     1      33.628 -14.991 -23.854  0.00  0.00    +0.200 C 
ATOM      9  C   UNL     1      33.400 -15.220 -25.298  0.00  0.00    +0.220 C 
ATOM     10  H   UNL     1      32.606 -14.382 -26.994  0.00  0.00    +0.145 HD
ATOM     11  H   UNL     1      32.473 -13.413 -25.596  0.00  0.00    +0.145 HD
ENDROOT
BRANCH   3  15
ATOM     12  O4* UNL     1      34.475 -19.277 -22.868  0.00  0.00    -0.334 OA
ATOM     13  C3* UNL     1      35.508 -18.943 -20.760  0.00  0.00    +0.144 C 
ATOM     14  C2* UNL     1      35.635 -17.664 -21.556  0.00  0.00    +0.084 C 
ATOM     15  C1* UNL     1      35.323 -18.125 -22.971  0.00  0.00    +0.209 C 
ATOM     16  C4* UNL     1      34.406 -19.696 -21.492  0.00  0.00    +0.173 C 
BRANCH  13  17
ATOM     17  O3* UNL     1      36.729 -19.677 -20.835  0.00  0.00    -0.382 OA
ATOM     18  H3* UNL     1      36.926 -19.882 -21.762  0.00  0.00    +0.210 HD
ENDBRANCH  13  17
BRANCH  16  19
ATOM     19  C5* UNL     1      33.015 -19.363 -20.970  0.00  0.00    +0.169 C 
BRANCH  19  20
ATOM     20  O5* UNL     1      32.620 -20.364 -20.046  0.00  0.00    -0.379 OA
ATOM     21  H5* UNL     1      32.610 -21.228 -20.488  0.00  0.00    +0.211 HD
ENDBRANCH  19  20
ENDBRANCH  16  19
ENDBRANCH   3  15
TORSDOF 4
ENDMDL
MODEL 5
REMARK VINA RESULT:      -7.5      2.406      3.623
REMARK  Name = 515328
REMARK  4 active torsions:
REMARK  status: ('A' for Active; 'I' for Inactive)
REMARK    1  A    between atoms: N_3  and  C1*_15
REMARK    2  A    between atoms: C3*_13  and  O3*_17
REMARK    3  A    between atoms: C4*_16  and  C5*_19
REMARK    4  A    between atoms: C5*_19  and  O5*_20
REMARK                            x       y       z     vdW  Elec       q    Type
REMARK                         _______ _______ _______ _____ _____    ______ ____
ROOT
ATOM      1  F   UNL     1      32.832 -22.626 -18.124  0.00  0.00    -0.199 F 
ATOM      2  O   UNL     1      32.329 -24.538 -13.149  0.00  0.00    -0.193 OA
ATOM      3  N   UNL     1      33.730 -24.056 -14.920  0.00  0.00    -0.178 N 
ATOM      4  N   UNL     1      31.347 -23.643 -14.991  0.00  0.00    -0.304 NA
ATOM      5  N   UNL     1      30.351 -22.724 -16.887  0.00  0.00    -0.330 N 
ATOM      6  C   UNL     1      33.839 -23.557 -16.208  0.00  0.00    +0.113 C 
ATOM      7  C   UNL     1      32.456 -24.100 -14.294  0.00  0.00    +0.276 C 
ATOM      8  C   UNL     1      32.777 -23.118 -16.875  0.00  0.00    +0.200 C 
ATOM      9  C   UNL     1      31.458 -23.174 -16.207  0.00  0.00    +0.220 C 
ATOM     10  H   UNL     1      29.465 -22.754 -16.457  0.00  0.00    +0.145 HD
ATOM     11  H   UNL     1      30.443 -22.372 -17.801  0.00  0.00    +0.145 HD
ENDROOT
BRANCH   3  15
ATOM     12  O4* UNL     1      35.741 -23.406 -13.916  0.00  0.00    -0.334 OA
ATOM     13  C3* UNL     1      37.127 -25.209 -14.586  0.00  0.00    +0.144 C 
ATOM     14  C2* UNL     1      35.717 -25.502 -15.045  0.00  0.00    +0.084 C 
ATOM     15  C1* UNL     1      34.894 -24.522 -14.225  0.00  0.00    +0.209 C 
ATOM     16  C4* UNL     1      37.093 -23.713 -14.304  0.00  0.00    +0.173 C 
BRANCH  13  17
ATOM     17  O3* UNL     1      37.398 -25.924 -13.382  0.00  0.00    -0.382 OA
ATOM     18  H3* UNL     1      36.676 -25.778 -12.750  0.00  0.00    +0.210 HD
ENDBRANCH  13  17
BRANCH  16  19
ATOM     19  C5* UNL     1      37.434 -22.873 -15.527  0.00  0.00    +0.169 C 
BRANCH  19  20
ATOM     20  O5* UNL     1      38.673 -23.316 -16.057  0.00  0.00    -0.379 OA
ATOM     21  H5* UNL     1      38.593 -23.429 -17.017  0.00  0.00    +0.211 HD
ENDBRANCH  19  20
ENDBRANCH  16  19
ENDBRANCH   3  15
TORSDOF 4
ENDMDL
MODEL 6
REMARK VINA RESULT:      -7.2      2.154      2.924
REMARK  Name = 515328
REMARK  4 active torsions:
REMARK  status: ('A' for Active; 'I' for Inactive)
REMARK    1  A    between atoms: N_3  and  C1*_15
REMARK    2  A    between atoms: C3*_13  and  O3*_17
REMARK    3  A    between atoms: C4*_16  and  C5*_19
REMARK    4  A    between atoms: C5*_19  and  O5*_20
REMARK                            x       y       z     vdW  Elec       q    Type
REMARK                         _______ _______ _______ _____ _____    ______ ____
ROOT
ATOM      1  F   UNL     1      37.191 -21.475 -17.994  0.00  0.00    -0.199 F 
ATOM      2  O   UNL     1      34.099 -24.550 -14.888  0.00  0.00    -0.193 OA
ATOM      3  N   UNL     1      36.169 -23.587 -15.236  0.00  0.00    -0.178 N 
ATOM      4  N   UNL     1      34.318 -23.288 -16.764  0.00  0.00    -0.304 NA
ATOM      5  N   UNL     1      34.553 -21.991 -18.685  0.00  0.00    -0.330 N 
ATOM      6  C   UNL     1      36.953 -22.788 -16.053  0.00  0.00    +0.113 C 
ATOM      7  C   UNL     1      34.820 -23.844 -15.596  0.00  0.00    +0.276 C 
ATOM      8  C   UNL     1      36.471 -22.255 -17.170  0.00  0.00    +0.200 C 
ATOM      9  C   UNL     1      35.063 -22.535 -17.531  0.00  0.00    +0.220 C 
ATOM     10  H   UNL     1      33.618 -22.166 -18.940  0.00  0.00    +0.145 HD
ATOM     11  H   UNL     1      35.121 -21.425 -19.255  0.00  0.00    +0.145 HD
ENDROOT
BRANCH   3  15
ATOM     12  O4* UNL     1      38.087 -23.748 -13.905  0.00  0.00    -0.334 OA
ATOM     13  C3* UNL     1      37.925 -26.018 -13.238  0.00  0.00    +0.144 C 
ATOM     14  C2* UNL     1      36.686 -25.669 -14.029  0.00  0.00    +0.084 C 
ATOM     15  C1* UNL     1      36.716 -24.149 -14.035  0.00  0.00    +0.209 C 
ATOM     16  C4* UNL     1      38.894 -24.903 -13.607  0.00  0.00    +0.173 C 
BRANCH  13  17
ATOM     17  O3* UNL     1      37.633 -25.965 -11.843  0.00  0.00    -0.382 OA
ATOM     18  H3* UNL     1      36.778 -26.391 -11.675  0.00  0.00    +0.210 HD
ENDBRANCH  13  17
BRANCH  16  19
ATOM     19  C5* UNL     1      39.725 -25.227 -14.842  0.00  0.00    +0.169 C 
BRANCH  19  20
ATOM     20  O5* UNL     1      41.081 -24.902 -14.580  0.00  0.00    -0.379 OA
ATOM     21  H5* UNL     1      41.656 -25.405 -15.177  0.00  0.00    +0.211 HD
ENDBRANCH  19  20
ENDBRANCH  16  19
ENDBRANCH   3  15
TORSDOF 4
ENDMDL
MODEL 7
REMARK VINA RESULT:      -7.1      3.931      5.755
REMARK  Name = 515328
REMARK  4 active torsions:
REMARK  status: ('A' for Active; 'I' for Inactive)
REMARK    1  A    between atoms: N_3  and  C1*_15
REMARK    2  A    between atoms: C3*_13  and  O3*_17
REMARK    3  A    between atoms: C4*_16  and  C5*_19
REMARK    4  A    between atoms: C5*_19  and  O5*_20
REMARK                            x       y       z     vdW  Elec       q    Type
REMARK                         _______ _______ _______ _____ _____    ______ ____
ROOT
ATOM      1  F   UNL     1      33.059 -21.852 -19.543  0.00  0.00    -0.199 F 
ATOM      2  O   UNL     1      35.010 -23.890 -14.994  0.00  0.00    -0.193 OA
ATOM      3  N   UNL     1      33.155 -23.459 -16.300  0.00  0.00    -0.178 N 
ATOM      4  N   UNL     1      35.397 -22.852 -16.976  0.00  0.00    -0.304 NA
ATOM      5  N   UNL     1      35.782 -21.787 -19.013  0.00  0.00    -0.330 N 
ATOM      6  C   UNL     1      32.670 -22.927 -17.483  0.00  0.00    +0.113 C 
ATOM      7  C   UNL     1      34.550 -23.423 -16.038  0.00  0.00    +0.276 C 
ATOM      8  C   UNL     1      33.481 -22.381 -18.382  0.00  0.00    +0.200 C 
ATOM      9  C   UNL     1      34.931 -22.350 -18.091  0.00  0.00    +0.220 C 
ATOM     10  H   UNL     1      36.750 -21.758 -18.836  0.00  0.00    +0.145 HD
ATOM     11  H   UNL     1      35.423 -21.413 -19.850  0.00  0.00    +0.145 HD
ENDROOT
BRANCH   3  15
ATOM     12  O4* UNL     1      30.968 -24.218 -15.956  0.00  0.00    -0.334 OA
ATOM     13  C3* UNL     1      30.627 -23.471 -13.732  0.00  0.00    +0.144 C 
ATOM     14  C2* UNL     1      32.060 -23.176 -14.114  0.00  0.00    +0.084 C 
ATOM     15  C1* UNL     1      32.256 -24.043 -15.348  0.00  0.00    +0.209 C 
ATOM     16  C4* UNL     1      29.952 -23.700 -15.077  0.00  0.00    +0.173 C 
BRANCH  13  17
ATOM     17  O3* UNL     1      30.575 -24.664 -12.953  0.00  0.00    -0.382 OA
ATOM     18  H3* UNL     1      30.095 -24.490 -12.128  0.00  0.00    +0.210 HD
ENDBRANCH  13  17
BRANCH  16  19
ATOM     19  C5* UNL     1      29.409 -22.417 -15.693  0.00  0.00    +0.169 C 
BRANCH  19  20
ATOM     20  O5* UNL     1      29.238 -22.615 -17.088  0.00  0.00    -0.379 OA
ATOM     21  H5* UNL     1      30.017 -22.280 -17.560  0.00  0.00    +0.211 HD
ENDBRANCH  19  20
ENDBRANCH  16  19
ENDBRANCH   3  15
TORSDOF 4
ENDMDL
MODEL 8
REMARK VINA RESULT:      -7.1     14.737     16.751
REMARK  Name = 515328
REMARK  4 active torsions:
REMARK  status: ('A' for Active; 'I' for Inactive)
REMARK    1  A    between atoms: N_3  and  C1*_15
REMARK    2  A    between atoms: C3*_13  and  O3*_17
REMARK    3  A    between atoms: C4*_16  and  C5*_19
REMARK    4  A    between atoms: C5*_19  and  O5*_20
REMARK                            x       y       z     vdW  Elec       q    Type
REMARK                         _______ _______ _______ _____ _____    ______ ____
ROOT
ATOM      1  F   UNL     1      31.576 -13.136 -21.449  0.00  0.00    -0.199 F 
ATOM      2  O   UNL     1      34.431 -10.628 -25.220  0.00  0.00    -0.193 OA
ATOM      3  N   UNL     1      32.942 -10.454 -23.463  0.00  0.00    -0.178 N 
ATOM      4  N   UNL     1      33.824 -12.576 -24.222  0.00  0.00    -0.304 NA
ATOM      5  N   UNL     1      33.194 -14.568 -23.191  0.00  0.00    -0.330 N 
ATOM      6  C   UNL     1      32.211 -11.122 -22.493  0.00  0.00    +0.113 C 
ATOM      7  C   UNL     1      33.769 -11.195 -24.348  0.00  0.00    +0.276 C 
ATOM      8  C   UNL     1      32.265 -12.444 -22.372  0.00  0.00    +0.200 C 
ATOM      9  C   UNL     1      33.130 -13.199 -23.305  0.00  0.00    +0.220 C 
ATOM     10  H   UNL     1      33.765 -15.086 -23.803  0.00  0.00    +0.145 HD
ATOM     11  H   UNL     1      32.669 -15.029 -22.497  0.00  0.00    +0.145 HD
ENDROOT
BRANCH   3  15
ATOM     12  O4* UNL     1      33.629  -8.429 -22.512  0.00  0.00    -0.334 OA
ATOM     13  C3* UNL     1      31.641  -7.165 -22.780  0.00  0.00    +0.144 C 
ATOM     14  C2* UNL     1      31.443  -8.503 -23.453  0.00  0.00    +0.084 C 
ATOM     15  C1* UNL     1      32.865  -9.027 -23.570  0.00  0.00    +0.209 C 
ATOM     16  C4* UNL     1      32.839  -7.410 -21.872  0.00  0.00    +0.173 C 
BRANCH  13  17
ATOM     17  O3* UNL     1      31.968  -6.180 -23.758  0.00  0.00    -0.382 OA
ATOM     18  H3* UNL     1      32.651  -6.529 -24.352  0.00  0.00    +0.210 HD
ENDBRANCH  13  17
BRANCH  16  19
ATOM     19  C5* UNL     1      32.441  -7.921 -20.494  0.00  0.00    +0.169 C 
BRANCH  19  20
ATOM     20  O5* UNL     1      33.239  -7.271 -19.517  0.00  0.00    -0.379 OA
ATOM     21  H5* UNL     1      33.938  -7.872 -19.217  0.00  0.00    +0.211 HD
ENDBRANCH  19  20
ENDBRANCH  16  19
ENDBRANCH   3  15
TORSDOF 4
ENDMDL
MODEL 9
REMARK VINA RESULT:      -7.1      6.778      9.289
REMARK  Name = 515328
REMARK  4 active torsions:
REMARK  status: ('A' for Active; 'I' for Inactive)
REMARK    1  A    between atoms: N_3  and  C1*_15
REMARK    2  A    between atoms: C3*_13  and  O3*_17
REMARK    3  A    between atoms: C4*_16  and  C5*_19
REMARK    4  A    between atoms: C5*_19  and  O5*_20
REMARK                            x       y       z     vdW  Elec       q    Type
REMARK                         _______ _______ _______ _____ _____    ______ ____
ROOT
ATOM      1  F   UNL     1      36.154 -22.356 -18.488  0.00  0.00    -0.199 F 
ATOM      2  O   UNL     1      32.702 -19.375 -21.290  0.00  0.00    -0.193 OA
ATOM      3  N   UNL     1      34.891 -19.744 -20.654  0.00  0.00    -0.178 N 
ATOM      4  N   UNL     1      33.062 -21.139 -19.905  0.00  0.00    -0.304 NA
ATOM      5  N   UNL     1      33.443 -22.946 -18.485  0.00  0.00    -0.330 N 
ATOM      6  C   UNL     1      35.768 -20.528 -19.923  0.00  0.00    +0.113 C 
ATOM      7  C   UNL     1      33.505 -20.055 -20.648  0.00  0.00    +0.276 C 
ATOM      8  C   UNL     1      35.343 -21.567 -19.213  0.00  0.00    +0.200 C 
ATOM      9  C   UNL     1      33.896 -21.874 -19.217  0.00  0.00    +0.220 C 
ATOM     10  H   UNL     1      32.483 -23.165 -18.477  0.00  0.00    +0.145 HD
ATOM     11  H   UNL     1      34.078 -23.495 -17.971  0.00  0.00    +0.145 HD
ENDROOT
BRANCH   3  15
ATOM     12  O4* UNL     1      35.268 -17.434 -20.624  0.00  0.00    -0.334 OA
ATOM     13  C3* UNL     1      34.654 -16.898 -22.851  0.00  0.00    +0.144 C 
ATOM     14  C2* UNL     1      34.594 -18.400 -22.694  0.00  0.00    +0.084 C 
ATOM     15  C1* UNL     1      35.378 -18.629 -21.412  0.00  0.00    +0.209 C 
ATOM     16  C4* UNL     1      34.648 -16.401 -21.412  0.00  0.00    +0.173 C 
BRANCH  13  17
ATOM     17  O3* UNL     1      35.878 -16.531 -23.485  0.00  0.00    -0.382 OA
ATOM     18  H3* UNL     1      36.123 -15.631 -23.219  0.00  0.00    +0.210 HD
ENDBRANCH  13  17
BRANCH  16  19
ATOM     19  C5* UNL     1      33.242 -16.177 -20.870  0.00  0.00    +0.169 C 
BRANCH  19  20
ATOM     20  O5* UNL     1      32.599 -15.187 -21.657  0.00  0.00    -0.379 OA
ATOM     21  H5* UNL     1      33.229 -14.825 -22.300  0.00  0.00    +0.211 HD
ENDBRANCH  19  20
ENDBRANCH  16  19
ENDBRANCH   3  15
TORSDOF 4
ENDMDL
