MODEL 1
REMARK VINA RESULT:      -8.5      0.000      0.000
REMARK  Name = 68933
REMARK  3 active torsions:
REMARK  status: ('A' for Active; 'I' for Inactive)
REMARK    1  A    between atoms: S_1  and  N_4
REMARK    2  A    between atoms: S_1  and  C_13
REMARK    3  A    between atoms: C_16  and  N_19
REMARK                            x       y       z     vdW  Elec       q    Type
REMARK                         _______ _______ _______ _____ _____    ______ ____
ROOT
ATOM      1  S   UNL     1      35.310 -18.437 -22.881  0.00  0.00    +0.081 S 
ATOM      2  O   UNL     1      36.743 -18.233 -22.711  0.00  0.00    -0.149 OA
ATOM      3  O   UNL     1      34.848 -19.632 -23.579  0.00  0.00    -0.149 OA
ENDROOT
BRANCH   1   4
ATOM      4  N   UNL     1      34.569 -18.355 -21.327  0.00  0.00    -0.158 N 
ATOM      5  N   UNL     1      33.093 -19.966 -20.435  0.00  0.00    -0.180 NA
ATOM      6  N   UNL     1      35.478 -20.211 -20.190  0.00  0.00    -0.202 NA
ATOM      7  C   UNL     1      34.368 -19.584 -20.608  0.00  0.00    +0.106 C 
ATOM      8  C   UNL     1      33.996 -21.870 -19.271  0.00  0.00    +0.001 C 
ATOM      9  C   UNL     1      32.943 -21.122 -19.757  0.00  0.00    +0.104 C 
ATOM     10  C   UNL     1      35.254 -21.360 -19.520  0.00  0.00    +0.161 C 
ATOM     11  C   UNL     1      33.789 -23.137 -18.530  0.00  0.00    +0.030 C 
ATOM     12  H   UNL     1      34.292 -17.492 -20.943  0.00  0.00    +0.186 HD
ENDBRANCH   1   4
BRANCH   1  13
ATOM     13  C   UNL     1      34.664 -17.032 -23.691  0.00  0.00    +0.126 C 
ATOM     14  C   UNL     1      34.309 -17.105 -25.037  0.00  0.00    +0.021 C 
ATOM     15  C   UNL     1      34.502 -15.836 -22.991  0.00  0.00    +0.021 C 
ATOM     16  C   UNL     1      33.630 -14.787 -24.985  0.00  0.00    +0.042 C 
ATOM     17  C   UNL     1      33.792 -15.982 -25.686  0.00  0.00    +0.015 C 
ATOM     18  C   UNL     1      33.986 -14.714 -23.638  0.00  0.00    +0.015 C 
BRANCH  16  19
ATOM     19  N   UNL     1      33.108 -13.652 -25.639  0.00  0.00    -0.357 N 
ATOM     20  H   UNL     1      33.655 -12.838 -25.726  0.00  0.00    +0.142 HD
ATOM     21  H   UNL     1      32.196 -13.674 -26.009  0.00  0.00    +0.142 HD
ENDBRANCH  16  19
ENDBRANCH   1  13
TORSDOF 3
ENDMDL
MODEL 2
REMARK VINA RESULT:      -8.4      2.129      6.966
REMARK  Name = 68933
REMARK  3 active torsions:
REMARK  status: ('A' for Active; 'I' for Inactive)
REMARK    1  A    between atoms: S_1  and  N_4
REMARK    2  A    between atoms: S_1  and  C_13
REMARK    3  A    between atoms: C_16  and  N_19
REMARK                            x       y       z     vdW  Elec       q    Type
REMARK                         _______ _______ _______ _____ _____    ______ ____
ROOT
ATOM      1  S   UNL     1      35.053 -17.449 -21.522  0.00  0.00    +0.081 S 
ATOM      2  O   UNL     1      36.070 -17.651 -22.547  0.00  0.00    -0.149 OA
ATOM      3  O   UNL     1      35.344 -16.554 -20.409  0.00  0.00    -0.149 OA
ENDROOT
BRANCH   1   4
ATOM      4  N   UNL     1      33.600 -16.947 -22.302  0.00  0.00    -0.158 N 
ATOM      5  N   UNL     1      32.425 -14.954 -21.838  0.00  0.00    -0.180 NA
ATOM      6  N   UNL     1      34.238 -14.974 -23.426  0.00  0.00    -0.202 NA
ATOM      7  C   UNL     1      33.409 -15.541 -22.536  0.00  0.00    +0.106 C 
ATOM      8  C   UNL     1      33.057 -12.927 -22.972  0.00  0.00    +0.001 C 
ATOM      9  C   UNL     1      32.276 -13.636 -22.082  0.00  0.00    +0.104 C 
ATOM     10  C   UNL     1      34.032 -13.655 -23.622  0.00  0.00    +0.161 C 
ATOM     11  C   UNL     1      32.861 -11.477 -23.213  0.00  0.00    +0.030 C 
ATOM     12  H   UNL     1      32.921 -17.603 -22.578  0.00  0.00    +0.186 HD
ENDBRANCH   1   4
BRANCH   1  13
ATOM     13  C   UNL     1      34.625 -19.016 -20.882  0.00  0.00    +0.126 C 
ATOM     14  C   UNL     1      35.625 -19.912 -20.506  0.00  0.00    +0.021 C 
ATOM     15  C   UNL     1      33.283 -19.371 -20.744  0.00  0.00    +0.021 C 
ATOM     16  C   UNL     1      33.942 -21.519 -19.855  0.00  0.00    +0.042 C 
ATOM     17  C   UNL     1      35.284 -21.165 -19.993  0.00  0.00    +0.015 C 
ATOM     18  C   UNL     1      32.942 -20.622 -20.232  0.00  0.00    +0.015 C 
BRANCH  16  19
ATOM     19  N   UNL     1      33.597 -22.784 -19.337  0.00  0.00    -0.357 N 
ATOM     20  H   UNL     1      32.719 -23.179 -19.545  0.00  0.00    +0.142 HD
ATOM     21  H   UNL     1      34.234 -23.273 -18.768  0.00  0.00    +0.142 HD
ENDBRANCH  16  19
ENDBRANCH   1  13
TORSDOF 3
ENDMDL
MODEL 3
REMARK VINA RESULT:      -8.4      2.675      6.686
REMARK  Name = 68933
REMARK  3 active torsions:
REMARK  status: ('A' for Active; 'I' for Inactive)
REMARK    1  A    between atoms: S_1  and  N_4
REMARK    2  A    between atoms: S_1  and  C_13
REMARK    3  A    between atoms: C_16  and  N_19
REMARK                            x       y       z     vdW  Elec       q    Type
REMARK                         _______ _______ _______ _____ _____    ______ ____
ROOT
ATOM      1  S   UNL     1      35.480 -18.439 -21.716  0.00  0.00    +0.081 S 
ATOM      2  O   UNL     1      34.544 -18.201 -22.808  0.00  0.00    -0.149 OA
ATOM      3  O   UNL     1      36.887 -18.659 -22.031  0.00  0.00    -0.149 OA
ENDROOT
BRANCH   1   4
ATOM      4  N   UNL     1      35.338 -17.136 -20.596  0.00  0.00    -0.158 N 
ATOM      5  N   UNL     1      35.060 -14.866 -21.177  0.00  0.00    -0.180 NA
ATOM      6  N   UNL     1      33.155 -16.327 -20.974  0.00  0.00    -0.202 NA
ATOM      7  C   UNL     1      34.466 -16.044 -20.936  0.00  0.00    +0.106 C 
ATOM      8  C   UNL     1      32.843 -14.016 -21.568  0.00  0.00    +0.001 C 
ATOM      9  C   UNL     1      34.212 -13.866 -21.492  0.00  0.00    +0.104 C 
ATOM     10  C   UNL     1      32.365 -15.282 -21.296  0.00  0.00    +0.161 C 
ATOM     11  C   UNL     1      31.943 -12.891 -21.919  0.00  0.00    +0.030 C 
ATOM     12  H   UNL     1      35.839 -17.140 -19.749  0.00  0.00    +0.186 HD
ENDBRANCH   1   4
BRANCH   1  13
ATOM     13  C   UNL     1      34.893 -19.803 -20.798  0.00  0.00    +0.126 C 
ATOM     14  C   UNL     1      35.794 -20.720 -20.258  0.00  0.00    +0.021 C 
ATOM     15  C   UNL     1      33.522 -19.974 -20.603  0.00  0.00    +0.021 C 
ATOM     16  C   UNL     1      33.955 -21.981 -19.329  0.00  0.00    +0.042 C 
ATOM     17  C   UNL     1      35.325 -21.810 -19.524  0.00  0.00    +0.015 C 
ATOM     18  C   UNL     1      33.053 -21.064 -19.870  0.00  0.00    +0.015 C 
BRANCH  16  19
ATOM     19  N   UNL     1      33.480 -23.083 -18.587  0.00  0.00    -0.357 N 
ATOM     20  H   UNL     1      32.799 -23.679 -18.972  0.00  0.00    +0.142 HD
ATOM     21  H   UNL     1      33.831 -23.254 -17.683  0.00  0.00    +0.142 HD
ENDBRANCH  16  19
ENDBRANCH   1  13
TORSDOF 3
ENDMDL
MODEL 4
REMARK VINA RESULT:      -8.2      4.454      6.317
REMARK  Name = 68933
REMARK  3 active torsions:
REMARK  status: ('A' for Active; 'I' for Inactive)
REMARK    1  A    between atoms: S_1  and  N_4
REMARK    2  A    between atoms: S_1  and  C_13
REMARK    3  A    between atoms: C_16  and  N_19
REMARK                            x       y       z     vdW  Elec       q    Type
REMARK                         _______ _______ _______ _____ _____    ______ ____
ROOT
ATOM      1  S   UNL     1      33.867 -22.930 -18.423  0.00  0.00    +0.081 S 
ATOM      2  O   UNL     1      34.810 -22.984 -17.313  0.00  0.00    -0.149 OA
ATOM      3  O   UNL     1      33.694 -24.114 -19.256  0.00  0.00    -0.149 OA
ENDROOT
BRANCH   1   4
ATOM      4  N   UNL     1      32.338 -22.433 -17.803  0.00  0.00    -0.158 N 
ATOM      5  N   UNL     1      30.795 -23.837 -16.701  0.00  0.00    -0.180 NA
ATOM      6  N   UNL     1      32.563 -22.749 -15.477  0.00  0.00    -0.202 NA
ATOM      7  C   UNL     1      31.870 -23.043 -16.588  0.00  0.00    +0.106 C 
ATOM      8  C   UNL     1      31.003 -24.176 -14.327  0.00  0.00    +0.001 C 
ATOM      9  C   UNL     1      30.385 -24.392 -15.541  0.00  0.00    +0.104 C 
ATOM     10  C   UNL     1      32.098 -23.337 -14.355  0.00  0.00    +0.161 C 
ATOM     11  C   UNL     1      30.522 -24.805 -13.073  0.00  0.00    +0.030 C 
ATOM     12  H   UNL     1      31.800 -21.752 -18.268  0.00  0.00    +0.186 HD
ENDBRANCH   1   4
BRANCH   1  13
ATOM     13  C   UNL     1      34.324 -21.590 -19.445  0.00  0.00    +0.126 C 
ATOM     14  C   UNL     1      33.341 -20.807 -20.048  0.00  0.00    +0.021 C 
ATOM     15  C   UNL     1      35.673 -21.302 -19.656  0.00  0.00    +0.021 C 
ATOM     16  C   UNL     1      35.054 -19.447 -21.075  0.00  0.00    +0.042 C 
ATOM     17  C   UNL     1      33.705 -19.735 -20.865  0.00  0.00    +0.015 C 
ATOM     18  C   UNL     1      36.037 -20.231 -20.471  0.00  0.00    +0.015 C 
BRANCH  16  19
ATOM     19  N   UNL     1      35.422 -18.364 -21.899  0.00  0.00    -0.357 N 
ATOM     20  H   UNL     1      36.183 -18.452 -22.518  0.00  0.00    +0.142 HD
ATOM     21  H   UNL     1      34.919 -17.519 -21.856  0.00  0.00    +0.142 HD
ENDBRANCH  16  19
ENDBRANCH   1  13
TORSDOF 3
ENDMDL
MODEL 5
REMARK VINA RESULT:      -8.2      4.463      7.940
REMARK  Name = 68933
REMARK  3 active torsions:
REMARK  status: ('A' for Active; 'I' for Inactive)
REMARK    1  A    between atoms: S_1  and  N_4
REMARK    2  A    between atoms: S_1  and  C_13
REMARK    3  A    between atoms: C_16  and  N_19
REMARK                            x       y       z     vdW  Elec       q    Type
REMARK                         _______ _______ _______ _____ _____    ______ ____
ROOT
ATOM      1  S   UNL     1      33.217 -13.589 -23.649  0.00  0.00    +0.081 S 
ATOM      2  O   UNL     1      32.775 -14.083 -24.947  0.00  0.00    -0.149 OA
ATOM      3  O   UNL     1      34.126 -12.450 -23.603  0.00  0.00    -0.149 OA
ENDROOT
BRANCH   1   4
ATOM      4  N   UNL     1      31.818 -13.248 -22.701  0.00  0.00    -0.158 N 
ATOM      5  N   UNL     1      31.830 -12.231 -20.572  0.00  0.00    -0.180 NA
ATOM      6  N   UNL     1      31.804 -10.892 -22.576  0.00  0.00    -0.202 NA
ATOM      7  C   UNL     1      31.817 -12.052 -21.902  0.00  0.00    +0.106 C 
ATOM      8  C   UNL     1      31.817  -9.829 -20.417  0.00  0.00    +0.001 C 
ATOM      9  C   UNL     1      31.830 -11.089 -19.854  0.00  0.00    +0.104 C 
ATOM     10  C   UNL     1      31.804  -9.791 -21.796  0.00  0.00    +0.161 C 
ATOM     11  C   UNL     1      31.818  -8.596 -19.593  0.00  0.00    +0.030 C 
ATOM     12  H   UNL     1      31.042 -13.854 -22.707  0.00  0.00    +0.186 HD
ENDBRANCH   1   4
BRANCH   1  13
ATOM     13  C   UNL     1      33.947 -14.923 -22.792  0.00  0.00    +0.126 C 
ATOM     14  C   UNL     1      33.997 -14.914 -21.399  0.00  0.00    +0.021 C 
ATOM     15  C   UNL     1      34.480 -16.000 -23.502  0.00  0.00    +0.021 C 
ATOM     16  C   UNL     1      35.112 -17.057 -21.423  0.00  0.00    +0.042 C 
ATOM     17  C   UNL     1      34.580 -15.981 -20.713  0.00  0.00    +0.015 C 
ATOM     18  C   UNL     1      35.063 -17.066 -22.817  0.00  0.00    +0.015 C 
BRANCH  16  19
ATOM     19  N   UNL     1      35.702 -18.135 -20.731  0.00  0.00    -0.357 N 
ATOM     20  H   UNL     1      36.621 -18.414 -20.946  0.00  0.00    +0.142 HD
ATOM     21  H   UNL     1      35.193 -18.609 -20.034  0.00  0.00    +0.142 HD
ENDBRANCH  16  19
ENDBRANCH   1  13
TORSDOF 3
ENDMDL
MODEL 6
REMARK VINA RESULT:      -8.1      1.891      2.696
REMARK  Name = 68933
REMARK  3 active torsions:
REMARK  status: ('A' for Active; 'I' for Inactive)
REMARK    1  A    between atoms: S_1  and  N_4
REMARK    2  A    between atoms: S_1  and  C_13
REMARK    3  A    between atoms: C_16  and  N_19
REMARK                            x       y       z     vdW  Elec       q    Type
REMARK                         _______ _______ _______ _____ _____    ______ ____
ROOT
ATOM      1  S   UNL     1      33.916 -16.236 -21.303  0.00  0.00    +0.081 S 
ATOM      2  O   UNL     1      32.578 -16.458 -20.768  0.00  0.00    -0.149 OA
ATOM      3  O   UNL     1      34.945 -15.697 -20.421  0.00  0.00    -0.149 OA
ENDROOT
BRANCH   1   4
ATOM      4  N   UNL     1      34.468 -17.713 -21.998  0.00  0.00    -0.158 N 
ATOM      5  N   UNL     1      35.525 -19.461 -20.818  0.00  0.00    -0.180 NA
ATOM      6  N   UNL     1      33.122 -19.344 -20.952  0.00  0.00    -0.202 NA
ATOM      7  C   UNL     1      34.366 -18.911 -21.209  0.00  0.00    +0.106 C 
ATOM      8  C   UNL     1      34.175 -21.138 -19.741  0.00  0.00    +0.001 C 
ATOM      9  C   UNL     1      35.392 -20.582 -20.079  0.00  0.00    +0.104 C 
ATOM     10  C   UNL     1      33.063 -20.469 -20.210  0.00  0.00    +0.161 C 
ATOM     11  C   UNL     1      34.070 -22.373 -18.927  0.00  0.00    +0.030 C 
ATOM     12  H   UNL     1      34.841 -17.736 -22.908  0.00  0.00    +0.186 HD
ENDBRANCH   1   4
BRANCH   1  13
ATOM     13  C   UNL     1      33.766 -15.188 -22.692  0.00  0.00    +0.126 C 
ATOM     14  C   UNL     1      33.661 -13.809 -22.517  0.00  0.00    +0.021 C 
ATOM     15  C   UNL     1      33.754 -15.731 -23.977  0.00  0.00    +0.021 C 
ATOM     16  C   UNL     1      33.530 -13.514 -24.911  0.00  0.00    +0.042 C 
ATOM     17  C   UNL     1      33.542 -12.971 -23.627  0.00  0.00    +0.015 C 
ATOM     18  C   UNL     1      33.634 -14.894 -25.086  0.00  0.00    +0.015 C 
BRANCH  16  19
ATOM     19  N   UNL     1      33.409 -12.668 -26.033  0.00  0.00    -0.357 N 
ATOM     20  H   UNL     1      33.980 -11.870 -26.112  0.00  0.00    +0.142 HD
ATOM     21  H   UNL     1      32.753 -12.876 -26.738  0.00  0.00    +0.142 HD
ENDBRANCH  16  19
ENDBRANCH   1  13
TORSDOF 3
ENDMDL
MODEL 7
REMARK VINA RESULT:      -8.1      4.369      5.771
REMARK  Name = 68933
REMARK  3 active torsions:
REMARK  status: ('A' for Active; 'I' for Inactive)
REMARK    1  A    between atoms: S_1  and  N_4
REMARK    2  A    between atoms: S_1  and  C_13
REMARK    3  A    between atoms: C_16  and  N_19
REMARK                            x       y       z     vdW  Elec       q    Type
REMARK                         _______ _______ _______ _____ _____    ______ ____
ROOT
ATOM      1  S   UNL     1      33.191 -13.133 -23.788  0.00  0.00    +0.081 S 
ATOM      2  O   UNL     1      33.139 -13.591 -25.171  0.00  0.00    -0.149 OA
ATOM      3  O   UNL     1      32.034 -13.357 -22.930  0.00  0.00    -0.149 OA
ENDROOT
BRANCH   1   4
ATOM      4  N   UNL     1      34.595 -13.809 -23.053  0.00  0.00    -0.158 N 
ATOM      5  N   UNL     1      34.607 -15.656 -21.584  0.00  0.00    -0.180 NA
ATOM      6  N   UNL     1      34.701 -15.979 -23.970  0.00  0.00    -0.202 NA
ATOM      7  C   UNL     1      34.637 -15.233 -22.857  0.00  0.00    +0.106 C 
ATOM      8  C   UNL     1      34.714 -17.881 -22.495  0.00  0.00    +0.001 C 
ATOM      9  C   UNL     1      34.647 -16.996 -21.439  0.00  0.00    +0.104 C 
ATOM     10  C   UNL     1      34.739 -17.310 -23.751  0.00  0.00    +0.161 C 
ATOM     11  C   UNL     1      34.757 -19.349 -22.294  0.00  0.00    +0.030 C 
ATOM     12  H   UNL     1      35.346 -13.237 -22.775  0.00  0.00    +0.186 HD
ENDBRANCH   1   4
BRANCH   1  13
ATOM     13  C   UNL     1      33.549 -11.424 -23.807  0.00  0.00    +0.126 C 
ATOM     14  C   UNL     1      34.640 -10.949 -24.534  0.00  0.00    +0.021 C 
ATOM     15  C   UNL     1      32.743 -10.534 -23.097  0.00  0.00    +0.021 C 
ATOM     16  C   UNL     1      34.121  -8.694 -23.840  0.00  0.00    +0.042 C 
ATOM     17  C   UNL     1      34.927  -9.583 -24.550  0.00  0.00    +0.015 C 
ATOM     18  C   UNL     1      33.030  -9.169 -23.112  0.00  0.00    +0.015 C 
BRANCH  16  19
ATOM     19  N   UNL     1      34.410  -7.313 -23.856  0.00  0.00    -0.357 N 
ATOM     20  H   UNL     1      35.299  -7.000 -24.139  0.00  0.00    +0.142 HD
ATOM     21  H   UNL     1      33.722  -6.664 -23.583  0.00  0.00    +0.142 HD
ENDBRANCH  16  19
ENDBRANCH   1  13
TORSDOF 3
ENDMDL
MODEL 8
REMARK VINA RESULT:      -8.0      2.370      7.079
REMARK  Name = 68933
REMARK  3 active torsions:
REMARK  status: ('A' for Active; 'I' for Inactive)
REMARK    1  A    between atoms: S_1  and  N_4
REMARK    2  A    between atoms: S_1  and  C_13
REMARK    3  A    between atoms: C_16  and  N_19
REMARK                            x       y       z     vdW  Elec       q    Type
REMARK                         _______ _______ _______ _____ _____    ______ ____
ROOT
ATOM      1  S   UNL     1      34.270 -16.291 -21.424  0.00  0.00    +0.081 S 
ATOM      2  O   UNL     1      34.929 -15.459 -20.423  0.00  0.00    -0.149 OA
ATOM      3  O   UNL     1      32.833 -16.146 -21.622  0.00  0.00    -0.149 OA
ENDROOT
BRANCH   1   4
ATOM      4  N   UNL     1      35.086 -16.067 -22.926  0.00  0.00    -0.158 N 
ATOM      5  N   UNL     1      34.059 -16.103 -25.050  0.00  0.00    -0.180 NA
ATOM      6  N   UNL     1      34.153 -14.069 -23.761  0.00  0.00    -0.202 NA
ATOM      7  C   UNL     1      34.391 -15.372 -23.975  0.00  0.00    +0.106 C 
ATOM      8  C   UNL     1      33.100 -14.077 -25.926  0.00  0.00    +0.001 C 
ATOM      9  C   UNL     1      33.409 -15.418 -26.014  0.00  0.00    +0.104 C 
ATOM     10  C   UNL     1      33.500 -13.447 -24.765  0.00  0.00    +0.161 C 
ATOM     11  C   UNL     1      32.383 -13.359 -27.007  0.00  0.00    +0.030 C 
ATOM     12  H   UNL     1      36.000 -16.406 -23.061  0.00  0.00    +0.186 HD
ENDBRANCH   1   4
BRANCH   1  13
ATOM     13  C   UNL     1      34.616 -17.958 -21.040  0.00  0.00    +0.126 C 
ATOM     14  C   UNL     1      35.938 -18.391 -20.941  0.00  0.00    +0.021 C 
ATOM     15  C   UNL     1      33.570 -18.858 -20.832  0.00  0.00    +0.021 C 
ATOM     16  C   UNL     1      35.169 -20.623 -20.425  0.00  0.00    +0.042 C 
ATOM     17  C   UNL     1      36.215 -19.724 -20.634  0.00  0.00    +0.015 C 
ATOM     18  C   UNL     1      33.847 -20.190 -20.525  0.00  0.00    +0.015 C 
BRANCH  16  19
ATOM     19  N   UNL     1      35.449 -21.970 -20.115  0.00  0.00    -0.357 N 
ATOM     20  H   UNL     1      34.712 -22.612 -19.998  0.00  0.00    +0.142 HD
ATOM     21  H   UNL     1      36.382 -22.268 -20.016  0.00  0.00    +0.142 HD
ENDBRANCH  16  19
ENDBRANCH   1  13
TORSDOF 3
ENDMDL
MODEL 9
REMARK VINA RESULT:      -8.0      9.662     11.068
REMARK  Name = 68933
REMARK  3 active torsions:
REMARK  status: ('A' for Active; 'I' for Inactive)
REMARK    1  A    between atoms: S_1  and  N_4
REMARK    2  A    between atoms: S_1  and  C_13
REMARK    3  A    between atoms: C_16  and  N_19
REMARK                            x       y       z     vdW  Elec       q    Type
REMARK                         _______ _______ _______ _____ _____    ______ ____
ROOT
ATOM      1  S   UNL     1      34.249 -23.928 -13.842  0.00  0.00    +0.081 S 
ATOM      2  O   UNL     1      34.155 -23.903 -12.387  0.00  0.00    -0.149 OA
ATOM      3  O   UNL     1      34.913 -22.822 -14.522  0.00  0.00    -0.149 OA
ENDROOT
BRANCH   1   4
ATOM      4  N   UNL     1      34.986 -25.416 -14.305  0.00  0.00    -0.158 N 
ATOM      5  N   UNL     1      37.081 -25.624 -15.371  0.00  0.00    -0.180 NA
ATOM      6  N   UNL     1      36.927 -25.503 -12.969  0.00  0.00    -0.202 NA
ATOM      7  C   UNL     1      36.417 -25.521 -14.209  0.00  0.00    +0.106 C 
ATOM      8  C   UNL     1      39.077 -25.715 -14.030  0.00  0.00    +0.001 C 
ATOM      9  C   UNL     1      38.420 -25.720 -15.243  0.00  0.00    +0.104 C 
ATOM     10  C   UNL     1      38.272 -25.603 -12.915  0.00  0.00    +0.161 C 
ATOM     11  C   UNL     1      40.553 -25.822 -13.930  0.00  0.00    +0.030 C 
ATOM     12  H   UNL     1      34.443 -26.171 -14.626  0.00  0.00    +0.186 HD
ENDBRANCH   1   4
BRANCH   1  13
ATOM     13  C   UNL     1      32.631 -24.084 -14.477  0.00  0.00    +0.126 C 
ATOM     14  C   UNL     1      31.759 -25.030 -13.940  0.00  0.00    +0.021 C 
ATOM     15  C   UNL     1      32.209 -23.261 -15.522  0.00  0.00    +0.021 C 
ATOM     16  C   UNL     1      30.043 -24.331 -15.491  0.00  0.00    +0.042 C 
ATOM     17  C   UNL     1      30.464 -25.155 -14.447  0.00  0.00    +0.015 C 
ATOM     18  C   UNL     1      30.916 -23.385 -16.029  0.00  0.00    +0.015 C 
BRANCH  16  19
ATOM     19  N   UNL     1      28.736 -24.457 -16.004  0.00  0.00    -0.357 N 
ATOM     20  H   UNL     1      27.960 -24.359 -15.406  0.00  0.00    +0.142 HD
ATOM     21  H   UNL     1      28.598 -24.644 -16.961  0.00  0.00    +0.142 HD
ENDBRANCH  16  19
ENDBRANCH   1  13
TORSDOF 3
ENDMDL
