MODEL 1
REMARK VINA RESULT:      -6.8      0.000      0.000
REMARK  Name = 72065
REMARK  5 active torsions:
REMARK  status: ('A' for Active; 'I' for Inactive)
REMARK    1  A    between atoms: C_1  and  O_7
REMARK    2  A    between atoms: C_1  and  C_9
REMARK    3  A    between atoms: C_9  and  C_11
REMARK    4  A    between atoms: C_9  and  C_14
REMARK    5  A    between atoms: C_11  and  O_12
REMARK                            x       y       z     vdW  Elec       q    Type
REMARK                         _______ _______ _______ _____ _____    ______ ____
ROOT
ATOM      1  C   UNL     1      35.075 -18.462 -22.760  0.00  0.00    +0.098 C 
ATOM      2  C   UNL     1      34.597 -17.111 -22.207  0.00  0.00    +0.027 C 
ATOM      3  C   UNL     1      34.477 -18.725 -24.152  0.00  0.00    +0.027 C 
ATOM      4  C   UNL     1      34.851 -15.961 -23.182  0.00  0.00    +0.002 C 
ATOM      5  C   UNL     1      34.734 -17.571 -25.121  0.00  0.00    +0.002 C 
ATOM      6  C   UNL     1      34.246 -16.242 -24.553  0.00  0.00    +0.000 C 
ENDROOT
BRANCH   1   7
ATOM      7  O   UNL     1      36.500 -18.415 -22.867  0.00  0.00    -0.386 OA
ATOM      8  H   UNL     1      36.832 -17.620 -22.422  0.00  0.00    +0.210 HD
ENDBRANCH   1   7
BRANCH   1   9
ATOM      9  C   UNL     1      34.716 -19.593 -21.794  0.00  0.00    +0.123 C 
BRANCH   9  11
ATOM     10  O   UNL     1      36.427 -18.877 -20.213  0.00  0.00    -0.250 OA
ATOM     11  C   UNL     1      35.871 -19.780 -20.825  0.00  0.00    +0.316 C 
BRANCH  11  12
ATOM     12  O   UNL     1      36.218 -21.086 -20.688  0.00  0.00    -0.480 OA
ATOM     13  H   UNL     1      35.830 -21.606 -20.012  0.00  0.00    +0.295 HD
ENDBRANCH  11  12
ENDBRANCH   9  11
BRANCH   9  14
ATOM     14  C   UNL     1      33.402 -19.276 -21.064  0.00  0.00    +0.013 C 
ATOM     15  C   UNL     1      32.946 -20.414 -20.161  0.00  0.00    +0.001 C 
ENDBRANCH   9  14
ENDBRANCH   1   9
TORSDOF 5
ENDMDL
MODEL 2
REMARK VINA RESULT:      -6.7      1.984      4.405
REMARK  Name = 72065
REMARK  5 active torsions:
REMARK  status: ('A' for Active; 'I' for Inactive)
REMARK    1  A    between atoms: C_1  and  O_7
REMARK    2  A    between atoms: C_1  and  C_9
REMARK    3  A    between atoms: C_9  and  C_11
REMARK    4  A    between atoms: C_9  and  C_14
REMARK    5  A    between atoms: C_11  and  O_12
REMARK                            x       y       z     vdW  Elec       q    Type
REMARK                         _______ _______ _______ _____ _____    ______ ____
ROOT
ATOM      1  C   UNL     1      34.457 -18.139 -21.624  0.00  0.00    +0.098 C 
ATOM      2  C   UNL     1      33.218 -18.677 -20.891  0.00  0.00    +0.027 C 
ATOM      3  C   UNL     1      35.748 -18.633 -20.951  0.00  0.00    +0.027 C 
ATOM      4  C   UNL     1      33.251 -20.197 -20.734  0.00  0.00    +0.002 C 
ATOM      5  C   UNL     1      35.774 -20.154 -20.795  0.00  0.00    +0.002 C 
ATOM      6  C   UNL     1      34.539 -20.665 -20.061  0.00  0.00    +0.000 C 
ENDROOT
BRANCH   1   7
ATOM      7  O   UNL     1      34.418 -18.621 -22.970  0.00  0.00    -0.386 OA
ATOM      8  H   UNL     1      33.930 -19.459 -22.999  0.00  0.00    +0.210 HD
ENDBRANCH   1   7
BRANCH   1   9
ATOM      9  C   UNL     1      34.425 -16.610 -21.676  0.00  0.00    +0.123 C 
BRANCH   9  11
ATOM     10  O   UNL     1      33.642 -15.792 -23.834  0.00  0.00    -0.250 OA
ATOM     11  C   UNL     1      34.564 -16.177 -23.126  0.00  0.00    +0.316 C 
BRANCH  11  12
ATOM     12  O   UNL     1      35.849 -16.241 -23.559  0.00  0.00    -0.480 OA
ATOM     13  H   UNL     1      36.138 -15.685 -24.255  0.00  0.00    +0.295 HD
ENDBRANCH  11  12
ENDBRANCH   9  11
BRANCH   9  14
ATOM     14  C   UNL     1      33.130 -16.080 -21.041  0.00  0.00    +0.013 C 
ATOM     15  C   UNL     1      33.245 -14.624 -20.610  0.00  0.00    +0.001 C 
ENDBRANCH   9  14
ENDBRANCH   1   9
TORSDOF 5
ENDMDL
MODEL 3
REMARK VINA RESULT:      -6.4      1.780      4.369
REMARK  Name = 72065
REMARK  5 active torsions:
REMARK  status: ('A' for Active; 'I' for Inactive)
REMARK    1  A    between atoms: C_1  and  O_7
REMARK    2  A    between atoms: C_1  and  C_9
REMARK    3  A    between atoms: C_9  and  C_11
REMARK    4  A    between atoms: C_9  and  C_14
REMARK    5  A    between atoms: C_11  and  O_12
REMARK                            x       y       z     vdW  Elec       q    Type
REMARK                         _______ _______ _______ _____ _____    ______ ____
ROOT
ATOM      1  C   UNL     1      34.856 -18.450 -21.665  0.00  0.00    +0.098 C 
ATOM      2  C   UNL     1      36.326 -18.874 -21.797  0.00  0.00    +0.027 C 
ATOM      3  C   UNL     1      33.970 -19.652 -21.303  0.00  0.00    +0.027 C 
ATOM      4  C   UNL     1      36.829 -19.620 -20.560  0.00  0.00    +0.002 C 
ATOM      5  C   UNL     1      34.478 -20.395 -20.067  0.00  0.00    +0.002 C 
ATOM      6  C   UNL     1      35.937 -20.811 -20.222  0.00  0.00    +0.000 C 
ENDROOT
BRANCH   1   7
ATOM      7  O   UNL     1      34.770 -17.476 -20.622  0.00  0.00    -0.386 OA
ATOM      8  H   UNL     1      35.285 -16.691 -20.868  0.00  0.00    +0.210 HD
ENDBRANCH   1   7
BRANCH   1   9
ATOM      9  C   UNL     1      34.372 -17.791 -22.959  0.00  0.00    +0.123 C 
BRANCH   9  11
ATOM     10  O   UNL     1      33.636 -15.589 -22.218  0.00  0.00    -0.250 OA
ATOM     11  C   UNL     1      34.465 -16.283 -22.793  0.00  0.00    +0.316 C 
BRANCH  11  12
ATOM     12  O   UNL     1      35.598 -15.776 -23.343  0.00  0.00    -0.480 OA
ATOM     13  H   UNL     1      35.652 -15.643 -24.268  0.00  0.00    +0.295 HD
ENDBRANCH  11  12
ENDBRANCH   9  11
BRANCH   9  14
ATOM     14  C   UNL     1      35.200 -18.288 -24.154  0.00  0.00    +0.013 C 
ATOM     15  C   UNL     1      34.423 -19.250 -25.043  0.00  0.00    +0.001 C 
ENDBRANCH   9  14
ENDBRANCH   1   9
TORSDOF 5
ENDMDL
MODEL 4
REMARK VINA RESULT:      -6.4      8.592     11.248
REMARK  Name = 72065
REMARK  5 active torsions:
REMARK  status: ('A' for Active; 'I' for Inactive)
REMARK    1  A    between atoms: C_1  and  O_7
REMARK    2  A    between atoms: C_1  and  C_9
REMARK    3  A    between atoms: C_9  and  C_11
REMARK    4  A    between atoms: C_9  and  C_14
REMARK    5  A    between atoms: C_11  and  O_12
REMARK                            x       y       z     vdW  Elec       q    Type
REMARK                         _______ _______ _______ _____ _____    ______ ____
ROOT
ATOM      1  C   UNL     1      35.519 -24.580 -13.187  0.00  0.00    +0.098 C 
ATOM      2  C   UNL     1      36.187 -23.229 -12.893  0.00  0.00    +0.027 C 
ATOM      3  C   UNL     1      36.570 -25.643 -13.547  0.00  0.00    +0.027 C 
ATOM      4  C   UNL     1      37.290 -23.342 -11.840  0.00  0.00    +0.002 C 
ATOM      5  C   UNL     1      37.671 -25.750 -12.491  0.00  0.00    +0.002 C 
ATOM      6  C   UNL     1      38.323 -24.399 -12.220  0.00  0.00    +0.000 C 
ENDROOT
BRANCH   1   7
ATOM      7  O   UNL     1      34.823 -24.994 -12.008  0.00  0.00    -0.386 OA
ATOM      8  H   UNL     1      35.458 -25.336 -11.360  0.00  0.00    +0.210 HD
ENDBRANCH   1   7
BRANCH   1   9
ATOM      9  C   UNL     1      34.490 -24.436 -14.310  0.00  0.00    +0.123 C 
BRANCH   9  11
ATOM     10  O   UNL     1      32.626 -23.422 -13.110  0.00  0.00    -0.250 OA
ATOM     11  C   UNL     1      33.104 -24.391 -13.687  0.00  0.00    +0.316 C 
BRANCH  11  12
ATOM     12  O   UNL     1      32.427 -25.555 -13.859  0.00  0.00    -0.480 OA
ATOM     13  H   UNL     1      32.163 -25.821 -14.717  0.00  0.00    +0.295 HD
ENDBRANCH  11  12
ENDBRANCH   9  11
BRANCH   9  14
ATOM     14  C   UNL     1      34.783 -23.180 -15.146  0.00  0.00    +0.013 C 
ATOM     15  C   UNL     1      34.110 -23.218 -16.511  0.00  0.00    +0.001 C 
ENDBRANCH   9  14
ENDBRANCH   1   9
TORSDOF 5
ENDMDL
MODEL 5
REMARK VINA RESULT:      -6.4      1.917      2.717
REMARK  Name = 72065
REMARK  5 active torsions:
REMARK  status: ('A' for Active; 'I' for Inactive)
REMARK    1  A    between atoms: C_1  and  O_7
REMARK    2  A    between atoms: C_1  and  C_9
REMARK    3  A    between atoms: C_9  and  C_11
REMARK    4  A    between atoms: C_9  and  C_14
REMARK    5  A    between atoms: C_11  and  O_12
REMARK                            x       y       z     vdW  Elec       q    Type
REMARK                         _______ _______ _______ _____ _____    ______ ____
ROOT
ATOM      1  C   UNL     1      34.138 -16.419 -21.603  0.00  0.00    +0.098 C 
ATOM      2  C   UNL     1      32.792 -16.036 -20.971  0.00  0.00    +0.027 C 
ATOM      3  C   UNL     1      34.313 -15.741 -22.972  0.00  0.00    +0.027 C 
ATOM      4  C   UNL     1      32.590 -14.521 -20.905  0.00  0.00    +0.002 C 
ATOM      5  C   UNL     1      34.109 -14.227 -22.899  0.00  0.00    +0.002 C 
ATOM      6  C   UNL     1      32.764 -13.871 -22.274  0.00  0.00    +0.000 C 
ENDROOT
BRANCH   1   7
ATOM      7  O   UNL     1      35.178 -15.975 -20.727  0.00  0.00    -0.386 OA
ATOM      8  H   UNL     1      35.439 -15.072 -20.966  0.00  0.00    +0.210 HD
ENDBRANCH   1   7
BRANCH   1   9
ATOM      9  C   UNL     1      34.255 -17.938 -21.732  0.00  0.00    +0.123 C 
BRANCH   9  11
ATOM     10  O   UNL     1      36.152 -18.744 -20.432  0.00  0.00    -0.250 OA
ATOM     11  C   UNL     1      35.704 -18.330 -21.493  0.00  0.00    +0.316 C 
BRANCH  11  12
ATOM     12  O   UNL     1      36.463 -18.191 -22.611  0.00  0.00    -0.480 OA
ATOM     13  H   UNL     1      36.554 -18.907 -23.208  0.00  0.00    +0.295 HD
ENDBRANCH  11  12
ENDBRANCH   9  11
BRANCH   9  14
ATOM     14  C   UNL     1      33.304 -18.634 -20.746  0.00  0.00    +0.013 C 
ATOM     15  C   UNL     1      33.212 -20.136 -20.984  0.00  0.00    +0.001 C 
ENDBRANCH   9  14
ENDBRANCH   1   9
TORSDOF 5
ENDMDL
MODEL 6
REMARK VINA RESULT:      -6.3      1.654      2.913
REMARK  Name = 72065
REMARK  5 active torsions:
REMARK  status: ('A' for Active; 'I' for Inactive)
REMARK    1  A    between atoms: C_1  and  O_7
REMARK    2  A    between atoms: C_1  and  C_9
REMARK    3  A    between atoms: C_9  and  C_11
REMARK    4  A    between atoms: C_9  and  C_14
REMARK    5  A    between atoms: C_11  and  O_12
REMARK                            x       y       z     vdW  Elec       q    Type
REMARK                         _______ _______ _______ _____ _____    ______ ____
ROOT
ATOM      1  C   UNL     1      34.746 -16.994 -21.576  0.00  0.00    +0.098 C 
ATOM      2  C   UNL     1      33.258 -17.233 -21.282  0.00  0.00    +0.027 C 
ATOM      3  C   UNL     1      34.933 -15.786 -22.509  0.00  0.00    +0.027 C 
ATOM      4  C   UNL     1      32.560 -15.977 -20.760  0.00  0.00    +0.002 C 
ATOM      5  C   UNL     1      34.231 -14.534 -21.982  0.00  0.00    +0.002 C 
ATOM      6  C   UNL     1      32.754 -14.793 -21.702  0.00  0.00    +0.000 C 
ENDROOT
BRANCH   1   7
ATOM      7  O   UNL     1      35.405 -16.730 -20.334  0.00  0.00    -0.386 OA
ATOM      8  H   UNL     1      35.770 -17.556 -19.980  0.00  0.00    +0.210 HD
ENDBRANCH   1   7
BRANCH   1   9
ATOM      9  C   UNL     1      35.380 -18.248 -22.182  0.00  0.00    +0.123 C 
BRANCH   9  11
ATOM     10  O   UNL     1      35.283 -19.755 -20.269  0.00  0.00    -0.250 OA
ATOM     11  C   UNL     1      35.949 -19.091 -21.053  0.00  0.00    +0.316 C 
BRANCH  11  12
ATOM     12  O   UNL     1      37.306 -19.049 -21.016  0.00  0.00    -0.480 OA
ATOM     13  H   UNL     1      37.763 -18.318 -21.381  0.00  0.00    +0.295 HD
ENDBRANCH  11  12
ENDBRANCH   9  11
BRANCH   9  14
ATOM     14  C   UNL     1      34.344 -19.024 -23.010  0.00  0.00    +0.013 C 
ATOM     15  C   UNL     1      34.597 -18.919 -24.508  0.00  0.00    +0.001 C 
ENDBRANCH   9  14
ENDBRANCH   1   9
TORSDOF 5
ENDMDL
MODEL 7
REMARK VINA RESULT:      -6.2      8.541     10.651
REMARK  Name = 72065
REMARK  5 active torsions:
REMARK  status: ('A' for Active; 'I' for Inactive)
REMARK    1  A    between atoms: C_1  and  O_7
REMARK    2  A    between atoms: C_1  and  C_9
REMARK    3  A    between atoms: C_9  and  C_11
REMARK    4  A    between atoms: C_9  and  C_14
REMARK    5  A    between atoms: C_11  and  O_12
REMARK                            x       y       z     vdW  Elec       q    Type
REMARK                         _______ _______ _______ _____ _____    ______ ____
ROOT
ATOM      1  C   UNL     1      36.690 -23.771 -13.995  0.00  0.00    +0.098 C 
ATOM      2  C   UNL     1      35.808 -24.991 -14.298  0.00  0.00    +0.027 C 
ATOM      3  C   UNL     1      36.816 -22.866 -15.232  0.00  0.00    +0.027 C 
ATOM      4  C   UNL     1      34.449 -24.597 -14.877  0.00  0.00    +0.002 C 
ATOM      5  C   UNL     1      35.454 -22.477 -15.806  0.00  0.00    +0.002 C 
ATOM      6  C   UNL     1      34.599 -23.703 -16.105  0.00  0.00    +0.000 C 
ENDROOT
BRANCH   1   7
ATOM      7  O   UNL     1      36.071 -23.032 -12.938  0.00  0.00    -0.386 OA
ATOM      8  H   UNL     1      36.552 -22.201 -12.800  0.00  0.00    +0.210 HD
ENDBRANCH   1   7
BRANCH   1   9
ATOM      9  C   UNL     1      38.070 -24.216 -13.507  0.00  0.00    +0.123 C 
BRANCH   9  11
ATOM     10  O   UNL     1      37.687 -24.803 -11.173  0.00  0.00    -0.250 OA
ATOM     11  C   UNL     1      38.133 -24.020 -12.002  0.00  0.00    +0.316 C 
BRANCH  11  12
ATOM     12  O   UNL     1      38.768 -22.869 -11.661  0.00  0.00    -0.480 OA
ATOM     13  H   UNL     1      39.114 -22.762 -10.798  0.00  0.00    +0.295 HD
ENDBRANCH  11  12
ENDBRANCH   9  11
BRANCH   9  14
ATOM     14  C   UNL     1      38.333 -25.677 -13.905  0.00  0.00    +0.013 C 
ATOM     15  C   UNL     1      39.729 -25.884 -14.476  0.00  0.00    +0.001 C 
ENDBRANCH   9  14
ENDBRANCH   1   9
TORSDOF 5
ENDMDL
MODEL 8
REMARK VINA RESULT:      -6.1      2.622      5.140
REMARK  Name = 72065
REMARK  5 active torsions:
REMARK  status: ('A' for Active; 'I' for Inactive)
REMARK    1  A    between atoms: C_1  and  O_7
REMARK    2  A    between atoms: C_1  and  C_9
REMARK    3  A    between atoms: C_9  and  C_11
REMARK    4  A    between atoms: C_9  and  C_14
REMARK    5  A    between atoms: C_11  and  O_12
REMARK                            x       y       z     vdW  Elec       q    Type
REMARK                         _______ _______ _______ _____ _____    ______ ____
ROOT
ATOM      1  C   UNL     1      34.514 -16.575 -23.403  0.00  0.00    +0.098 C 
ATOM      2  C   UNL     1      34.509 -17.933 -24.120  0.00  0.00    +0.027 C 
ATOM      3  C   UNL     1      34.239 -16.748 -21.901  0.00  0.00    +0.027 C 
ATOM      4  C   UNL     1      35.454 -18.941 -23.464  0.00  0.00    +0.002 C 
ATOM      5  C   UNL     1      35.185 -17.758 -21.251  0.00  0.00    +0.002 C 
ATOM      6  C   UNL     1      35.159 -19.099 -21.975  0.00  0.00    +0.000 C 
ENDROOT
BRANCH   1   7
ATOM      7  O   UNL     1      35.808 -15.990 -23.575  0.00  0.00    -0.386 OA
ATOM      8  H   UNL     1      36.462 -16.496 -23.068  0.00  0.00    +0.210 HD
ENDBRANCH   1   7
BRANCH   1   9
ATOM      9  C   UNL     1      33.489 -15.632 -24.036  0.00  0.00    +0.123 C 
BRANCH   9  11
ATOM     10  O   UNL     1      32.466 -14.079 -22.461  0.00  0.00    -0.250 OA
ATOM     11  C   UNL     1      33.406 -14.374 -23.188  0.00  0.00    +0.316 C 
BRANCH  11  12
ATOM     12  O   UNL     1      34.518 -13.603 -23.305  0.00  0.00    -0.480 OA
ATOM     13  H   UNL     1      34.457 -12.674 -23.210  0.00  0.00    +0.295 HD
ENDBRANCH  11  12
ENDBRANCH   9  11
BRANCH   9  14
ATOM     14  C   UNL     1      33.876 -15.319 -25.490  0.00  0.00    +0.013 C 
ATOM     15  C   UNL     1      32.757 -14.626 -26.256  0.00  0.00    +0.001 C 
ENDBRANCH   9  14
ENDBRANCH   1   9
TORSDOF 5
ENDMDL
MODEL 9
REMARK VINA RESULT:      -6.1      7.187      9.987
REMARK  Name = 72065
REMARK  5 active torsions:
REMARK  status: ('A' for Active; 'I' for Inactive)
REMARK    1  A    between atoms: C_1  and  O_7
REMARK    2  A    between atoms: C_1  and  C_9
REMARK    3  A    between atoms: C_9  and  C_11
REMARK    4  A    between atoms: C_9  and  C_14
REMARK    5  A    between atoms: C_11  and  O_12
REMARK                            x       y       z     vdW  Elec       q    Type
REMARK                         _______ _______ _______ _____ _____    ______ ____
ROOT
ATOM      1  C   UNL     1      36.823 -23.973 -14.890  0.00  0.00    +0.098 C 
ATOM      2  C   UNL     1      36.280 -25.407 -14.980  0.00  0.00    +0.027 C 
ATOM      3  C   UNL     1      37.196 -23.619 -13.441  0.00  0.00    +0.027 C 
ATOM      4  C   UNL     1      37.229 -26.429 -14.353  0.00  0.00    +0.002 C 
ATOM      5  C   UNL     1      38.144 -24.645 -12.819  0.00  0.00    +0.002 C 
ATOM      6  C   UNL     1      37.582 -26.060 -12.915  0.00  0.00    +0.000 C 
ENDROOT
BRANCH   1   7
ATOM      7  O   UNL     1      37.995 -23.894 -15.705  0.00  0.00    -0.386 OA
ATOM      8  H   UNL     1      38.741 -23.578 -15.171  0.00  0.00    +0.210 HD
ENDBRANCH   1   7
BRANCH   1   9
ATOM      9  C   UNL     1      35.801 -22.978 -15.444  0.00  0.00    +0.123 C 
BRANCH   9  11
ATOM     10  O   UNL     1      36.159 -22.438 -17.793  0.00  0.00    -0.250 OA
ATOM     11  C   UNL     1      36.432 -22.245 -16.615  0.00  0.00    +0.316 C 
BRANCH  11  12
ATOM     12  O   UNL     1      37.337 -21.316 -16.211  0.00  0.00    -0.480 OA
ATOM     13  H   UNL     1      38.254 -21.486 -16.295  0.00  0.00    +0.295 HD
ENDBRANCH  11  12
ENDBRANCH   9  11
BRANCH   9  14
ATOM     14  C   UNL     1      34.512 -23.707 -15.852  0.00  0.00    +0.013 C 
ATOM     15  C   UNL     1      33.292 -23.209 -15.088  0.00  0.00    +0.001 C 
ENDBRANCH   9  14
ENDBRANCH   1   9
TORSDOF 5
ENDMDL
