MODEL 1
REMARK VINA RESULT:      -8.8      0.000      0.000
REMARK  Name = 19596
REMARK  4 active torsions:
REMARK  status: ('A' for Active; 'I' for Inactive)
REMARK    1  A    between atoms: S_1  and  C_4
REMARK    2  A    between atoms: S_1  and  N_13
REMARK    3  A    between atoms: C_9  and  N_10
REMARK    4  A    between atoms: C_19  and  O_22
REMARK                            x       y       z     vdW  Elec       q    Type
REMARK                         _______ _______ _______ _____ _____    ______ ____
ROOT
ATOM      1  S   UNL     1      35.469 -17.975 -21.482  0.00  0.00    +0.075 S 
ATOM      2  O   UNL     1      35.549 -16.957 -20.443  0.00  0.00    -0.150 OA
ATOM      3  O   UNL     1      36.654 -18.293 -22.270  0.00  0.00    -0.150 OA
ENDROOT
BRANCH   1   4
ATOM      4  N   UNL     1      34.162 -17.590 -22.532  0.00  0.00    -0.191 N 
ATOM      5  H   UNL     1      33.684 -18.280 -23.045  0.00  0.00    +0.176 HD
ATOM      6  N   UNL     1      33.245 -15.669 -21.516  0.00  0.00    -0.331 NA
ATOM      7  N   UNL     1      33.128 -13.567 -22.689  0.00  0.00    -0.311 NA
ATOM      8  C   UNL     1      33.801 -16.158 -22.618  0.00  0.00    +0.198 C 
ATOM      9  C   UNL     1      34.069 -15.500 -23.771  0.00  0.00    +0.177 C 
ATOM     10  C   UNL     1      33.701 -14.170 -23.751  0.00  0.00    +0.272 C 
ATOM     11  C   UNL     1      32.932 -14.364 -21.621  0.00  0.00    +0.119 C 
ATOM     12  C   UNL     1      32.302 -13.731 -20.426  0.00  0.00    +0.143 C 
BRANCH  10  13
ATOM     13  O   UNL     1      33.920 -13.399 -24.862  0.00  0.00    -0.450 OA
ATOM     14  C   UNL     1      33.846 -11.989 -24.687  0.00  0.00    +0.255 C 
ENDBRANCH  10  13
ENDBRANCH   1   4
BRANCH   1  15
ATOM     15  C   UNL     1      34.896 -19.459 -20.762  0.00  0.00    +0.125 C 
ATOM     16  C   UNL     1      35.809 -20.393 -20.271  0.00  0.00    +0.021 C 
ATOM     17  C   UNL     1      33.527 -19.710 -20.677  0.00  0.00    +0.021 C 
ATOM     18  C   UNL     1      35.351 -21.579 -19.696  0.00  0.00    +0.015 C 
ATOM     19  C   UNL     1      33.069 -20.895 -20.103  0.00  0.00    +0.015 C 
ATOM     20  C   UNL     1      33.981 -21.830 -19.611  0.00  0.00    +0.042 C 
BRANCH  20  21
ATOM     21  N   UNL     1      33.518 -23.029 -19.029  0.00  0.00    -0.357 N 
ATOM     22  H   UNL     1      34.161 -23.673 -18.653  0.00  0.00    +0.142 HD
ATOM     23  H   UNL     1      32.554 -23.220 -18.998  0.00  0.00    +0.142 HD
ENDBRANCH  20  21
ENDBRANCH   1  15
TORSDOF 4
ENDMDL
MODEL 2
REMARK VINA RESULT:      -8.8      4.906      9.592
REMARK  Name = 19596
REMARK  4 active torsions:
REMARK  status: ('A' for Active; 'I' for Inactive)
REMARK    1  A    between atoms: S_1  and  C_4
REMARK    2  A    between atoms: S_1  and  N_13
REMARK    3  A    between atoms: C_9  and  N_10
REMARK    4  A    between atoms: C_19  and  O_22
REMARK                            x       y       z     vdW  Elec       q    Type
REMARK                         _______ _______ _______ _____ _____    ______ ____
ROOT
ATOM      1  S   UNL     1      33.677 -22.621 -18.643  0.00  0.00    +0.075 S 
ATOM      2  O   UNL     1      32.309 -22.467 -18.164  0.00  0.00    -0.150 OA
ATOM      3  O   UNL     1      34.061 -23.843 -19.340  0.00  0.00    -0.150 OA
ENDROOT
BRANCH   1   4
ATOM      4  N   UNL     1      34.755 -22.338 -17.334  0.00  0.00    -0.191 N 
ATOM      5  H   UNL     1      35.463 -21.655 -17.379  0.00  0.00    +0.176 HD
ATOM      6  N   UNL     1      33.443 -22.918 -15.462  0.00  0.00    -0.331 NA
ATOM      7  N   UNL     1      34.115 -24.677 -13.959  0.00  0.00    -0.311 NA
ATOM      8  C   UNL     1      34.555 -23.183 -16.136  0.00  0.00    +0.198 C 
ATOM      9  C   UNL     1      35.491 -24.120 -15.853  0.00  0.00    +0.177 C 
ATOM     10  C   UNL     1      35.213 -24.859 -14.722  0.00  0.00    +0.272 C 
ATOM     11  C   UNL     1      33.285 -23.705 -14.381  0.00  0.00    +0.119 C 
ATOM     12  C   UNL     1      32.058 -23.476 -13.564  0.00  0.00    +0.143 C 
BRANCH  10  13
ATOM     13  O   UNL     1      36.087 -25.838 -14.331  0.00  0.00    -0.450 OA
ATOM     14  C   UNL     1      36.699 -26.601 -15.364  0.00  0.00    +0.255 C 
ENDBRANCH  10  13
ENDBRANCH   1   4
BRANCH   1  15
ATOM     15  C   UNL     1      34.054 -21.274 -19.688  0.00  0.00    +0.125 C 
ATOM     16  C   UNL     1      33.026 -20.495 -20.220  0.00  0.00    +0.021 C 
ATOM     17  C   UNL     1      35.383 -20.977 -19.990  0.00  0.00    +0.021 C 
ATOM     18  C   UNL     1      33.327 -19.419 -21.055  0.00  0.00    +0.015 C 
ATOM     19  C   UNL     1      35.684 -19.901 -20.825  0.00  0.00    +0.015 C 
ATOM     20  C   UNL     1      34.657 -19.121 -21.357  0.00  0.00    +0.042 C 
BRANCH  20  21
ATOM     21  N   UNL     1      34.962 -18.033 -22.201  0.00  0.00    -0.357 N 
ATOM     22  H   UNL     1      34.396 -17.227 -22.188  0.00  0.00    +0.142 HD
ATOM     23  H   UNL     1      35.740 -18.079 -22.802  0.00  0.00    +0.142 HD
ENDBRANCH  20  21
ENDBRANCH   1  15
TORSDOF 4
ENDMDL
MODEL 3
REMARK VINA RESULT:      -8.7      9.961     11.737
REMARK  Name = 19596
REMARK  4 active torsions:
REMARK  status: ('A' for Active; 'I' for Inactive)
REMARK    1  A    between atoms: S_1  and  C_4
REMARK    2  A    between atoms: S_1  and  N_13
REMARK    3  A    between atoms: C_9  and  N_10
REMARK    4  A    between atoms: C_19  and  O_22
REMARK                            x       y       z     vdW  Elec       q    Type
REMARK                         _______ _______ _______ _____ _____    ______ ____
ROOT
ATOM      1  S   UNL     1      31.073 -24.275 -13.775  0.00  0.00    +0.075 S 
ATOM      2  O   UNL     1      30.630 -23.830 -12.459  0.00  0.00    -0.150 OA
ATOM      3  O   UNL     1      31.349 -25.688 -14.000  0.00  0.00    -0.150 OA
ENDROOT
BRANCH   1   4
ATOM      4  N   UNL     1      32.437 -23.338 -14.244  0.00  0.00    -0.191 N 
ATOM      5  H   UNL     1      32.342 -22.473 -14.705  0.00  0.00    +0.176 HD
ATOM      6  N   UNL     1      34.039 -23.923 -12.616  0.00  0.00    -0.331 NA
ATOM      7  N   UNL     1      36.135 -24.940 -13.231  0.00  0.00    -0.311 NA
ATOM      8  C   UNL     1      33.760 -23.910 -13.913  0.00  0.00    +0.198 C 
ATOM      9  C   UNL     1      34.534 -24.357 -14.930  0.00  0.00    +0.177 C 
ATOM     10  C   UNL     1      35.745 -24.876 -14.521  0.00  0.00    +0.272 C 
ATOM     11  C   UNL     1      35.246 -24.454 -12.344  0.00  0.00    +0.119 C 
ATOM     12  C   UNL     1      35.642 -24.509 -10.907  0.00  0.00    +0.143 C 
BRANCH  10  13
ATOM     13  O   UNL     1      36.618 -25.360 -15.460  0.00  0.00    -0.450 OA
ATOM     14  C   UNL     1      37.266 -26.590 -15.159  0.00  0.00    +0.255 C 
ENDBRANCH  10  13
ENDBRANCH   1   4
BRANCH   1  15
ATOM     15  C   UNL     1      29.893 -23.769 -14.958  0.00  0.00    +0.125 C 
ATOM     16  C   UNL     1      29.445 -22.448 -14.976  0.00  0.00    +0.021 C 
ATOM     17  C   UNL     1      29.400 -24.687 -15.886  0.00  0.00    +0.021 C 
ATOM     18  C   UNL     1      28.502 -22.045 -15.921  0.00  0.00    +0.015 C 
ATOM     19  C   UNL     1      28.457 -24.283 -16.831  0.00  0.00    +0.015 C 
ATOM     20  C   UNL     1      28.008 -22.962 -16.850  0.00  0.00    +0.042 C 
BRANCH  20  21
ATOM     21  N   UNL     1      27.055 -22.554 -17.806  0.00  0.00    -0.357 N 
ATOM     22  H   UNL     1      26.918 -21.596 -17.986  0.00  0.00    +0.142 HD
ATOM     23  H   UNL     1      26.528 -23.227 -18.294  0.00  0.00    +0.142 HD
ENDBRANCH  20  21
ENDBRANCH   1  15
TORSDOF 4
ENDMDL
MODEL 4
REMARK VINA RESULT:      -8.6      6.733     11.149
REMARK  Name = 19596
REMARK  4 active torsions:
REMARK  status: ('A' for Active; 'I' for Inactive)
REMARK    1  A    between atoms: S_1  and  C_4
REMARK    2  A    between atoms: S_1  and  N_13
REMARK    3  A    between atoms: C_9  and  N_10
REMARK    4  A    between atoms: C_19  and  O_22
REMARK                            x       y       z     vdW  Elec       q    Type
REMARK                         _______ _______ _______ _____ _____    ______ ____
ROOT
ATOM      1  S   UNL     1      34.924 -23.362 -15.874  0.00  0.00    +0.075 S 
ATOM      2  O   UNL     1      33.799 -22.815 -15.126  0.00  0.00    -0.150 OA
ATOM      3  O   UNL     1      34.970 -24.790 -16.161  0.00  0.00    -0.150 OA
ENDROOT
BRANCH   1   4
ATOM      4  N   UNL     1      36.384 -22.877 -15.107  0.00  0.00    -0.191 N 
ATOM      5  H   UNL     1      36.878 -22.073 -15.385  0.00  0.00    +0.176 HD
ATOM      6  N   UNL     1      36.099 -23.694 -12.913  0.00  0.00    -0.331 NA
ATOM      7  N   UNL     1      37.632 -25.293 -11.963  0.00  0.00    -0.311 NA
ATOM      8  C   UNL     1      36.854 -23.744 -14.004  0.00  0.00    +0.198 C 
ATOM      9  C   UNL     1      37.969 -24.486 -14.205  0.00  0.00    +0.177 C 
ATOM     10  C   UNL     1      38.323 -25.263 -13.122  0.00  0.00    +0.272 C 
ATOM     11  C   UNL     1      36.547 -24.496 -11.928  0.00  0.00    +0.119 C 
ATOM     12  C   UNL     1      35.757 -24.504 -10.663  0.00  0.00    +0.143 C 
BRANCH  10  13
ATOM     13  O   UNL     1      39.435 -26.058 -13.203  0.00  0.00    -0.450 OA
ATOM     14  C   UNL     1      40.326 -25.805 -14.284  0.00  0.00    +0.255 C 
ENDBRANCH  10  13
ENDBRANCH   1   4
BRANCH   1  15
ATOM     15  C   UNL     1      35.044 -22.512 -17.395  0.00  0.00    +0.125 C 
ATOM     16  C   UNL     1      33.935 -22.431 -18.238  0.00  0.00    +0.021 C 
ATOM     17  C   UNL     1      36.249 -21.914 -17.766  0.00  0.00    +0.021 C 
ATOM     18  C   UNL     1      34.032 -21.752 -19.452  0.00  0.00    +0.015 C 
ATOM     19  C   UNL     1      36.345 -21.236 -18.981  0.00  0.00    +0.015 C 
ATOM     20  C   UNL     1      35.236 -21.154 -19.825  0.00  0.00    +0.042 C 
BRANCH  20  21
ATOM     21  N   UNL     1      35.334 -20.467 -21.053  0.00  0.00    -0.357 N 
ATOM     22  H   UNL     1      34.585 -19.908 -21.365  0.00  0.00    +0.142 HD
ATOM     23  H   UNL     1      36.150 -20.545 -21.597  0.00  0.00    +0.142 HD
ENDBRANCH  20  21
ENDBRANCH   1  15
TORSDOF 4
ENDMDL
MODEL 5
REMARK VINA RESULT:      -8.4      2.633      7.280
REMARK  Name = 19596
REMARK  4 active torsions:
REMARK  status: ('A' for Active; 'I' for Inactive)
REMARK    1  A    between atoms: S_1  and  C_4
REMARK    2  A    between atoms: S_1  and  N_13
REMARK    3  A    between atoms: C_9  and  N_10
REMARK    4  A    between atoms: C_19  and  O_22
REMARK                            x       y       z     vdW  Elec       q    Type
REMARK                         _______ _______ _______ _____ _____    ______ ____
ROOT
ATOM      1  S   UNL     1      35.893 -18.293 -21.677  0.00  0.00    +0.075 S 
ATOM      2  O   UNL     1      37.331 -18.297 -21.913  0.00  0.00    -0.150 OA
ATOM      3  O   UNL     1      35.368 -17.711 -20.448  0.00  0.00    -0.150 OA
ENDROOT
BRANCH   1   4
ATOM      4  N   UNL     1      35.300 -19.897 -21.858  0.00  0.00    -0.191 N 
ATOM      5  H   UNL     1      35.136 -20.296 -22.742  0.00  0.00    +0.176 HD
ATOM      6  N   UNL     1      36.151 -20.971 -19.938  0.00  0.00    -0.331 NA
ATOM      7  N   UNL     1      34.685 -21.979 -18.314  0.00  0.00    -0.311 NA
ATOM      8  C   UNL     1      35.051 -20.640 -20.603  0.00  0.00    +0.198 C 
ATOM      9  C   UNL     1      33.767 -20.899 -20.258  0.00  0.00    +0.177 C 
ATOM     10  C   UNL     1      33.638 -21.591 -19.072  0.00  0.00    +0.272 C 
ATOM     11  C   UNL     1      35.894 -21.641 -18.799  0.00  0.00    +0.119 C 
ATOM     12  C   UNL     1      37.076 -22.052 -17.987  0.00  0.00    +0.143 C 
BRANCH  10  13
ATOM     13  O   UNL     1      32.387 -21.913 -18.618  0.00  0.00    -0.450 OA
ATOM     14  C   UNL     1      32.318 -22.728 -17.453  0.00  0.00    +0.255 C 
ENDBRANCH  10  13
ENDBRANCH   1   4
BRANCH   1  15
ATOM     15  C   UNL     1      35.113 -17.492 -23.019  0.00  0.00    +0.125 C 
ATOM     16  C   UNL     1      34.863 -18.192 -24.199  0.00  0.00    +0.021 C 
ATOM     17  C   UNL     1      34.738 -16.153 -22.909  0.00  0.00    +0.021 C 
ATOM     18  C   UNL     1      34.240 -17.552 -25.270  0.00  0.00    +0.015 C 
ATOM     19  C   UNL     1      34.116 -15.513 -23.980  0.00  0.00    +0.015 C 
ATOM     20  C   UNL     1      33.866 -16.212 -25.161  0.00  0.00    +0.042 C 
BRANCH  20  21
ATOM     21  N   UNL     1      33.235 -15.565 -26.244  0.00  0.00    -0.357 N 
ATOM     22  H   UNL     1      33.777 -15.175 -26.968  0.00  0.00    +0.142 HD
ATOM     23  H   UNL     1      32.254 -15.504 -26.277  0.00  0.00    +0.142 HD
ENDBRANCH  20  21
ENDBRANCH   1  15
TORSDOF 4
ENDMDL
MODEL 6
REMARK VINA RESULT:      -8.4      8.404     10.657
REMARK  Name = 19596
REMARK  4 active torsions:
REMARK  status: ('A' for Active; 'I' for Inactive)
REMARK    1  A    between atoms: S_1  and  C_4
REMARK    2  A    between atoms: S_1  and  N_13
REMARK    3  A    between atoms: C_9  and  N_10
REMARK    4  A    between atoms: C_19  and  O_22
REMARK                            x       y       z     vdW  Elec       q    Type
REMARK                         _______ _______ _______ _____ _____    ______ ____
ROOT
ATOM      1  S   UNL     1      31.175 -24.383 -13.720  0.00  0.00    +0.075 S 
ATOM      2  O   UNL     1      30.547 -24.359 -12.406  0.00  0.00    -0.150 OA
ATOM      3  O   UNL     1      31.781 -25.618 -14.205  0.00  0.00    -0.150 OA
ENDROOT
BRANCH   1   4
ATOM      4  N   UNL     1      32.320 -23.104 -13.809  0.00  0.00    -0.191 N 
ATOM      5  H   UNL     1      32.130 -22.207 -13.449  0.00  0.00    +0.176 HD
ATOM      6  N   UNL     1      34.376 -24.258 -13.760  0.00  0.00    -0.331 NA
ATOM      7  N   UNL     1      35.954 -24.082 -15.573  0.00  0.00    -0.311 NA
ATOM      8  C   UNL     1      33.608 -23.431 -14.459  0.00  0.00    +0.198 C 
ATOM      9  C   UNL     1      33.871 -22.880 -15.667  0.00  0.00    +0.177 C 
ATOM     10  C   UNL     1      35.092 -23.249 -16.193  0.00  0.00    +0.272 C 
ATOM     11  C   UNL     1      35.538 -24.543 -14.378  0.00  0.00    +0.119 C 
ATOM     12  C   UNL     1      36.464 -25.468 -13.663  0.00  0.00    +0.143 C 
BRANCH  10  13
ATOM     13  O   UNL     1      35.473 -22.755 -17.412  0.00  0.00    -0.450 OA
ATOM     14  C   UNL     1      36.644 -21.946 -17.438  0.00  0.00    +0.255 C 
ENDBRANCH  10  13
ENDBRANCH   1   4
BRANCH   1  15
ATOM     15  C   UNL     1      30.001 -23.868 -14.906  0.00  0.00    +0.125 C 
ATOM     16  C   UNL     1      29.467 -24.791 -15.805  0.00  0.00    +0.021 C 
ATOM     17  C   UNL     1      29.596 -22.534 -14.952  0.00  0.00    +0.021 C 
ATOM     18  C   UNL     1      28.530 -24.379 -16.752  0.00  0.00    +0.015 C 
ATOM     19  C   UNL     1      28.659 -22.122 -15.899  0.00  0.00    +0.015 C 
ATOM     20  C   UNL     1      28.124 -23.045 -16.799  0.00  0.00    +0.042 C 
BRANCH  20  21
ATOM     21  N   UNL     1      27.176 -22.628 -17.756  0.00  0.00    -0.357 N 
ATOM     22  H   UNL     1      26.250 -22.962 -17.709  0.00  0.00    +0.142 HD
ATOM     23  H   UNL     1      27.438 -22.003 -18.469  0.00  0.00    +0.142 HD
ENDBRANCH  20  21
ENDBRANCH   1  15
TORSDOF 4
ENDMDL
MODEL 7
REMARK VINA RESULT:      -8.3      1.684      2.522
REMARK  Name = 19596
REMARK  4 active torsions:
REMARK  status: ('A' for Active; 'I' for Inactive)
REMARK    1  A    between atoms: S_1  and  C_4
REMARK    2  A    between atoms: S_1  and  N_13
REMARK    3  A    between atoms: C_9  and  N_10
REMARK    4  A    between atoms: C_19  and  O_22
REMARK                            x       y       z     vdW  Elec       q    Type
REMARK                         _______ _______ _______ _____ _____    ______ ____
ROOT
ATOM      1  S   UNL     1      35.070 -18.125 -22.763  0.00  0.00    +0.075 S 
ATOM      2  O   UNL     1      36.307 -18.646 -23.332  0.00  0.00    -0.150 OA
ATOM      3  O   UNL     1      33.960 -17.787 -23.645  0.00  0.00    -0.150 OA
ENDROOT
BRANCH   1   4
ATOM      4  N   UNL     1      35.447 -16.777 -21.764  0.00  0.00    -0.191 N 
ATOM      5  H   UNL     1      36.194 -16.795 -21.123  0.00  0.00    +0.176 HD
ATOM      6  N   UNL     1      34.735 -14.955 -23.081  0.00  0.00    -0.331 NA
ATOM      7  N   UNL     1      33.038 -13.433 -22.299  0.00  0.00    -0.311 NA
ATOM      8  C   UNL     1      34.580 -15.590 -21.925  0.00  0.00    +0.198 C 
ATOM      9  C   UNL     1      33.734 -15.275 -20.916  0.00  0.00    +0.177 C 
ATOM     10  C   UNL     1      32.966 -14.156 -21.162  0.00  0.00    +0.272 C 
ATOM     11  C   UNL     1      33.930 -13.883 -23.202  0.00  0.00    +0.119 C 
ATOM     12  C   UNL     1      34.037 -13.109 -24.473  0.00  0.00    +0.143 C 
BRANCH  10  13
ATOM     13  O   UNL     1      32.072 -13.736 -20.213  0.00  0.00    -0.450 OA
ATOM     14  C   UNL     1      31.788 -12.342 -20.172  0.00  0.00    +0.255 C 
ENDBRANCH  10  13
ENDBRANCH   1   4
BRANCH   1  15
ATOM     15  C   UNL     1      34.480 -19.267 -21.581  0.00  0.00    +0.125 C 
ATOM     16  C   UNL     1      35.372 -20.112 -20.921  0.00  0.00    +0.021 C 
ATOM     17  C   UNL     1      33.116 -19.332 -21.295  0.00  0.00    +0.021 C 
ATOM     18  C   UNL     1      34.900 -21.024 -19.977  0.00  0.00    +0.015 C 
ATOM     19  C   UNL     1      32.644 -20.243 -20.351  0.00  0.00    +0.015 C 
ATOM     20  C   UNL     1      33.536 -21.090 -19.691  0.00  0.00    +0.042 C 
BRANCH  20  21
ATOM     21  N   UNL     1      33.059 -22.011 -18.736  0.00  0.00    -0.357 N 
ATOM     22  H   UNL     1      32.142 -22.364 -18.808  0.00  0.00    +0.142 HD
ATOM     23  H   UNL     1      33.642 -22.302 -17.999  0.00  0.00    +0.142 HD
ENDBRANCH  20  21
ENDBRANCH   1  15
TORSDOF 4
ENDMDL
MODEL 8
REMARK VINA RESULT:      -8.2      2.029      2.769
REMARK  Name = 19596
REMARK  4 active torsions:
REMARK  status: ('A' for Active; 'I' for Inactive)
REMARK    1  A    between atoms: S_1  and  C_4
REMARK    2  A    between atoms: S_1  and  N_13
REMARK    3  A    between atoms: C_9  and  N_10
REMARK    4  A    between atoms: C_19  and  O_22
REMARK                            x       y       z     vdW  Elec       q    Type
REMARK                         _______ _______ _______ _____ _____    ______ ____
ROOT
ATOM      1  S   UNL     1      34.436 -19.142 -21.861  0.00  0.00    +0.075 S 
ATOM      2  O   UNL     1      34.877 -19.663 -23.149  0.00  0.00    -0.150 OA
ATOM      3  O   UNL     1      33.011 -19.061 -21.568  0.00  0.00    -0.150 OA
ENDROOT
BRANCH   1   4
ATOM      4  N   UNL     1      35.168 -17.607 -21.607  0.00  0.00    -0.191 N 
ATOM      5  H   UNL     1      36.044 -17.513 -21.167  0.00  0.00    +0.176 HD
ATOM      6  N   UNL     1      34.329 -16.340 -23.410  0.00  0.00    -0.331 NA
ATOM      7  N   UNL     1      33.022 -14.350 -23.041  0.00  0.00    -0.311 NA
ATOM      8  C   UNL     1      34.402 -16.437 -22.088  0.00  0.00    +0.198 C 
ATOM      9  C   UNL     1      33.861 -15.606 -21.167  0.00  0.00    +0.177 C 
ATOM     10  C   UNL     1      33.162 -14.549 -21.713  0.00  0.00    +0.272 C 
ATOM     11  C   UNL     1      33.621 -15.270 -23.819  0.00  0.00    +0.119 C 
ATOM     12  C   UNL     1      33.487 -15.084 -25.293  0.00  0.00    +0.143 C 
BRANCH  10  13
ATOM     13  O   UNL     1      32.569 -13.637 -20.881  0.00  0.00    -0.450 OA
ATOM     14  C   UNL     1      31.883 -12.555 -21.500  0.00  0.00    +0.255 C 
ENDBRANCH  10  13
ENDBRANCH   1   4
BRANCH   1  15
ATOM     15  C   UNL     1      35.184 -20.086 -20.597  0.00  0.00    +0.125 C 
ATOM     16  C   UNL     1      36.534 -19.904 -20.296  0.00  0.00    +0.021 C 
ATOM     17  C   UNL     1      34.431 -21.022 -19.887  0.00  0.00    +0.021 C 
ATOM     18  C   UNL     1      37.131 -20.658 -19.286  0.00  0.00    +0.015 C 
ATOM     19  C   UNL     1      35.028 -21.776 -18.877  0.00  0.00    +0.015 C 
ATOM     20  C   UNL     1      36.378 -21.594 -18.576  0.00  0.00    +0.042 C 
BRANCH  20  21
ATOM     21  N   UNL     1      36.982 -22.357 -17.554  0.00  0.00    -0.357 N 
ATOM     22  H   UNL     1      36.750 -23.308 -17.447  0.00  0.00    +0.142 HD
ATOM     23  H   UNL     1      37.635 -21.938 -16.948  0.00  0.00    +0.142 HD
ENDBRANCH  20  21
ENDBRANCH   1  15
TORSDOF 4
ENDMDL
MODEL 9
REMARK VINA RESULT:      -8.2      3.297      4.247
REMARK  Name = 19596
REMARK  4 active torsions:
REMARK  status: ('A' for Active; 'I' for Inactive)
REMARK    1  A    between atoms: S_1  and  C_4
REMARK    2  A    between atoms: S_1  and  N_13
REMARK    3  A    between atoms: C_9  and  N_10
REMARK    4  A    between atoms: C_19  and  O_22
REMARK                            x       y       z     vdW  Elec       q    Type
REMARK                         _______ _______ _______ _____ _____    ______ ____
ROOT
ATOM      1  S   UNL     1      33.773 -15.084 -22.408  0.00  0.00    +0.075 S 
ATOM      2  O   UNL     1      32.684 -15.304 -21.465  0.00  0.00    -0.150 OA
ATOM      3  O   UNL     1      35.020 -14.490 -21.941  0.00  0.00    -0.150 OA
ENDROOT
BRANCH   1   4
ATOM      4  N   UNL     1      33.171 -14.189 -23.748  0.00  0.00    -0.191 N 
ATOM      5  H   UNL     1      32.851 -14.628 -24.568  0.00  0.00    +0.176 HD
ATOM      6  N   UNL     1      32.278 -12.267 -22.712  0.00  0.00    -0.331 NA
ATOM      7  N   UNL     1      33.096 -10.064 -23.244  0.00  0.00    -0.311 NA
ATOM      8  C   UNL     1      33.164 -12.717 -23.592  0.00  0.00    +0.198 C 
ATOM      9  C   UNL     1      34.037 -11.993 -24.332  0.00  0.00    +0.177 C 
ATOM     10  C   UNL     1      33.958 -10.633 -24.113  0.00  0.00    +0.272 C 
ATOM     11  C   UNL     1      32.299 -10.926 -22.587  0.00  0.00    +0.119 C 
ATOM     12  C   UNL     1      31.334 -10.333 -21.617  0.00  0.00    +0.143 C 
BRANCH  10  13
ATOM     13  O   UNL     1      34.790  -9.794 -24.805  0.00  0.00    -0.450 OA
ATOM     14  C   UNL     1      35.496 -10.356 -25.906  0.00  0.00    +0.255 C 
ENDBRANCH  10  13
ENDBRANCH   1   4
BRANCH   1  15
ATOM     15  C   UNL     1      34.164 -16.606 -23.169  0.00  0.00    +0.125 C 
ATOM     16  C   UNL     1      34.211 -16.699 -24.560  0.00  0.00    +0.021 C 
ATOM     17  C   UNL     1      34.431 -17.729 -22.385  0.00  0.00    +0.021 C 
ATOM     18  C   UNL     1      34.523 -17.915 -25.167  0.00  0.00    +0.015 C 
ATOM     19  C   UNL     1      34.743 -18.945 -22.992  0.00  0.00    +0.015 C 
ATOM     20  C   UNL     1      34.790 -19.039 -24.384  0.00  0.00    +0.042 C 
BRANCH  20  21
ATOM     21  N   UNL     1      35.106 -20.269 -24.998  0.00  0.00    -0.357 N 
ATOM     22  H   UNL     1      34.714 -21.105 -24.656  0.00  0.00    +0.142 HD
ATOM     23  H   UNL     1      35.718 -20.291 -25.768  0.00  0.00    +0.142 HD
ENDBRANCH  20  21
ENDBRANCH   1  15
TORSDOF 4
ENDMDL
