MODEL 1
REMARK VINA RESULT:      -9.7      0.000      0.000
REMARK  Name = 67409219
REMARK  7 active torsions:
REMARK  status: ('A' for Active; 'I' for Inactive)
REMARK    1  A    between atoms: C_3  and  C_24
REMARK    2  A    between atoms: C_5  and  O_33
REMARK    3  A    between atoms: C_8  and  O_35
REMARK    4  A    between atoms: C_10  and  C_13
REMARK    5  A    between atoms: C_18  and  C_22
REMARK    6  A    between atoms: C_25  and  C_30
REMARK    7  A    between atoms: C_30  and  O_31
REMARK                            x       y       z     vdW  Elec       q    Type
REMARK                         _______ _______ _______ _____ _____    ______ ____
ROOT
ATOM      1  O   UNL     1      33.816 -22.928 -16.400  0.00  0.00    -0.453 OA
ATOM      2  O   UNL     1      29.820 -23.672 -16.121  0.00  0.00    -0.286 OA
ATOM      3  C   UNL     1      34.244 -24.053 -14.368  0.00  0.00    +0.044 C 
ATOM      4  C   UNL     1      33.324 -23.625 -15.326  0.00  0.00    +0.150 C 
ATOM      5  C   UNL     1      33.803 -24.767 -13.254  0.00  0.00    +0.135 C 
ATOM      6  C   UNL     1      31.969 -23.912 -15.167  0.00  0.00    +0.107 C 
ATOM      7  C   UNL     1      32.447 -25.052 -13.097  0.00  0.00    +0.073 C 
ATOM      8  C   UNL     1      31.524 -24.626 -14.053  0.00  0.00    +0.143 C 
ATOM      9  C   UNL     1      31.021 -23.451 -16.194  0.00  0.00    +0.205 C 
ATOM     10  C   UNL     1      32.924 -22.483 -17.363  0.00  0.00    +0.149 C 
ATOM     11  C   UNL     1      31.600 -22.702 -17.327  0.00  0.00    +0.080 C 
ENDROOT
BRANCH  10  13
ATOM     12 CL   UNL     1      36.024 -22.423 -17.499  0.00  0.00    -0.082 Cl
ATOM     13  C   UNL     1      33.559 -21.748 -18.476  0.00  0.00    +0.045 C 
ATOM     14  C   UNL     1      34.944 -21.664 -18.617  0.00  0.00    +0.061 C 
ATOM     15  C   UNL     1      32.724 -21.124 -19.403  0.00  0.00    +0.004 C 
ATOM     16  C   UNL     1      35.495 -20.957 -19.686  0.00  0.00    +0.015 C 
ATOM     17  C   UNL     1      33.275 -20.415 -20.472  0.00  0.00    +0.004 C 
ATOM     18  C   UNL     1      34.661 -20.333 -20.614  0.00  0.00    +0.072 C 
BRANCH  18  22
ATOM     19  F   UNL     1      34.643 -18.371 -21.957  0.00  0.00    -0.166 F 
ATOM     20  F   UNL     1      36.577 -19.304 -21.610  0.00  0.00    -0.166 F 
ATOM     21  F   UNL     1      35.151 -20.237 -22.952  0.00  0.00    -0.166 F 
ATOM     22  C   UNL     1      35.246 -19.579 -21.759  0.00  0.00    +0.419 C 
ENDBRANCH  18  22
ENDBRANCH  10  13
BRANCH   3  24
ATOM     23  N   UNL     1      37.848 -24.463 -13.816  0.00  0.00    +0.389 N 
ATOM     24  C   UNL     1      35.718 -23.747 -14.532  0.00  0.00    +0.010 C 
ATOM     25  C   UNL     1      36.544 -24.062 -13.263  0.00  0.00    -0.024 C 
ATOM     26  C   UNL     1      36.404 -24.541 -15.655  0.00  0.00    -0.020 C 
ATOM     27  C   UNL     1      37.523 -25.307 -14.970  0.00  0.00    -0.077 C 
ATOM     28  C   UNL     1      38.688 -25.173 -12.859  0.00  0.00    -0.100 C 
ATOM     29  H   UNL     1      38.399 -23.643 -14.072  0.00  0.00    -0.080 HD
BRANCH  25  30
ATOM     30  C   UNL     1      36.645 -22.851 -12.339  0.00  0.00    +0.117 C 
BRANCH  30  31
ATOM     31  O   UNL     1      36.721 -23.308 -11.002  0.00  0.00    -0.384 OA
ATOM     32  H   UNL     1      35.995 -23.927 -10.830  0.00  0.00    +0.210 HD
ENDBRANCH  30  31
ENDBRANCH  25  30
ENDBRANCH   3  24
BRANCH   5  33
ATOM     33  O   UNL     1      34.685 -25.191 -12.304  0.00  0.00    -0.506 OA
ATOM     34  H   UNL     1      34.924 -26.095 -12.259  0.00  0.00    +0.292 HD
ENDBRANCH   5  33
BRANCH   8  35
ATOM     35  O   UNL     1      30.212 -24.932 -13.852  0.00  0.00    -0.505 OA
ATOM     36  H   UNL     1      29.800 -24.714 -13.039  0.00  0.00    +0.292 HD
ENDBRANCH   8  35
TORSDOF 7
ENDMDL
MODEL 2
REMARK VINA RESULT:      -9.6     15.338     19.532
REMARK  Name = 67409219
REMARK  7 active torsions:
REMARK  status: ('A' for Active; 'I' for Inactive)
REMARK    1  A    between atoms: C_3  and  C_24
REMARK    2  A    between atoms: C_5  and  O_33
REMARK    3  A    between atoms: C_8  and  O_35
REMARK    4  A    between atoms: C_10  and  C_13
REMARK    5  A    between atoms: C_18  and  C_22
REMARK    6  A    between atoms: C_25  and  C_30
REMARK    7  A    between atoms: C_30  and  O_31
REMARK                            x       y       z     vdW  Elec       q    Type
REMARK                         _______ _______ _______ _____ _____    ______ ____
ROOT
ATOM      1  O   UNL     1      32.452  -6.635 -24.367  0.00  0.00    -0.453 OA
ATOM      2  O   UNL     1      30.320  -5.005 -21.302  0.00  0.00    -0.286 OA
ATOM      3  C   UNL     1      32.588  -4.555 -25.478  0.00  0.00    +0.044 C 
ATOM      4  C   UNL     1      32.142  -5.299 -24.384  0.00  0.00    +0.150 C 
ATOM      5  C   UNL     1      32.303  -3.191 -25.551  0.00  0.00    +0.135 C 
ATOM      6  C   UNL     1      31.414  -4.678 -23.371  0.00  0.00    +0.107 C 
ATOM      7  C   UNL     1      31.574  -2.572 -24.536  0.00  0.00    +0.073 C 
ATOM      8  C   UNL     1      31.127  -3.313 -23.441  0.00  0.00    +0.143 C 
ATOM      9  C   UNL     1      30.958  -5.485 -22.228  0.00  0.00    +0.205 C 
ATOM     10  C   UNL     1      32.014  -7.400 -23.298  0.00  0.00    +0.149 C 
ATOM     11  C   UNL     1      31.314  -6.918 -22.258  0.00  0.00    +0.080 C 
ENDROOT
BRANCH  10  13
ATOM     12 CL   UNL     1      34.856  -8.081 -24.343  0.00  0.00    -0.082 Cl
ATOM     13  C   UNL     1      32.406  -8.822 -23.377  0.00  0.00    +0.045 C 
ATOM     14  C   UNL     1      33.661  -9.224 -23.836  0.00  0.00    +0.061 C 
ATOM     15  C   UNL     1      31.472  -9.777 -22.974  0.00  0.00    +0.004 C 
ATOM     16  C   UNL     1      33.982 -10.580 -23.893  0.00  0.00    +0.015 C 
ATOM     17  C   UNL     1      31.793 -11.134 -23.031  0.00  0.00    +0.004 C 
ATOM     18  C   UNL     1      33.048 -11.535 -23.490  0.00  0.00    +0.072 C 
BRANCH  18  22
ATOM     19  F   UNL     1      32.356 -13.784 -23.151  0.00  0.00    -0.166 F 
ATOM     20  F   UNL     1      33.732 -13.420 -24.795  0.00  0.00    -0.166 F 
ATOM     21  F   UNL     1      34.444 -13.330 -22.749  0.00  0.00    -0.166 F 
ATOM     22  C   UNL     1      33.390 -12.985 -23.545  0.00  0.00    +0.419 C 
ENDBRANCH  18  22
ENDBRANCH  10  13
BRANCH   3  24
ATOM     23  N   UNL     1      34.767  -4.720 -28.424  0.00  0.00    +0.389 N 
ATOM     24  C   UNL     1      33.380  -5.219 -26.584  0.00  0.00    +0.010 C 
ATOM     25  C   UNL     1      33.450  -4.367 -27.872  0.00  0.00    -0.024 C 
ATOM     26  C   UNL     1      34.846  -5.507 -26.223  0.00  0.00    -0.020 C 
ATOM     27  C   UNL     1      35.663  -4.760 -27.265  0.00  0.00    -0.077 C 
ATOM     28  C   UNL     1      35.244  -3.778 -29.430  0.00  0.00    -0.100 C 
ATOM     29  H   UNL     1      34.724  -5.612 -28.918  0.00  0.00    -0.080 HD
BRANCH  25  30
ATOM     30  C   UNL     1      32.305  -4.692 -28.828  0.00  0.00    +0.117 C 
BRANCH  30  31
ATOM     31  O   UNL     1      31.657  -3.485 -29.184  0.00  0.00    -0.384 OA
ATOM     32  H   UNL     1      30.701  -3.637 -29.248  0.00  0.00    +0.210 HD
ENDBRANCH  30  31
ENDBRANCH  25  30
ENDBRANCH   3  24
BRANCH   5  33
ATOM     33  O   UNL     1      32.726  -2.447 -26.612  0.00  0.00    -0.506 OA
ATOM     34  H   UNL     1      33.039  -1.575 -26.476  0.00  0.00    +0.292 HD
ENDBRANCH   5  33
BRANCH   8  35
ATOM     35  O   UNL     1      30.421  -2.660 -22.477  0.00  0.00    -0.505 OA
ATOM     36  H   UNL     1      29.494  -2.552 -22.568  0.00  0.00    +0.292 HD
ENDBRANCH   8  35
TORSDOF 7
ENDMDL
MODEL 3
REMARK VINA RESULT:      -9.5      2.191      4.842
REMARK  Name = 67409219
REMARK  7 active torsions:
REMARK  status: ('A' for Active; 'I' for Inactive)
REMARK    1  A    between atoms: C_3  and  C_24
REMARK    2  A    between atoms: C_5  and  O_33
REMARK    3  A    between atoms: C_8  and  O_35
REMARK    4  A    between atoms: C_10  and  C_13
REMARK    5  A    between atoms: C_18  and  C_22
REMARK    6  A    between atoms: C_25  and  C_30
REMARK    7  A    between atoms: C_30  and  O_31
REMARK                            x       y       z     vdW  Elec       q    Type
REMARK                         _______ _______ _______ _____ _____    ______ ____
ROOT
ATOM      1  O   UNL     1      35.361 -22.399 -16.578  0.00  0.00    -0.453 OA
ATOM      2  O   UNL     1      39.062 -23.724 -15.503  0.00  0.00    -0.286 OA
ATOM      3  C   UNL     1      34.379 -23.349 -14.651  0.00  0.00    +0.044 C 
ATOM      4  C   UNL     1      35.522 -23.114 -15.418  0.00  0.00    +0.150 C 
ATOM      5  C   UNL     1      34.479 -24.071 -13.462  0.00  0.00    +0.135 C 
ATOM      6  C   UNL     1      36.758 -23.598 -14.992  0.00  0.00    +0.107 C 
ATOM      7  C   UNL     1      35.717 -24.555 -13.038  0.00  0.00    +0.073 C 
ATOM      8  C   UNL     1      36.862 -24.320 -13.801  0.00  0.00    +0.143 C 
ATOM      9  C   UNL     1      37.946 -23.333 -15.818  0.00  0.00    +0.205 C 
ATOM     10  C   UNL     1      36.478 -22.157 -17.363  0.00  0.00    +0.149 C 
ATOM     11  C   UNL     1      37.721 -22.563 -17.057  0.00  0.00    +0.080 C 
ENDROOT
BRANCH  10  13
ATOM     12 CL   UNL     1      34.285 -23.205 -19.294  0.00  0.00    -0.082 Cl
ATOM     13  C   UNL     1      36.194 -21.377 -18.585  0.00  0.00    +0.045 C 
ATOM     14  C   UNL     1      35.228 -21.771 -19.511  0.00  0.00    +0.061 C 
ATOM     15  C   UNL     1      36.930 -20.211 -18.797  0.00  0.00    +0.004 C 
ATOM     16  C   UNL     1      34.999 -21.000 -20.651  0.00  0.00    +0.015 C 
ATOM     17  C   UNL     1      36.700 -19.440 -19.937  0.00  0.00    +0.004 C 
ATOM     18  C   UNL     1      35.734 -19.834 -20.863  0.00  0.00    +0.072 C 
BRANCH  18  22
ATOM     19  F   UNL     1      36.626 -18.419 -22.553  0.00  0.00    -0.166 F 
ATOM     20  F   UNL     1      34.975 -19.713 -23.129  0.00  0.00    -0.166 F 
ATOM     21  F   UNL     1      34.606 -17.983 -21.874  0.00  0.00    -0.166 F 
ATOM     22  C   UNL     1      35.488 -19.005 -22.078  0.00  0.00    +0.419 C 
ENDBRANCH  18  22
ENDBRANCH  10  13
BRANCH   3  24
ATOM     23  N   UNL     1      30.830 -23.537 -15.562  0.00  0.00    +0.389 N 
ATOM     24  C   UNL     1      33.032 -22.827 -15.104  0.00  0.00    +0.010 C 
ATOM     25  C   UNL     1      32.222 -23.868 -15.911  0.00  0.00    -0.024 C 
ATOM     26  C   UNL     1      32.101 -22.409 -13.955  0.00  0.00    -0.020 C 
ATOM     27  C   UNL     1      30.858 -23.267 -14.122  0.00  0.00    -0.077 C 
ATOM     28  C   UNL     1      29.886 -24.599 -15.885  0.00  0.00    -0.100 C 
ATOM     29  H   UNL     1      30.503 -22.737 -16.105  0.00  0.00    -0.080 HD
BRANCH  25  30
ATOM     30  C   UNL     1      32.494 -23.758 -17.409  0.00  0.00    +0.117 C 
BRANCH  30  31
ATOM     31  O   UNL     1      31.932 -22.549 -17.883  0.00  0.00    -0.384 OA
ATOM     32  H   UNL     1      31.031 -22.454 -17.538  0.00  0.00    +0.210 HD
ENDBRANCH  30  31
ENDBRANCH  25  30
ENDBRANCH   3  24
BRANCH   5  33
ATOM     33  O   UNL     1      33.375 -24.315 -12.700  0.00  0.00    -0.506 OA
ATOM     34  H   UNL     1      32.714 -23.659 -12.611  0.00  0.00    +0.292 HD
ENDBRANCH   5  33
BRANCH   8  35
ATOM     35  O   UNL     1      38.045 -24.814 -13.343  0.00  0.00    -0.505 OA
ATOM     36  H   UNL     1      38.308 -24.650 -12.458  0.00  0.00    +0.292 HD
ENDBRANCH   8  35
TORSDOF 7
ENDMDL
MODEL 4
REMARK VINA RESULT:      -9.2     12.390     15.539
REMARK  Name = 67409219
REMARK  7 active torsions:
REMARK  status: ('A' for Active; 'I' for Inactive)
REMARK    1  A    between atoms: C_3  and  C_24
REMARK    2  A    between atoms: C_5  and  O_33
REMARK    3  A    between atoms: C_8  and  O_35
REMARK    4  A    between atoms: C_10  and  C_13
REMARK    5  A    between atoms: C_18  and  C_22
REMARK    6  A    between atoms: C_25  and  C_30
REMARK    7  A    between atoms: C_30  and  O_31
REMARK                            x       y       z     vdW  Elec       q    Type
REMARK                         _______ _______ _______ _____ _____    ______ ____
ROOT
ATOM      1  O   UNL     1      32.268 -10.454 -23.177  0.00  0.00    -0.453 OA
ATOM      2  O   UNL     1      31.734 -11.887 -19.400  0.00  0.00    -0.286 OA
ATOM      3  C   UNL     1      32.837 -12.597 -23.990  0.00  0.00    +0.044 C 
ATOM      4  C   UNL     1      32.462 -11.787 -22.917  0.00  0.00    +0.150 C 
ATOM      5  C   UNL     1      33.048 -13.961 -23.788  0.00  0.00    +0.135 C 
ATOM      6  C   UNL     1      32.299 -12.343 -21.649  0.00  0.00    +0.107 C 
ATOM      7  C   UNL     1      32.885 -14.514 -22.518  0.00  0.00    +0.073 C 
ATOM      8  C   UNL     1      32.509 -13.708 -21.443  0.00  0.00    +0.143 C 
ATOM      9  C   UNL     1      31.900 -11.466 -20.536  0.00  0.00    +0.205 C 
ATOM     10  C   UNL     1      31.903  -9.624 -22.128  0.00  0.00    +0.149 C 
ATOM     11  C   UNL     1      31.708 -10.040 -20.866  0.00  0.00    +0.080 C 
ENDROOT
BRANCH  10  13
ATOM     12 CL   UNL     1      32.724  -7.425 -20.098  0.00  0.00    -0.082 Cl
ATOM     13  C   UNL     1      31.717  -8.211 -22.517  0.00  0.00    +0.045 C 
ATOM     14  C   UNL     1      32.056  -7.156 -21.670  0.00  0.00    +0.061 C 
ATOM     15  C   UNL     1      31.184  -7.949 -23.779  0.00  0.00    +0.004 C 
ATOM     16  C   UNL     1      31.860  -5.838 -22.085  0.00  0.00    +0.015 C 
ATOM     17  C   UNL     1      30.988  -6.631 -24.193  0.00  0.00    +0.004 C 
ATOM     18  C   UNL     1      31.327  -5.576 -23.347  0.00  0.00    +0.072 C 
BRANCH  18  22
ATOM     19  F   UNL     1      30.215  -4.068 -24.811  0.00  0.00    -0.166 F 
ATOM     20  F   UNL     1      30.658  -3.343 -22.809  0.00  0.00    -0.166 F 
ATOM     21  F   UNL     1      32.257  -3.569 -24.255  0.00  0.00    -0.166 F 
ATOM     22  C   UNL     1      31.120  -4.169 -23.794  0.00  0.00    +0.419 C 
ENDBRANCH  18  22
ENDBRANCH  10  13
BRANCH   3  24
ATOM     23  N   UNL     1      34.588 -11.825 -27.120  0.00  0.00    +0.389 N 
ATOM     24  C   UNL     1      33.016 -12.004 -25.371  0.00  0.00    +0.010 C 
ATOM     25  C   UNL     1      34.478 -11.599 -25.670  0.00  0.00    -0.024 C 
ATOM     26  C   UNL     1      32.629 -12.951 -26.518  0.00  0.00    -0.020 C 
ATOM     27  C   UNL     1      33.888 -13.090 -27.358  0.00  0.00    -0.077 C 
ATOM     28  C   UNL     1      35.966 -11.885 -27.592  0.00  0.00    -0.100 C 
ATOM     29  H   UNL     1      34.180 -11.047 -27.638  0.00  0.00    -0.080 HD
BRANCH  25  30
ATOM     30  C   UNL     1      34.755 -10.150 -25.278  0.00  0.00    +0.117 C 
BRANCH  30  31
ATOM     31  O   UNL     1      35.326 -10.134 -23.983  0.00  0.00    -0.384 OA
ATOM     32  H   UNL     1      35.416 -11.043 -23.657  0.00  0.00    +0.210 HD
ENDBRANCH  30  31
ENDBRANCH  25  30
ENDBRANCH   3  24
BRANCH   5  33
ATOM     33  O   UNL     1      33.419 -14.769 -24.821  0.00  0.00    -0.506 OA
ATOM     34  H   UNL     1      32.886 -15.502 -25.057  0.00  0.00    +0.292 HD
ENDBRANCH   5  33
BRANCH   8  35
ATOM     35  O   UNL     1      32.363 -14.298 -20.225  0.00  0.00    -0.505 OA
ATOM     36  H   UNL     1      32.882 -14.009 -19.500  0.00  0.00    +0.292 HD
ENDBRANCH   8  35
TORSDOF 7
ENDMDL
MODEL 5
REMARK VINA RESULT:      -9.1     11.244     14.543
REMARK  Name = 67409219
REMARK  7 active torsions:
REMARK  status: ('A' for Active; 'I' for Inactive)
REMARK    1  A    between atoms: C_3  and  C_24
REMARK    2  A    between atoms: C_5  and  O_33
REMARK    3  A    between atoms: C_8  and  O_35
REMARK    4  A    between atoms: C_10  and  C_13
REMARK    5  A    between atoms: C_18  and  C_22
REMARK    6  A    between atoms: C_25  and  C_30
REMARK    7  A    between atoms: C_30  and  O_31
REMARK                            x       y       z     vdW  Elec       q    Type
REMARK                         _______ _______ _______ _____ _____    ______ ____
ROOT
ATOM      1  O   UNL     1      32.809 -11.597 -23.090  0.00  0.00    -0.453 OA
ATOM      2  O   UNL     1      31.511 -12.193 -19.274  0.00  0.00    -0.286 OA
ATOM      3  C   UNL     1      33.437 -13.864 -23.309  0.00  0.00    +0.044 C 
ATOM      4  C   UNL     1      32.897 -12.844 -22.524  0.00  0.00    +0.150 C 
ATOM      5  C   UNL     1      33.553 -15.152 -22.789  0.00  0.00    +0.135 C 
ATOM      6  C   UNL     1      32.474 -13.117 -21.224  0.00  0.00    +0.107 C 
ATOM      7  C   UNL     1      33.130 -15.423 -21.487  0.00  0.00    +0.073 C 
ATOM      8  C   UNL     1      32.588 -14.406 -20.699  0.00  0.00    +0.143 C 
ATOM      9  C   UNL     1      31.906 -12.024 -20.419  0.00  0.00    +0.205 C 
ATOM     10  C   UNL     1      32.284 -10.564 -22.330  0.00  0.00    +0.149 C 
ATOM     11  C   UNL     1      31.836 -10.701 -21.072  0.00  0.00    +0.080 C 
ENDROOT
BRANCH  10  13
ATOM     12 CL   UNL     1      34.904  -9.472 -23.587  0.00  0.00    -0.082 Cl
ATOM     13  C   UNL     1      32.231  -9.267 -23.036  0.00  0.00    +0.045 C 
ATOM     14  C   UNL     1      33.358  -8.697 -23.629  0.00  0.00    +0.061 C 
ATOM     15  C   UNL     1      31.003  -8.610 -23.097  0.00  0.00    +0.004 C 
ATOM     16  C   UNL     1      33.256  -7.469 -24.284  0.00  0.00    +0.015 C 
ATOM     17  C   UNL     1      30.901  -7.381 -23.751  0.00  0.00    +0.004 C 
ATOM     18  C   UNL     1      32.027  -6.812 -24.345  0.00  0.00    +0.072 C 
BRANCH  18  22
ATOM     19  F   UNL     1      30.618  -5.138 -25.277  0.00  0.00    -0.166 F 
ATOM     20  F   UNL     1      32.470  -4.461 -24.357  0.00  0.00    -0.166 F 
ATOM     21  F   UNL     1      32.523  -5.482 -26.270  0.00  0.00    -0.166 F 
ATOM     22  C   UNL     1      31.914  -5.501 -25.047  0.00  0.00    +0.419 C 
ENDBRANCH  18  22
ENDBRANCH  10  13
BRANCH   3  24
ATOM     23  N   UNL     1      33.101 -12.855 -26.821  0.00  0.00    +0.389 N 
ATOM     24  C   UNL     1      33.899 -13.578 -24.723  0.00  0.00    +0.010 C 
ATOM     25  C   UNL     1      32.808 -13.856 -25.782  0.00  0.00    -0.024 C 
ATOM     26  C   UNL     1      34.320 -12.120 -24.965  0.00  0.00    -0.020 C 
ATOM     27  C   UNL     1      33.416 -11.628 -26.083  0.00  0.00    -0.077 C 
ATOM     28  C   UNL     1      31.998 -12.647 -27.751  0.00  0.00    -0.100 C 
ATOM     29  H   UNL     1      33.873 -13.166 -27.413  0.00  0.00    -0.080 HD
BRANCH  25  30
ATOM     30  C   UNL     1      32.881 -15.288 -26.307  0.00  0.00    +0.117 C 
BRANCH  30  31
ATOM     31  O   UNL     1      34.225 -15.728 -26.230  0.00  0.00    -0.384 OA
ATOM     32  H   UNL     1      34.504 -16.069 -27.094  0.00  0.00    +0.210 HD
ENDBRANCH  30  31
ENDBRANCH  25  30
ENDBRANCH   3  24
BRANCH   5  33
ATOM     33  O   UNL     1      34.081 -16.162 -23.537  0.00  0.00    -0.506 OA
ATOM     34  H   UNL     1      34.998 -16.346 -23.493  0.00  0.00    +0.292 HD
ENDBRANCH   5  33
BRANCH   8  35
ATOM     35  O   UNL     1      32.189 -14.723 -19.437  0.00  0.00    -0.505 OA
ATOM     36  H   UNL     1      31.298 -14.590 -19.180  0.00  0.00    +0.292 HD
ENDBRANCH   8  35
TORSDOF 7
ENDMDL
MODEL 6
REMARK VINA RESULT:      -8.5     12.512     15.466
REMARK  Name = 67409219
REMARK  7 active torsions:
REMARK  status: ('A' for Active; 'I' for Inactive)
REMARK    1  A    between atoms: C_3  and  C_24
REMARK    2  A    between atoms: C_5  and  O_33
REMARK    3  A    between atoms: C_8  and  O_35
REMARK    4  A    between atoms: C_10  and  C_13
REMARK    5  A    between atoms: C_18  and  C_22
REMARK    6  A    between atoms: C_25  and  C_30
REMARK    7  A    between atoms: C_30  and  O_31
REMARK                            x       y       z     vdW  Elec       q    Type
REMARK                         _______ _______ _______ _____ _____    ______ ____
ROOT
ATOM      1  O   UNL     1      33.089 -10.106 -23.104  0.00  0.00    -0.453 OA
ATOM      2  O   UNL     1      31.202  -9.301 -19.584  0.00  0.00    -0.286 OA
ATOM      3  C   UNL     1      33.183 -12.414 -22.613  0.00  0.00    +0.044 C 
ATOM      4  C   UNL     1      32.803 -11.126 -22.232  0.00  0.00    +0.150 C 
ATOM      5  C   UNL     1      32.919 -13.492 -21.768  0.00  0.00    +0.135 C 
ATOM      6  C   UNL     1      32.162 -10.921 -21.011  0.00  0.00    +0.107 C 
ATOM      7  C   UNL     1      32.278 -13.285 -20.546  0.00  0.00    +0.073 C 
ATOM      8  C   UNL     1      31.897 -11.998 -20.163  0.00  0.00    +0.143 C 
ATOM      9  C   UNL     1      31.771  -9.553 -20.637  0.00  0.00    +0.205 C 
ATOM     10  C   UNL     1      32.731  -8.815 -22.749  0.00  0.00    +0.149 C 
ATOM     11  C   UNL     1      32.104  -8.491 -21.607  0.00  0.00    +0.080 C 
ENDROOT
BRANCH  10  13
ATOM     12 CL   UNL     1      30.454  -7.043 -23.893  0.00  0.00    -0.082 Cl
ATOM     13  C   UNL     1      33.081  -7.795 -23.758  0.00  0.00    +0.045 C 
ATOM     14  C   UNL     1      32.125  -6.956 -24.330  0.00  0.00    +0.061 C 
ATOM     15  C   UNL     1      34.419  -7.688 -24.137  0.00  0.00    +0.004 C 
ATOM     16  C   UNL     1      32.507  -6.009 -25.281  0.00  0.00    +0.015 C 
ATOM     17  C   UNL     1      34.801  -6.742 -25.089  0.00  0.00    +0.004 C 
ATOM     18  C   UNL     1      33.845  -5.902 -25.660  0.00  0.00    +0.072 C 
BRANCH  18  22
ATOM     19  F   UNL     1      35.608  -4.860 -26.869  0.00  0.00    -0.166 F 
ATOM     20  F   UNL     1      33.712  -5.097 -27.909  0.00  0.00    -0.166 F 
ATOM     21  F   UNL     1      33.907  -3.611 -26.342  0.00  0.00    -0.166 F 
ATOM     22  C   UNL     1      34.257  -4.888 -26.673  0.00  0.00    +0.419 C 
ENDBRANCH  18  22
ENDBRANCH  10  13
BRANCH   3  24
ATOM     23  N   UNL     1      33.467 -12.721 -26.258  0.00  0.00    +0.389 N 
ATOM     24  C   UNL     1      33.879 -12.648 -23.937  0.00  0.00    +0.010 C 
ATOM     25  C   UNL     1      32.956 -13.289 -24.999  0.00  0.00    -0.024 C 
ATOM     26  C   UNL     1      34.414 -11.369 -24.601  0.00  0.00    -0.020 C 
ATOM     27  C   UNL     1      33.728 -11.311 -25.955  0.00  0.00    -0.077 C 
ATOM     28  C   UNL     1      32.539 -12.862 -27.373  0.00  0.00    -0.100 C 
ATOM     29  H   UNL     1      34.304 -13.218 -26.564  0.00  0.00    -0.080 HD
BRANCH  25  30
ATOM     30  C   UNL     1      33.032 -14.813 -24.968  0.00  0.00    +0.117 C 
BRANCH  30  31
ATOM     31  O   UNL     1      34.338 -15.192 -24.575  0.00  0.00    -0.384 OA
ATOM     32  H   UNL     1      34.742 -15.733 -25.271  0.00  0.00    +0.210 HD
ENDBRANCH  30  31
ENDBRANCH  25  30
ENDBRANCH   3  24
BRANCH   5  33
ATOM     33  O   UNL     1      33.285 -14.758 -22.118  0.00  0.00    -0.506 OA
ATOM     34  H   UNL     1      32.664 -15.328 -22.527  0.00  0.00    +0.292 HD
ENDBRANCH   5  33
BRANCH   8  35
ATOM     35  O   UNL     1      31.274 -11.850 -18.962  0.00  0.00    -0.505 OA
ATOM     36  H   UNL     1      30.894 -11.025 -18.730  0.00  0.00    +0.292 HD
ENDBRANCH   8  35
TORSDOF 7
ENDMDL
MODEL 7
REMARK VINA RESULT:      -8.4      2.239      4.817
REMARK  Name = 67409219
REMARK  7 active torsions:
REMARK  status: ('A' for Active; 'I' for Inactive)
REMARK    1  A    between atoms: C_3  and  C_24
REMARK    2  A    between atoms: C_5  and  O_33
REMARK    3  A    between atoms: C_8  and  O_35
REMARK    4  A    between atoms: C_10  and  C_13
REMARK    5  A    between atoms: C_18  and  C_22
REMARK    6  A    between atoms: C_25  and  C_30
REMARK    7  A    between atoms: C_30  and  O_31
REMARK                            x       y       z     vdW  Elec       q    Type
REMARK                         _______ _______ _______ _____ _____    ______ ____
ROOT
ATOM      1  O   UNL     1      34.412 -22.658 -16.988  0.00  0.00    -0.453 OA
ATOM      2  O   UNL     1      37.934 -23.085 -14.986  0.00  0.00    -0.286 OA
ATOM      3  C   UNL     1      33.238 -23.868 -15.333  0.00  0.00    +0.044 C 
ATOM      4  C   UNL     1      34.445 -23.345 -15.801  0.00  0.00    +0.150 C 
ATOM      5  C   UNL     1      33.209 -24.576 -14.132  0.00  0.00    +0.135 C 
ATOM      6  C   UNL     1      35.615 -23.530 -15.066  0.00  0.00    +0.107 C 
ATOM      7  C   UNL     1      34.381 -24.760 -13.399  0.00  0.00    +0.073 C 
ATOM      8  C   UNL     1      35.589 -24.238 -13.862  0.00  0.00    +0.143 C 
ATOM      9  C   UNL     1      36.872 -22.965 -15.580  0.00  0.00    +0.205 C 
ATOM     10  C   UNL     1      35.597 -22.135 -17.481  0.00  0.00    +0.149 C 
ATOM     11  C   UNL     1      36.785 -22.239 -16.863  0.00  0.00    +0.080 C 
ENDROOT
BRANCH  10  13
ATOM     12 CL   UNL     1      32.811 -22.135 -18.847  0.00  0.00    -0.082 Cl
ATOM     13  C   UNL     1      35.448 -21.413 -18.761  0.00  0.00    +0.045 C 
ATOM     14  C   UNL     1      34.236 -21.361 -19.448  0.00  0.00    +0.061 C 
ATOM     15  C   UNL     1      36.573 -20.771 -19.280  0.00  0.00    +0.004 C 
ATOM     16  C   UNL     1      34.147 -20.666 -20.655  0.00  0.00    +0.015 C 
ATOM     17  C   UNL     1      36.484 -20.077 -20.487  0.00  0.00    +0.004 C 
ATOM     18  C   UNL     1      35.271 -20.024 -21.174  0.00  0.00    +0.072 C 
BRANCH  18  22
ATOM     19  F   UNL     1      34.141 -18.391 -22.481  0.00  0.00    -0.166 F 
ATOM     20  F   UNL     1      36.295 -18.542 -22.749  0.00  0.00    -0.166 F 
ATOM     21  F   UNL     1      34.995 -20.083 -23.548  0.00  0.00    -0.166 F 
ATOM     22  C   UNL     1      35.179 -19.277 -22.461  0.00  0.00    +0.419 C 
ENDBRANCH  18  22
ENDBRANCH  10  13
BRANCH   3  24
ATOM     23  N   UNL     1      29.637 -23.387 -15.845  0.00  0.00    +0.389 N 
ATOM     24  C   UNL     1      31.962 -23.672 -16.124  0.00  0.00    +0.010 C 
ATOM     25  C   UNL     1      30.724 -24.291 -15.434  0.00  0.00    -0.024 C 
ATOM     26  C   UNL     1      31.586 -22.200 -16.357  0.00  0.00    -0.020 C 
ATOM     27  C   UNL     1      30.207 -22.041 -15.739  0.00  0.00    -0.077 C 
ATOM     28  C   UNL     1      28.436 -23.520 -15.030  0.00  0.00    -0.100 C 
ATOM     29  H   UNL     1      29.324 -23.607 -16.791  0.00  0.00    -0.080 HD
BRANCH  25  30
ATOM     30  C   UNL     1      30.490 -25.732 -15.880  0.00  0.00    +0.117 C 
BRANCH  30  31
ATOM     31  O   UNL     1      29.877 -26.439 -14.818  0.00  0.00    -0.384 OA
ATOM     32  H   UNL     1      30.271 -26.165 -13.975  0.00  0.00    +0.210 HD
ENDBRANCH  30  31
ENDBRANCH  25  30
ENDBRANCH   3  24
BRANCH   5  33
ATOM     33  O   UNL     1      32.042 -25.098 -13.659  0.00  0.00    -0.506 OA
ATOM     34  H   UNL     1      31.739 -24.869 -12.804  0.00  0.00    +0.292 HD
ENDBRANCH   5  33
BRANCH   8  35
ATOM     35  O   UNL     1      36.704 -24.445 -13.108  0.00  0.00    -0.505 OA
ATOM     36  H   UNL     1      37.235 -23.718 -12.849  0.00  0.00    +0.292 HD
ENDBRANCH   8  35
TORSDOF 7
ENDMDL
MODEL 8
REMARK VINA RESULT:      -8.4     11.688     15.494
REMARK  Name = 67409219
REMARK  7 active torsions:
REMARK  status: ('A' for Active; 'I' for Inactive)
REMARK    1  A    between atoms: C_3  and  C_24
REMARK    2  A    between atoms: C_5  and  O_33
REMARK    3  A    between atoms: C_8  and  O_35
REMARK    4  A    between atoms: C_10  and  C_13
REMARK    5  A    between atoms: C_18  and  C_22
REMARK    6  A    between atoms: C_25  and  C_30
REMARK    7  A    between atoms: C_30  and  O_31
REMARK                            x       y       z     vdW  Elec       q    Type
REMARK                         _______ _______ _______ _____ _____    ______ ____
ROOT
ATOM      1  O   UNL     1      32.581 -10.464 -22.386  0.00  0.00    -0.453 OA
ATOM      2  O   UNL     1      31.382 -10.880 -18.514  0.00  0.00    -0.286 OA
ATOM      3  C   UNL     1      32.463  -8.109 -22.248  0.00  0.00    +0.044 C 
ATOM      4  C   UNL     1      32.307  -9.352 -21.631  0.00  0.00    +0.150 C 
ATOM      5  C   UNL     1      32.199  -6.942 -21.532  0.00  0.00    +0.135 C 
ATOM      6  C   UNL     1      31.891  -9.422 -20.303  0.00  0.00    +0.107 C 
ATOM      7  C   UNL     1      31.783  -7.015 -20.203  0.00  0.00    +0.073 C 
ATOM      8  C   UNL     1      31.627  -8.255 -19.582  0.00  0.00    +0.143 C 
ATOM      9  C   UNL     1      31.738 -10.744 -19.676  0.00  0.00    +0.205 C 
ATOM     10  C   UNL     1      32.427 -11.712 -21.801  0.00  0.00    +0.149 C 
ATOM     11  C   UNL     1      32.041 -11.910 -20.531  0.00  0.00    +0.080 C 
ENDROOT
BRANCH  10  13
ATOM     12 CL   UNL     1      32.587 -14.560 -20.578  0.00  0.00    -0.082 Cl
ATOM     13  C   UNL     1      32.750 -12.839 -22.699  0.00  0.00    +0.045 C 
ATOM     14  C   UNL     1      32.846 -14.153 -22.239  0.00  0.00    +0.061 C 
ATOM     15  C   UNL     1      32.964 -12.555 -24.048  0.00  0.00    +0.004 C 
ATOM     16  C   UNL     1      33.155 -15.183 -23.128  0.00  0.00    +0.015 C 
ATOM     17  C   UNL     1      33.273 -13.585 -24.937  0.00  0.00    +0.004 C 
ATOM     18  C   UNL     1      33.368 -14.899 -24.477  0.00  0.00    +0.072 C 
BRANCH  18  22
ATOM     19  F   UNL     1      32.809 -16.076 -26.466  0.00  0.00    -0.166 F 
ATOM     20  F   UNL     1      34.926 -15.872 -26.010  0.00  0.00    -0.166 F 
ATOM     21  F   UNL     1      33.698 -17.237 -24.856  0.00  0.00    -0.166 F 
ATOM     22  C   UNL     1      33.695 -15.998 -25.431  0.00  0.00    +0.419 C 
ENDBRANCH  18  22
ENDBRANCH  10  13
BRANCH   3  24
ATOM     23  N   UNL     1      33.645  -6.472 -25.311  0.00  0.00    +0.389 N 
ATOM     24  C   UNL     1      32.915  -8.022 -23.691  0.00  0.00    +0.010 C 
ATOM     25  C   UNL     1      32.540  -6.679 -24.360  0.00  0.00    -0.024 C 
ATOM     26  C   UNL     1      34.435  -8.146 -23.882  0.00  0.00    -0.020 C 
ATOM     27  C   UNL     1      34.852  -6.861 -24.577  0.00  0.00    -0.077 C 
ATOM     28  C   UNL     1      33.738  -5.101 -25.798  0.00  0.00    -0.100 C 
ATOM     29  H   UNL     1      33.503  -7.028 -26.155  0.00  0.00    -0.080 HD
BRANCH  25  30
ATOM     30  C   UNL     1      31.179  -6.751 -25.047  0.00  0.00    +0.117 C 
BRANCH  30  31
ATOM     31  O   UNL     1      30.411  -5.631 -24.643  0.00  0.00    -0.384 OA
ATOM     32  H   UNL     1      30.702  -4.846 -25.133  0.00  0.00    +0.210 HD
ENDBRANCH  30  31
ENDBRANCH  25  30
ENDBRANCH   3  24
BRANCH   5  33
ATOM     33  O   UNL     1      32.341  -5.719 -22.116  0.00  0.00    -0.506 OA
ATOM     34  H   UNL     1      33.041  -5.566 -22.720  0.00  0.00    +0.292 HD
ENDBRANCH   5  33
BRANCH   8  35
ATOM     35  O   UNL     1      31.219  -8.271 -18.283  0.00  0.00    -0.505 OA
ATOM     36  H   UNL     1      31.608  -8.871 -17.678  0.00  0.00    +0.292 HD
ENDBRANCH   8  35
TORSDOF 7
ENDMDL
MODEL 9
REMARK VINA RESULT:      -8.3     10.611     13.985
REMARK  Name = 67409219
REMARK  7 active torsions:
REMARK  status: ('A' for Active; 'I' for Inactive)
REMARK    1  A    between atoms: C_3  and  C_24
REMARK    2  A    between atoms: C_5  and  O_33
REMARK    3  A    between atoms: C_8  and  O_35
REMARK    4  A    between atoms: C_10  and  C_13
REMARK    5  A    between atoms: C_18  and  C_22
REMARK    6  A    between atoms: C_25  and  C_30
REMARK    7  A    between atoms: C_30  and  O_31
REMARK                            x       y       z     vdW  Elec       q    Type
REMARK                         _______ _______ _______ _____ _____    ______ ____
ROOT
ATOM      1  O   UNL     1      32.839 -11.812 -22.602  0.00  0.00    -0.453 OA
ATOM      2  O   UNL     1      31.550 -11.924 -18.739  0.00  0.00    -0.286 OA
ATOM      3  C   UNL     1      32.480  -9.481 -22.733  0.00  0.00    +0.044 C 
ATOM      4  C   UNL     1      32.428 -10.658 -21.984  0.00  0.00    +0.150 C 
ATOM      5  C   UNL     1      32.075  -8.276 -22.159  0.00  0.00    +0.135 C 
ATOM      6  C   UNL     1      31.974 -10.625 -20.667  0.00  0.00    +0.107 C 
ATOM      7  C   UNL     1      31.621  -8.246 -20.841  0.00  0.00    +0.073 C 
ATOM      8  C   UNL     1      31.568  -9.421 -20.089  0.00  0.00    +0.143 C 
ATOM      9  C   UNL     1      31.932 -11.880 -19.900  0.00  0.00    +0.205 C 
ATOM     10  C   UNL     1      32.791 -12.998 -21.885  0.00  0.00    +0.149 C 
ATOM     11  C   UNL     1      32.381 -13.094 -20.610  0.00  0.00    +0.080 C 
ENDROOT
BRANCH  10  13
ATOM     12 CL   UNL     1      34.429 -15.156 -20.371  0.00  0.00    -0.082 Cl
ATOM     13  C   UNL     1      33.258 -14.176 -22.642  0.00  0.00    +0.045 C 
ATOM     14  C   UNL     1      34.002 -15.196 -22.047  0.00  0.00    +0.061 C 
ATOM     15  C   UNL     1      32.931 -14.250 -23.996  0.00  0.00    +0.004 C 
ATOM     16  C   UNL     1      34.420 -16.289 -22.807  0.00  0.00    +0.015 C 
ATOM     17  C   UNL     1      33.350 -15.343 -24.756  0.00  0.00    +0.004 C 
ATOM     18  C   UNL     1      34.094 -16.363 -24.161  0.00  0.00    +0.072 C 
BRANCH  18  22
ATOM     19  F   UNL     1      35.365 -17.176 -25.998  0.00  0.00    -0.166 F 
ATOM     20  F   UNL     1      35.223 -18.470 -24.256  0.00  0.00    -0.166 F 
ATOM     21  F   UNL     1      33.506 -18.214 -25.556  0.00  0.00    -0.166 F 
ATOM     22  C   UNL     1      34.536 -17.532 -24.974  0.00  0.00    +0.419 C 
ENDBRANCH  18  22
ENDBRANCH  10  13
BRANCH   3  24
ATOM     23  N   UNL     1      34.864 -10.050 -25.463  0.00  0.00    +0.389 N 
ATOM     24  C   UNL     1      32.972  -9.506 -24.165  0.00  0.00    +0.010 C 
ATOM     25  C   UNL     1      34.492  -9.249 -24.285  0.00  0.00    -0.024 C 
ATOM     26  C   UNL     1      32.741 -10.843 -24.887  0.00  0.00    -0.020 C 
ATOM     27  C   UNL     1      34.124 -11.306 -25.314  0.00  0.00    -0.077 C 
ATOM     28  C   UNL     1      36.299 -10.289 -25.570  0.00  0.00    -0.100 C 
ATOM     29  H   UNL     1      34.628  -9.555 -26.324  0.00  0.00    -0.080 HD
BRANCH  25  30
ATOM     30  C   UNL     1      34.803  -7.765 -24.461  0.00  0.00    +0.117 C 
BRANCH  30  31
ATOM     31  O   UNL     1      35.236  -7.245 -23.217  0.00  0.00    -0.384 OA
ATOM     32  H   UNL     1      36.076  -7.660 -22.968  0.00  0.00    +0.210 HD
ENDBRANCH  30  31
ENDBRANCH  25  30
ENDBRANCH   3  24
BRANCH   5  33
ATOM     33  O   UNL     1      32.114  -7.116 -22.874  0.00  0.00    -0.506 OA
ATOM     34  H   UNL     1      31.714  -6.342 -22.531  0.00  0.00    +0.292 HD
ENDBRANCH   5  33
BRANCH   8  35
ATOM     35  O   UNL     1      31.117  -9.336 -18.807  0.00  0.00    -0.505 OA
ATOM     36  H   UNL     1      30.640  -8.579 -18.528  0.00  0.00    +0.292 HD
ENDBRANCH   8  35
TORSDOF 7
ENDMDL
