MODEL 1
REMARK VINA RESULT:     -10.7      0.000      0.000
REMARK  Name = 6918324
REMARK  4 active torsions:
REMARK  status: ('A' for Active; 'I' for Inactive)
REMARK    1  A    between atoms: C_3  and  O_28
REMARK    2  A    between atoms: C_4  and  N_14
REMARK    3  A    between atoms: C_11  and  C_26
REMARK    4  A    between atoms: C_15  and  C_19
REMARK                            x       y       z     vdW  Elec       q    Type
REMARK                         _______ _______ _______ _____ _____    ______ ____
ROOT
ATOM      1  O   UNL     1      31.225 -24.167 -14.232  0.00  0.00    -0.480 OA
ATOM      2  C   UNL     1      30.388 -24.324 -15.395  0.00  0.00    +0.160 C 
ATOM      3  C   UNL     1      30.760 -23.317 -16.502  0.00  0.00    +0.169 C 
ATOM      4  C   UNL     1      32.232 -23.456 -16.907  0.00  0.00    +0.128 C 
ATOM      5  C   UNL     1      33.108 -23.568 -15.682  0.00  0.00    +0.032 C 
ATOM      6  C   UNL     1      32.556 -23.918 -14.442  0.00  0.00    +0.136 C 
ATOM      7  C   UNL     1      30.477 -25.783 -15.873  0.00  0.00    +0.046 C 
ATOM      8  C   UNL     1      28.951 -24.072 -14.903  0.00  0.00    +0.046 C 
ATOM      9  C   UNL     1      34.498 -23.382 -15.769  0.00  0.00    +0.003 C 
ATOM     10  C   UNL     1      33.368 -24.021 -13.308  0.00  0.00    +0.037 C 
ATOM     11  C   UNL     1      35.307 -23.496 -14.637  0.00  0.00    +0.035 C 
ATOM     12  C   UNL     1      34.742 -23.809 -13.405  0.00  0.00    +0.006 C 
ENDROOT
BRANCH   4  14
ATOM     13  O   UNL     1      33.950 -23.659 -19.196  0.00  0.00    -0.270 OA
ATOM     14  N   UNL     1      32.619 -22.381 -17.792  0.00  0.00    -0.296 N 
ATOM     15  C   UNL     1      33.459 -22.579 -18.876  0.00  0.00    +0.246 C 
ATOM     16  H   UNL     1      32.275 -21.476 -17.617  0.00  0.00    +0.150 HD
BRANCH  15  19
ATOM     17 CL   UNL     1      37.054 -19.412 -20.808  0.00  0.00    -0.080 Cl
ATOM     18  F   UNL     1      34.661 -18.025 -21.876  0.00  0.00    -0.203 F 
ATOM     19  C   UNL     1      33.783 -21.368 -19.673  0.00  0.00    +0.054 C 
ATOM     20  C   UNL     1      35.106 -21.014 -19.838  0.00  0.00    +0.018 C 
ATOM     21  C   UNL     1      32.751 -20.637 -20.223  0.00  0.00    +0.007 C 
ATOM     22  C   UNL     1      35.411 -19.877 -20.587  0.00  0.00    +0.085 C 
ATOM     23  C   UNL     1      33.055 -19.500 -20.971  0.00  0.00    +0.031 C 
ATOM     24  C   UNL     1      34.385 -19.119 -21.153  0.00  0.00    +0.151 C 
ENDBRANCH  15  19
ENDBRANCH   4  14
BRANCH  11  26
ATOM     25  O   UNL     1      37.510 -23.533 -13.795  0.00  0.00    -0.291 OA
ATOM     26  C   UNL     1      36.742 -23.288 -14.746  0.00  0.00    +0.173 C 
ATOM     27  C   UNL     1      37.346 -22.758 -16.042  0.00  0.00    +0.077 C 
ENDBRANCH  11  26
BRANCH   3  28
ATOM     28  O   UNL     1      30.518 -21.990 -16.020  0.00  0.00    -0.379 OA
ATOM     29  H   UNL     1      31.361 -21.576 -15.776  0.00  0.00    +0.211 HD
ENDBRANCH   3  28
TORSDOF 4
ENDMDL
MODEL 2
REMARK VINA RESULT:     -10.7      1.794      2.342
REMARK  Name = 6918324
REMARK  4 active torsions:
REMARK  status: ('A' for Active; 'I' for Inactive)
REMARK    1  A    between atoms: C_3  and  O_28
REMARK    2  A    between atoms: C_4  and  N_14
REMARK    3  A    between atoms: C_11  and  C_26
REMARK    4  A    between atoms: C_15  and  C_19
REMARK                            x       y       z     vdW  Elec       q    Type
REMARK                         _______ _______ _______ _____ _____    ______ ____
ROOT
ATOM      1  O   UNL     1      32.986 -24.149 -12.875  0.00  0.00    -0.480 OA
ATOM      2  C   UNL     1      31.956 -24.101 -13.882  0.00  0.00    +0.160 C 
ATOM      3  C   UNL     1      32.375 -23.227 -15.081  0.00  0.00    +0.169 C 
ATOM      4  C   UNL     1      33.680 -23.732 -15.706  0.00  0.00    +0.128 C 
ATOM      5  C   UNL     1      34.692 -24.050 -14.631  0.00  0.00    +0.032 C 
ATOM      6  C   UNL     1      34.284 -24.242 -13.304  0.00  0.00    +0.136 C 
ATOM      7  C   UNL     1      31.605 -25.539 -14.297  0.00  0.00    +0.046 C 
ATOM      8  C   UNL     1      30.726 -23.494 -13.182  0.00  0.00    +0.046 C 
ATOM      9  C   UNL     1      36.051 -24.217 -14.946  0.00  0.00    +0.003 C 
ATOM     10  C   UNL     1      35.222 -24.537 -12.309  0.00  0.00    +0.037 C 
ATOM     11  C   UNL     1      36.983 -24.522 -13.953  0.00  0.00    +0.035 C 
ATOM     12  C   UNL     1      36.570 -24.675 -12.633  0.00  0.00    +0.006 C 
ENDROOT
BRANCH   4  14
ATOM     13  O   UNL     1      33.523 -24.011 -18.558  0.00  0.00    -0.270 OA
ATOM     14  N   UNL     1      34.167 -22.794 -16.692  0.00  0.00    -0.296 N 
ATOM     15  C   UNL     1      34.046 -23.020 -18.054  0.00  0.00    +0.246 C 
ATOM     16  H   UNL     1      34.603 -21.967 -16.385  0.00  0.00    +0.150 HD
BRANCH  15  19
ATOM     17 CL   UNL     1      33.268 -19.245 -21.494  0.00  0.00    -0.080 Cl
ATOM     18  F   UNL     1      36.226 -19.088 -21.367  0.00  0.00    -0.203 F 
ATOM     19  C   UNL     1      34.621 -21.973 -18.937  0.00  0.00    +0.054 C 
ATOM     20  C   UNL     1      33.769 -21.203 -19.701  0.00  0.00    +0.018 C 
ATOM     21  C   UNL     1      35.990 -21.804 -18.964  0.00  0.00    +0.007 C 
ATOM     22  C   UNL     1      34.310 -20.220 -20.530  0.00  0.00    +0.085 C 
ATOM     23  C   UNL     1      36.531 -20.821 -19.793  0.00  0.00    +0.031 C 
ATOM     24  C   UNL     1      35.691 -20.029 -20.577  0.00  0.00    +0.151 C 
ENDBRANCH  15  19
ENDBRANCH   4  14
BRANCH  11  26
ATOM     25  O   UNL     1      38.923 -23.980 -15.180  0.00  0.00    -0.291 OA
ATOM     26  C   UNL     1      38.387 -24.679 -14.297  0.00  0.00    +0.173 C 
ATOM     27  C   UNL     1      39.243 -25.715 -13.578  0.00  0.00    +0.077 C 
ENDBRANCH  11  26
BRANCH   3  28
ATOM     28  O   UNL     1      32.549 -21.878 -14.632  0.00  0.00    -0.379 OA
ATOM     29  H   UNL     1      33.214 -21.436 -15.184  0.00  0.00    +0.211 HD
ENDBRANCH   3  28
TORSDOF 4
ENDMDL
MODEL 3
REMARK VINA RESULT:      -9.5      3.497      6.340
REMARK  Name = 6918324
REMARK  4 active torsions:
REMARK  status: ('A' for Active; 'I' for Inactive)
REMARK    1  A    between atoms: C_3  and  O_28
REMARK    2  A    between atoms: C_4  and  N_14
REMARK    3  A    between atoms: C_11  and  C_26
REMARK    4  A    between atoms: C_15  and  C_19
REMARK                            x       y       z     vdW  Elec       q    Type
REMARK                         _______ _______ _______ _____ _____    ______ ____
ROOT
ATOM      1  O   UNL     1      37.039 -23.589 -14.237  0.00  0.00    -0.480 OA
ATOM      2  C   UNL     1      36.241 -24.656 -13.691  0.00  0.00    +0.160 C 
ATOM      3  C   UNL     1      34.734 -24.402 -13.900  0.00  0.00    +0.169 C 
ATOM      4  C   UNL     1      34.403 -24.222 -15.387  0.00  0.00    +0.128 C 
ATOM      5  C   UNL     1      35.408 -23.307 -16.045  0.00  0.00    +0.032 C 
ATOM      6  C   UNL     1      36.647 -23.059 -15.438  0.00  0.00    +0.136 C 
ATOM      7  C   UNL     1      36.703 -25.986 -14.310  0.00  0.00    +0.046 C 
ATOM      8  C   UNL     1      36.573 -24.689 -12.188  0.00  0.00    +0.046 C 
ATOM      9  C   UNL     1      35.149 -22.734 -17.301  0.00  0.00    +0.003 C 
ATOM     10  C   UNL     1      37.578 -22.211 -16.049  0.00  0.00    +0.037 C 
ATOM     11  C   UNL     1      36.083 -21.896 -17.912  0.00  0.00    +0.035 C 
ATOM     12  C   UNL     1      37.295 -21.630 -17.283  0.00  0.00    +0.006 C 
ENDROOT
BRANCH   4  14
ATOM     13  O   UNL     1      32.082 -25.344 -14.127  0.00  0.00    -0.270 OA
ATOM     14  N   UNL     1      33.036 -23.786 -15.554  0.00  0.00    -0.296 N 
ATOM     15  C   UNL     1      31.977 -24.396 -14.900  0.00  0.00    +0.246 C 
ATOM     16  H   UNL     1      32.850 -23.029 -16.155  0.00  0.00    +0.150 HD
BRANCH  15  19
ATOM     17 CL   UNL     1      27.569 -24.755 -17.569  0.00  0.00    -0.080 Cl
ATOM     18  F   UNL     1      26.913 -22.320 -16.010  0.00  0.00    -0.203 F 
ATOM     19  C   UNL     1      30.629 -23.847 -15.199  0.00  0.00    +0.054 C 
ATOM     20  C   UNL     1      29.840 -24.488 -16.130  0.00  0.00    +0.018 C 
ATOM     21  C   UNL     1      30.210 -22.713 -14.534  0.00  0.00    +0.007 C 
ATOM     22  C   UNL     1      28.574 -23.973 -16.410  0.00  0.00    +0.085 C 
ATOM     23  C   UNL     1      28.945 -22.197 -14.814  0.00  0.00    +0.031 C 
ATOM     24  C   UNL     1      28.127 -22.827 -15.753  0.00  0.00    +0.151 C 
ENDBRANCH  15  19
ENDBRANCH   4  14
BRANCH  11  26
ATOM     25  O   UNL     1      36.695 -20.845 -19.933  0.00  0.00    -0.291 OA
ATOM     26  C   UNL     1      35.791 -21.303 -19.207  0.00  0.00    +0.173 C 
ATOM     27  C   UNL     1      34.353 -21.228 -19.710  0.00  0.00    +0.077 C 
ENDBRANCH  11  26
BRANCH   3  28
ATOM     28  O   UNL     1      34.360 -23.221 -13.180  0.00  0.00    -0.379 OA
ATOM     29  H   UNL     1      34.141 -22.515 -13.809  0.00  0.00    +0.211 HD
ENDBRANCH   3  28
TORSDOF 4
ENDMDL
MODEL 4
REMARK VINA RESULT:      -8.5      1.876      4.609
REMARK  Name = 6918324
REMARK  4 active torsions:
REMARK  status: ('A' for Active; 'I' for Inactive)
REMARK    1  A    between atoms: C_3  and  O_28
REMARK    2  A    between atoms: C_4  and  N_14
REMARK    3  A    between atoms: C_11  and  C_26
REMARK    4  A    between atoms: C_15  and  C_19
REMARK                            x       y       z     vdW  Elec       q    Type
REMARK                         _______ _______ _______ _____ _____    ______ ____
ROOT
ATOM      1  O   UNL     1      35.412 -25.215 -13.341  0.00  0.00    -0.480 OA
ATOM      2  C   UNL     1      36.617 -24.426 -13.344  0.00  0.00    +0.160 C 
ATOM      3  C   UNL     1      36.731 -23.570 -14.622  0.00  0.00    +0.169 C 
ATOM      4  C   UNL     1      35.515 -22.650 -14.783  0.00  0.00    +0.128 C 
ATOM      5  C   UNL     1      34.238 -23.410 -14.511  0.00  0.00    +0.032 C 
ATOM      6  C   UNL     1      34.269 -24.624 -13.811  0.00  0.00    +0.136 C 
ATOM      7  C   UNL     1      36.655 -23.577 -12.063  0.00  0.00    +0.046 C 
ATOM      8  C   UNL     1      37.772 -25.441 -13.277  0.00  0.00    +0.046 C 
ATOM      9  C   UNL     1      32.992 -22.891 -14.901  0.00  0.00    +0.003 C 
ATOM     10  C   UNL     1      33.085 -25.327 -13.559  0.00  0.00    +0.037 C 
ATOM     11  C   UNL     1      31.813 -23.590 -14.639  0.00  0.00    +0.035 C 
ATOM     12  C   UNL     1      31.860 -24.811 -13.974  0.00  0.00    +0.006 C 
ENDROOT
BRANCH   4  14
ATOM     13  O   UNL     1      34.564 -23.749 -17.258  0.00  0.00    -0.270 OA
ATOM     14  N   UNL     1      35.533 -22.006 -16.077  0.00  0.00    -0.296 N 
ATOM     15  C   UNL     1      35.050 -22.622 -17.219  0.00  0.00    +0.246 C 
ATOM     16  H   UNL     1      35.904 -21.097 -16.148  0.00  0.00    +0.150 HD
BRANCH  15  19
ATOM     17 CL   UNL     1      32.697 -20.157 -21.102  0.00  0.00    -0.080 Cl
ATOM     18  F   UNL     1      35.500 -19.671 -21.940  0.00  0.00    -0.203 F 
ATOM     19  C   UNL     1      35.164 -21.837 -18.476  0.00  0.00    +0.054 C 
ATOM     20  C   UNL     1      34.012 -21.423 -19.110  0.00  0.00    +0.018 C 
ATOM     21  C   UNL     1      36.421 -21.547 -18.967  0.00  0.00    +0.007 C 
ATOM     22  C   UNL     1      34.120 -20.686 -20.290  0.00  0.00    +0.085 C 
ATOM     23  C   UNL     1      36.529 -20.811 -20.146  0.00  0.00    +0.031 C 
ATOM     24  C   UNL     1      35.379 -20.380 -20.808  0.00  0.00    +0.151 C 
ENDBRANCH  15  19
ENDBRANCH   4  14
BRANCH  11  26
ATOM     25  O   UNL     1      29.633 -22.781 -14.239  0.00  0.00    -0.291 OA
ATOM     26  C   UNL     1      30.534 -23.041 -15.061  0.00  0.00    +0.173 C 
ATOM     27  C   UNL     1      30.264 -22.769 -16.537  0.00  0.00    +0.077 C 
ENDBRANCH  11  26
BRANCH   3  28
ATOM     28  O   UNL     1      36.827 -24.440 -15.755  0.00  0.00    -0.379 OA
ATOM     29  H   UNL     1      36.479 -25.316 -15.522  0.00  0.00    +0.211 HD
ENDBRANCH   3  28
TORSDOF 4
ENDMDL
MODEL 5
REMARK VINA RESULT:      -8.2     10.831     14.161
REMARK  Name = 6918324
REMARK  4 active torsions:
REMARK  status: ('A' for Active; 'I' for Inactive)
REMARK    1  A    between atoms: C_3  and  O_28
REMARK    2  A    between atoms: C_4  and  N_14
REMARK    3  A    between atoms: C_11  and  C_26
REMARK    4  A    between atoms: C_15  and  C_19
REMARK                            x       y       z     vdW  Elec       q    Type
REMARK                         _______ _______ _______ _____ _____    ______ ____
ROOT
ATOM      1  O   UNL     1      33.755  -7.261 -22.674  0.00  0.00    -0.480 OA
ATOM      2  C   UNL     1      33.785  -7.591 -24.076  0.00  0.00    +0.160 C 
ATOM      3  C   UNL     1      33.964  -9.107 -24.298  0.00  0.00    +0.169 C 
ATOM      4  C   UNL     1      32.851  -9.904 -23.606  0.00  0.00    +0.128 C 
ATOM      5  C   UNL     1      32.618  -9.381 -22.209  0.00  0.00    +0.032 C 
ATOM      6  C   UNL     1      33.073  -8.108 -21.840  0.00  0.00    +0.136 C 
ATOM      7  C   UNL     1      32.509  -7.048 -24.739  0.00  0.00    +0.046 C 
ATOM      8  C   UNL     1      34.986  -6.822 -24.654  0.00  0.00    +0.046 C 
ATOM      9  C   UNL     1      31.893 -10.133 -21.269  0.00  0.00    +0.003 C 
ATOM     10  C   UNL     1      32.857  -7.625 -20.545  0.00  0.00    +0.037 C 
ATOM     11  C   UNL     1      31.670  -9.643 -19.981  0.00  0.00    +0.035 C 
ATOM     12  C   UNL     1      32.157  -8.392 -19.617  0.00  0.00    +0.006 C 
ENDROOT
BRANCH   4  14
ATOM     13  O   UNL     1      33.372 -11.477 -25.949  0.00  0.00    -0.270 OA
ATOM     14  N   UNL     1      33.139 -11.319 -23.648  0.00  0.00    -0.296 N 
ATOM     15  C   UNL     1      33.377 -11.993 -24.835  0.00  0.00    +0.246 C 
ATOM     16  H   UNL     1      33.166 -11.823 -22.803  0.00  0.00    +0.150 HD
BRANCH  15  19
ATOM     17 CL   UNL     1      34.932 -15.960 -21.914  0.00  0.00    -0.080 Cl
ATOM     18  F   UNL     1      34.324 -17.479 -24.387  0.00  0.00    -0.203 F 
ATOM     19  C   UNL     1      33.631 -13.452 -24.711  0.00  0.00    +0.054 C 
ATOM     20  C   UNL     1      34.103 -13.946 -23.514  0.00  0.00    +0.018 C 
ATOM     21  C   UNL     1      33.384 -14.265 -25.798  0.00  0.00    +0.007 C 
ATOM     22  C   UNL     1      34.342 -15.317 -23.398  0.00  0.00    +0.085 C 
ATOM     23  C   UNL     1      33.623 -15.634 -25.683  0.00  0.00    +0.031 C 
ATOM     24  C   UNL     1      34.102 -16.160 -24.483  0.00  0.00    +0.151 C 
ENDBRANCH  15  19
ENDBRANCH   4  14
BRANCH  11  26
ATOM     25  O   UNL     1      29.742 -10.773 -19.225  0.00  0.00    -0.291 OA
ATOM     26  C   UNL     1      30.927 -10.441 -19.019  0.00  0.00    +0.173 C 
ATOM     27  C   UNL     1      31.588 -10.896 -17.722  0.00  0.00    +0.077 C 
ENDBRANCH  11  26
BRANCH   3  28
ATOM     28  O   UNL     1      35.236  -9.504 -23.772  0.00  0.00    -0.379 OA
ATOM     29  H   UNL     1      35.317 -10.471 -23.817  0.00  0.00    +0.211 HD
ENDBRANCH   3  28
TORSDOF 4
ENDMDL
MODEL 6
REMARK VINA RESULT:      -7.7      9.012     12.797
REMARK  Name = 6918324
REMARK  4 active torsions:
REMARK  status: ('A' for Active; 'I' for Inactive)
REMARK    1  A    between atoms: C_3  and  O_28
REMARK    2  A    between atoms: C_4  and  N_14
REMARK    3  A    between atoms: C_11  and  C_26
REMARK    4  A    between atoms: C_15  and  C_19
REMARK                            x       y       z     vdW  Elec       q    Type
REMARK                         _______ _______ _______ _____ _____    ______ ____
ROOT
ATOM      1  O   UNL     1      34.106 -16.080 -22.202  0.00  0.00    -0.480 OA
ATOM      2  C   UNL     1      33.407 -15.674 -21.009  0.00  0.00    +0.160 C 
ATOM      3  C   UNL     1      33.269 -14.140 -20.928  0.00  0.00    +0.169 C 
ATOM      4  C   UNL     1      32.548 -13.582 -22.160  0.00  0.00    +0.128 C 
ATOM      5  C   UNL     1      33.092 -14.211 -23.421  0.00  0.00    +0.032 C 
ATOM      6  C   UNL     1      33.821 -15.407 -23.361  0.00  0.00    +0.136 C 
ATOM      7  C   UNL     1      32.047 -16.390 -20.967  0.00  0.00    +0.046 C 
ATOM      8  C   UNL     1      34.258 -16.196 -19.838  0.00  0.00    +0.046 C 
ATOM      9  C   UNL     1      32.833 -13.645 -24.680  0.00  0.00    +0.003 C 
ATOM     10  C   UNL     1      34.325 -15.989 -24.529  0.00  0.00    +0.037 C 
ATOM     11  C   UNL     1      33.329 -14.234 -25.845  0.00  0.00    +0.035 C 
ATOM     12  C   UNL     1      34.080 -15.402 -25.769  0.00  0.00    +0.006 C 
ENDROOT
BRANCH   4  14
ATOM     13  O   UNL     1      30.618 -11.787 -21.026  0.00  0.00    -0.270 OA
ATOM     14  N   UNL     1      32.603 -12.138 -22.171  0.00  0.00    -0.296 N 
ATOM     15  C   UNL     1      31.617 -11.354 -21.595  0.00  0.00    +0.246 C 
ATOM     16  H   UNL     1      33.368 -11.696 -22.605  0.00  0.00    +0.150 HD
BRANCH  15  19
ATOM     17 CL   UNL     1      31.223  -7.081 -24.472  0.00  0.00    -0.080 Cl
ATOM     18  F   UNL     1      32.333  -5.832 -22.023  0.00  0.00    -0.203 F 
ATOM     19  C   UNL     1      31.806  -9.885 -21.713  0.00  0.00    +0.054 C 
ATOM     20  C   UNL     1      31.464  -9.263 -22.895  0.00  0.00    +0.018 C 
ATOM     21  C   UNL     1      32.317  -9.191 -20.636  0.00  0.00    +0.007 C 
ATOM     22  C   UNL     1      31.642  -7.883 -23.007  0.00  0.00    +0.085 C 
ATOM     23  C   UNL     1      32.495  -7.812 -20.747  0.00  0.00    +0.031 C 
ATOM     24  C   UNL     1      32.158  -7.158 -21.932  0.00  0.00    +0.151 C 
ENDBRANCH  15  19
ENDBRANCH   4  14
BRANCH  11  26
ATOM     25  O   UNL     1      33.944 -13.535 -28.012  0.00  0.00    -0.291 OA
ATOM     26  C   UNL     1      33.059 -13.627 -27.138  0.00  0.00    +0.173 C 
ATOM     27  C   UNL     1      31.671 -13.082 -27.457  0.00  0.00    +0.077 C 
ENDBRANCH  11  26
BRANCH   3  28
ATOM     28  O   UNL     1      34.576 -13.561 -20.834  0.00  0.00    -0.379 OA
ATOM     29  H   UNL     1      34.975 -13.800 -19.982  0.00  0.00    +0.211 HD
ENDBRANCH   3  28
TORSDOF 4
ENDMDL
