MODEL 1
REMARK VINA RESULT:      -8.8      0.000      0.000
REMARK  Name = 65979
REMARK  1 active torsions:
REMARK  status: ('A' for Active; 'I' for Inactive)
REMARK    1  A    between atoms: C_6  and  N_10
REMARK                            x       y       z     vdW  Elec       q    Type
REMARK                         _______ _______ _______ _____ _____    ______ ____
ROOT
ATOM      1  C   UNL     1      33.055 -19.969 -20.847  0.00  0.00    +0.028 C 
ATOM      2  C   UNL     1      34.540 -19.914 -20.667  0.00  0.00    -0.013 C 
ATOM      3  C   UNL     1      32.646 -20.856 -19.663  0.00  0.00    +0.009 C 
ATOM      4  C   UNL     1      33.830 -21.792 -19.379  0.00  0.00    +0.026 C 
ATOM      5  C   UNL     1      34.979 -20.948 -19.834  0.00  0.00    -0.025 C 
ATOM      6  C   UNL     1      35.437 -19.030 -21.244  0.00  0.00    +0.046 C 
ATOM      7  C   UNL     1      36.326 -21.121 -19.559  0.00  0.00    -0.004 C 
ATOM      8  C   UNL     1      36.795 -19.189 -20.962  0.00  0.00    +0.014 C 
ATOM      9  C   UNL     1      37.236 -20.227 -20.126  0.00  0.00    +0.001 C 
ENDROOT
BRANCH   6  10
ATOM     10  N   UNL     1      35.005 -17.998 -22.095  0.00  0.00    -0.286 N 
ATOM     11  N   UNL     1      34.362 -15.885 -22.783  0.00  0.00    -0.284 N 
ATOM     12  N   UNL     1      34.910 -16.153 -20.597  0.00  0.00    -0.214 NA
ATOM     13  C   UNL     1      34.775 -16.707 -21.778  0.00  0.00    +0.189 C 
ATOM     14  C   UNL     1      34.165 -14.555 -22.294  0.00  0.00    +0.085 C 
ATOM     15  C   UNL     1      34.529 -14.724 -20.814  0.00  0.00    +0.117 C 
ATOM     16  H   UNL     1      34.853 -18.246 -23.035  0.00  0.00    +0.155 HD
ATOM     17  H   UNL     1      34.219 -16.167 -23.716  0.00  0.00    +0.155 HD
ENDBRANCH   6  10
TORSDOF 1
ENDMDL
MODEL 2
REMARK VINA RESULT:      -8.6      1.434      1.989
REMARK  Name = 65979
REMARK  1 active torsions:
REMARK  status: ('A' for Active; 'I' for Inactive)
REMARK    1  A    between atoms: C_6  and  N_10
REMARK                            x       y       z     vdW  Elec       q    Type
REMARK                         _______ _______ _______ _____ _____    ______ ____
ROOT
ATOM      1  C   UNL     1      32.989 -19.801 -20.702  0.00  0.00    +0.028 C 
ATOM      2  C   UNL     1      34.482 -19.789 -20.602  0.00  0.00    -0.013 C 
ATOM      3  C   UNL     1      32.628 -20.845 -19.636  0.00  0.00    +0.009 C 
ATOM      4  C   UNL     1      33.808 -21.825 -19.559  0.00  0.00    +0.026 C 
ATOM      5  C   UNL     1      34.947 -20.938 -19.953  0.00  0.00    -0.025 C 
ATOM      6  C   UNL     1      35.362 -18.841 -21.096  0.00  0.00    +0.046 C 
ATOM      7  C   UNL     1      36.303 -21.164 -19.784  0.00  0.00    -0.004 C 
ATOM      8  C   UNL     1      36.731 -19.055 -20.919  0.00  0.00    +0.014 C 
ATOM      9  C   UNL     1      37.198 -20.208 -20.268  0.00  0.00    +0.001 C 
ENDROOT
BRANCH   6  10
ATOM     10  N   UNL     1      34.905 -17.692 -21.763  0.00  0.00    -0.286 N 
ATOM     11  N   UNL     1      34.263 -16.308 -23.503  0.00  0.00    -0.284 N 
ATOM     12  N   UNL     1      34.943 -18.409 -24.030  0.00  0.00    -0.214 NA
ATOM     13  C   UNL     1      34.724 -17.522 -23.088  0.00  0.00    +0.189 C 
ATOM     14  C   UNL     1      34.120 -16.285 -24.926  0.00  0.00    +0.085 C 
ATOM     15  C   UNL     1      34.580 -17.701 -25.296  0.00  0.00    +0.117 C 
ATOM     16  H   UNL     1      34.690 -16.917 -21.195  0.00  0.00    +0.155 HD
ATOM     17  H   UNL     1      34.058 -15.553 -22.906  0.00  0.00    +0.155 HD
ENDBRANCH   6  10
TORSDOF 1
ENDMDL
MODEL 3
REMARK VINA RESULT:      -8.5      1.912      5.415
REMARK  Name = 65979
REMARK  1 active torsions:
REMARK  status: ('A' for Active; 'I' for Inactive)
REMARK    1  A    between atoms: C_6  and  N_10
REMARK                            x       y       z     vdW  Elec       q    Type
REMARK                         _______ _______ _______ _____ _____    ______ ____
ROOT
ATOM      1  C   UNL     1      34.912 -16.184 -21.000  0.00  0.00    +0.028 C 
ATOM      2  C   UNL     1      34.799 -16.761 -22.377  0.00  0.00    -0.013 C 
ATOM      3  C   UNL     1      34.081 -14.901 -21.148  0.00  0.00    +0.009 C 
ATOM      4  C   UNL     1      34.194 -14.466 -22.616  0.00  0.00    +0.026 C 
ATOM      5  C   UNL     1      34.393 -15.786 -23.293  0.00  0.00    -0.025 C 
ATOM      6  C   UNL     1      35.085 -18.053 -22.786  0.00  0.00    +0.046 C 
ATOM      7  C   UNL     1      34.262 -16.082 -24.640  0.00  0.00    -0.004 C 
ATOM      8  C   UNL     1      34.944 -18.363 -24.140  0.00  0.00    +0.014 C 
ATOM      9  C   UNL     1      34.535 -17.385 -25.060  0.00  0.00    +0.001 C 
ENDROOT
BRANCH   6  10
ATOM     10  N   UNL     1      35.510 -19.034 -21.874  0.00  0.00    -0.286 N 
ATOM     11  N   UNL     1      35.391 -20.702 -20.275  0.00  0.00    -0.284 N 
ATOM     12  N   UNL     1      33.437 -19.804 -21.000  0.00  0.00    -0.214 NA
ATOM     13  C   UNL     1      34.746 -19.811 -21.080  0.00  0.00    +0.189 C 
ATOM     14  C   UNL     1      34.450 -21.451 -19.500  0.00  0.00    +0.085 C 
ATOM     15  C   UNL     1      33.123 -20.850 -19.980  0.00  0.00    +0.117 C 
ATOM     16  H   UNL     1      36.483 -19.172 -21.807  0.00  0.00    +0.155 HD
ATOM     17  H   UNL     1      36.368 -20.814 -20.233  0.00  0.00    +0.155 HD
ENDBRANCH   6  10
TORSDOF 1
ENDMDL
MODEL 4
REMARK VINA RESULT:      -8.5      1.850      5.513
REMARK  Name = 65979
REMARK  1 active torsions:
REMARK  status: ('A' for Active; 'I' for Inactive)
REMARK    1  A    between atoms: C_6  and  N_10
REMARK                            x       y       z     vdW  Elec       q    Type
REMARK                         _______ _______ _______ _____ _____    ______ ____
ROOT
ATOM      1  C   UNL     1      34.887 -17.818 -24.044  0.00  0.00    +0.028 C 
ATOM      2  C   UNL     1      34.700 -16.799 -22.964  0.00  0.00    -0.013 C 
ATOM      3  C   UNL     1      34.811 -16.936 -25.299  0.00  0.00    +0.009 C 
ATOM      4  C   UNL     1      33.904 -15.747 -24.951  0.00  0.00    +0.026 C 
ATOM      5  C   UNL     1      34.141 -15.625 -23.478  0.00  0.00    -0.025 C 
ATOM      6  C   UNL     1      34.966 -16.932 -21.611  0.00  0.00    +0.046 C 
ATOM      7  C   UNL     1      33.838 -14.556 -22.651  0.00  0.00    -0.004 C 
ATOM      8  C   UNL     1      34.675 -15.854 -20.772  0.00  0.00    +0.014 C 
ATOM      9  C   UNL     1      34.115 -14.675 -21.288  0.00  0.00    +0.001 C 
ENDROOT
BRANCH   6  10
ATOM     10  N   UNL     1      35.511 -18.114 -21.083  0.00  0.00    -0.286 N 
ATOM     11  N   UNL     1      35.606 -20.251 -20.201  0.00  0.00    -0.284 N 
ATOM     12  N   UNL     1      33.556 -19.412 -20.698  0.00  0.00    -0.214 NA
ATOM     13  C   UNL     1      34.854 -19.220 -20.679  0.00  0.00    +0.189 C 
ATOM     14  C   UNL     1      34.769 -21.347 -19.818  0.00  0.00    +0.085 C 
ATOM     15  C   UNL     1      33.378 -20.790 -20.146  0.00  0.00    +0.117 C 
ATOM     16  H   UNL     1      36.492 -18.139 -20.998  0.00  0.00    +0.155 HD
ATOM     17  H   UNL     1      36.588 -20.243 -20.130  0.00  0.00    +0.155 HD
ENDBRANCH   6  10
TORSDOF 1
ENDMDL
MODEL 5
REMARK VINA RESULT:      -8.1      1.891      5.855
REMARK  Name = 65979
REMARK  1 active torsions:
REMARK  status: ('A' for Active; 'I' for Inactive)
REMARK    1  A    between atoms: C_6  and  N_10
REMARK                            x       y       z     vdW  Elec       q    Type
REMARK                         _______ _______ _______ _____ _____    ______ ____
ROOT
ATOM      1  C   UNL     1      34.195 -14.884 -21.511  0.00  0.00    +0.028 C 
ATOM      2  C   UNL     1      34.171 -15.377 -22.924  0.00  0.00    -0.013 C 
ATOM      3  C   UNL     1      32.923 -14.025 -21.476  0.00  0.00    +0.009 C 
ATOM      4  C   UNL     1      32.705 -13.496 -22.901  0.00  0.00    +0.026 C 
ATOM      5  C   UNL     1      33.326 -14.589 -23.713  0.00  0.00    -0.025 C 
ATOM      6  C   UNL     1      34.889 -16.426 -23.473  0.00  0.00    +0.046 C 
ATOM      7  C   UNL     1      33.180 -14.834 -25.068  0.00  0.00    -0.004 C 
ATOM      8  C   UNL     1      34.738 -16.688 -24.837  0.00  0.00    +0.014 C 
ATOM      9  C   UNL     1      33.890 -15.897 -25.628  0.00  0.00    +0.001 C 
ENDROOT
BRANCH   6  10
ATOM     10  N   UNL     1      35.753 -17.212 -22.692  0.00  0.00    -0.286 N 
ATOM     11  N   UNL     1      36.457 -18.888 -21.261  0.00  0.00    -0.284 N 
ATOM     12  N   UNL     1      34.246 -18.803 -21.768  0.00  0.00    -0.214 NA
ATOM     13  C   UNL     1      35.438 -18.280 -21.932  0.00  0.00    +0.189 C 
ATOM     14  C   UNL     1      35.968 -20.001 -20.506  0.00  0.00    +0.085 C 
ATOM     15  C   UNL     1      34.471 -19.952 -20.839  0.00  0.00    +0.117 C 
ATOM     16  H   UNL     1      36.703 -16.953 -22.701  0.00  0.00    +0.155 HD
ATOM     17  H   UNL     1      37.399 -18.602 -21.292  0.00  0.00    +0.155 HD
ENDBRANCH   6  10
TORSDOF 1
ENDMDL
MODEL 6
REMARK VINA RESULT:      -8.0      2.687      4.157
REMARK  Name = 65979
REMARK  1 active torsions:
REMARK  status: ('A' for Active; 'I' for Inactive)
REMARK    1  A    between atoms: C_6  and  N_10
REMARK                            x       y       z     vdW  Elec       q    Type
REMARK                         _______ _______ _______ _____ _____    ______ ____
ROOT
ATOM      1  C   UNL     1      34.679 -17.097 -25.035  0.00  0.00    +0.028 C 
ATOM      2  C   UNL     1      34.751 -17.027 -23.542  0.00  0.00    -0.013 C 
ATOM      3  C   UNL     1      34.260 -18.559 -25.244  0.00  0.00    +0.009 C 
ATOM      4  C   UNL     1      34.822 -19.355 -24.057  0.00  0.00    +0.026 C 
ATOM      5  C   UNL     1      34.833 -18.309 -22.987  0.00  0.00    -0.025 C 
ATOM      6  C   UNL     1      34.788 -15.898 -22.742  0.00  0.00    +0.046 C 
ATOM      7  C   UNL     1      34.952 -18.489 -21.619  0.00  0.00    -0.004 C 
ATOM      8  C   UNL     1      34.895 -16.070 -21.360  0.00  0.00    +0.014 C 
ATOM      9  C   UNL     1      34.977 -17.356 -20.803  0.00  0.00    +0.001 C 
ENDROOT
BRANCH   6  10
ATOM     10  N   UNL     1      34.723 -14.606 -23.292  0.00  0.00    -0.286 N 
ATOM     11  N   UNL     1      33.943 -12.470 -23.719  0.00  0.00    -0.284 N 
ATOM     12  N   UNL     1      32.746 -13.755 -22.281  0.00  0.00    -0.214 NA
ATOM     13  C   UNL     1      33.791 -13.658 -23.068  0.00  0.00    +0.189 C 
ATOM     14  C   UNL     1      32.884 -11.571 -23.377  0.00  0.00    +0.085 C 
ATOM     15  C   UNL     1      32.064 -12.431 -22.406  0.00  0.00    +0.117 C 
ATOM     16  H   UNL     1      35.445 -14.364 -23.916  0.00  0.00    +0.155 HD
ATOM     17  H   UNL     1      34.679 -12.261 -24.339  0.00  0.00    +0.155 HD
ENDBRANCH   6  10
TORSDOF 1
ENDMDL
MODEL 7
REMARK VINA RESULT:      -8.0      0.737      2.445
REMARK  Name = 65979
REMARK  1 active torsions:
REMARK  status: ('A' for Active; 'I' for Inactive)
REMARK    1  A    between atoms: C_6  and  N_10
REMARK                            x       y       z     vdW  Elec       q    Type
REMARK                         _______ _______ _______ _____ _____    ______ ____
ROOT
ATOM      1  C   UNL     1      36.743 -19.760 -20.574  0.00  0.00    +0.028 C 
ATOM      2  C   UNL     1      35.259 -19.951 -20.592  0.00  0.00    -0.013 C 
ATOM      3  C   UNL     1      37.206 -21.095 -19.972  0.00  0.00    +0.009 C 
ATOM      4  C   UNL     1      36.074 -21.586 -19.059  0.00  0.00    +0.026 C 
ATOM      5  C   UNL     1      34.879 -20.986 -19.732  0.00  0.00    -0.025 C 
ATOM      6  C   UNL     1      34.314 -19.219 -21.293  0.00  0.00    +0.046 C 
ATOM      7  C   UNL     1      33.545 -21.315 -19.555  0.00  0.00    -0.004 C 
ATOM      8  C   UNL     1      32.967 -19.552 -21.129  0.00  0.00    +0.014 C 
ATOM      9  C   UNL     1      32.586 -20.592 -20.266  0.00  0.00    +0.001 C 
ENDROOT
BRANCH   6  10
ATOM     10  N   UNL     1      34.686 -18.166 -22.146  0.00  0.00    -0.286 N 
ATOM     11  N   UNL     1      34.880 -16.015 -22.973  0.00  0.00    -0.284 N 
ATOM     12  N   UNL     1      33.717 -16.294 -21.044  0.00  0.00    -0.214 NA
ATOM     13  C   UNL     1      34.404 -16.855 -22.011  0.00  0.00    +0.189 C 
ATOM     14  C   UNL     1      34.504 -14.663 -22.690  0.00  0.00    +0.085 C 
ATOM     15  C   UNL     1      33.713 -14.840 -21.388  0.00  0.00    +0.117 C 
ATOM     16  H   UNL     1      35.216 -18.416 -22.937  0.00  0.00    +0.155 HD
ATOM     17  H   UNL     1      35.409 -16.298 -23.754  0.00  0.00    +0.155 HD
ENDBRANCH   6  10
TORSDOF 1
ENDMDL
MODEL 8
REMARK VINA RESULT:      -7.9      5.763      8.484
REMARK  Name = 65979
REMARK  1 active torsions:
REMARK  status: ('A' for Active; 'I' for Inactive)
REMARK    1  A    between atoms: C_6  and  N_10
REMARK                            x       y       z     vdW  Elec       q    Type
REMARK                         _______ _______ _______ _____ _____    ______ ____
ROOT
ATOM      1  C   UNL     1      36.813 -22.000 -17.664  0.00  0.00    +0.028 C 
ATOM      2  C   UNL     1      35.435 -22.449 -17.289  0.00  0.00    -0.013 C 
ATOM      3  C   UNL     1      36.516 -21.131 -18.895  0.00  0.00    +0.009 C 
ATOM      4  C   UNL     1      35.249 -21.703 -19.547  0.00  0.00    +0.026 C 
ATOM      5  C   UNL     1      34.549 -22.281 -18.358  0.00  0.00    -0.025 C 
ATOM      6  C   UNL     1      35.018 -23.010 -16.094  0.00  0.00    +0.046 C 
ATOM      7  C   UNL     1      33.223 -22.670 -18.254  0.00  0.00    -0.004 C 
ATOM      8  C   UNL     1      33.680 -23.394 -15.976  0.00  0.00    +0.014 C 
ATOM      9  C   UNL     1      32.789 -23.225 -17.048  0.00  0.00    +0.001 C 
ENDROOT
BRANCH   6  10
ATOM     10  N   UNL     1      35.906 -23.197 -15.021  0.00  0.00    -0.286 N 
ATOM     11  N   UNL     1      37.418 -24.245 -13.618  0.00  0.00    -0.284 N 
ATOM     12  N   UNL     1      36.608 -25.442 -15.369  0.00  0.00    -0.214 NA
ATOM     13  C   UNL     1      36.612 -24.304 -14.716  0.00  0.00    +0.189 C 
ATOM     14  C   UNL     1      38.100 -25.489 -13.428  0.00  0.00    +0.085 C 
ATOM     15  C   UNL     1      37.557 -26.309 -14.606  0.00  0.00    +0.117 C 
ATOM     16  H   UNL     1      36.028 -22.427 -14.420  0.00  0.00    +0.155 HD
ATOM     17  H   UNL     1      37.517 -23.457 -13.037  0.00  0.00    +0.155 HD
ENDBRANCH   6  10
TORSDOF 1
ENDMDL
MODEL 9
REMARK VINA RESULT:      -7.9      9.095     12.371
REMARK  Name = 65979
REMARK  1 active torsions:
REMARK  status: ('A' for Active; 'I' for Inactive)
REMARK    1  A    between atoms: C_6  and  N_10
REMARK                            x       y       z     vdW  Elec       q    Type
REMARK                         _______ _______ _______ _____ _____    ______ ____
ROOT
ATOM      1  C   UNL     1      31.260  -5.774 -22.736  0.00  0.00    +0.028 C 
ATOM      2  C   UNL     1      32.532  -6.457 -23.133  0.00  0.00    -0.013 C 
ATOM      3  C   UNL     1      30.750  -5.284 -24.099  0.00  0.00    +0.009 C 
ATOM      4  C   UNL     1      31.987  -5.045 -24.976  0.00  0.00    +0.026 C 
ATOM      5  C   UNL     1      32.944  -6.042 -24.403  0.00  0.00    -0.025 C 
ATOM      6  C   UNL     1      33.288  -7.349 -22.390  0.00  0.00    +0.046 C 
ATOM      7  C   UNL     1      34.122  -6.512 -24.960  0.00  0.00    -0.004 C 
ATOM      8  C   UNL     1      34.471  -7.837 -22.950  0.00  0.00    +0.014 C 
ATOM      9  C   UNL     1      34.885  -7.421 -24.225  0.00  0.00    +0.001 C 
ENDROOT
BRANCH   6  10
ATOM     10  N   UNL     1      32.889  -7.758 -21.106  0.00  0.00    -0.286 N 
ATOM     11  N   UNL     1      31.968  -9.072 -19.441  0.00  0.00    -0.284 N 
ATOM     12  N   UNL     1      31.862  -9.852 -21.570  0.00  0.00    -0.214 NA
ATOM     13  C   UNL     1      32.248  -8.893 -20.762  0.00  0.00    +0.189 C 
ATOM     14  C   UNL     1      31.292 -10.317 -19.236  0.00  0.00    +0.085 C 
ATOM     15  C   UNL     1      31.212 -10.853 -20.671  0.00  0.00    +0.117 C 
ATOM     16  H   UNL     1      33.105  -7.142 -20.369  0.00  0.00    +0.155 HD
ATOM     17  H   UNL     1      32.198  -8.435 -18.727  0.00  0.00    +0.155 HD
ENDBRANCH   6  10
TORSDOF 1
ENDMDL
