MODEL 1
REMARK VINA RESULT:     -10.9      0.000      0.000
REMARK  Name = 16741237
REMARK  5 active torsions:
REMARK  status: ('A' for Active; 'I' for Inactive)
REMARK    1  A    between atoms: C_5  and  C_23
REMARK    2  A    between atoms: C_7  and  C_29
REMARK    3  A    between atoms: N_28  and  C_31
REMARK    4  A    between atoms: C_31  and  C_32
REMARK    5  A    between atoms: C_32  and  N_33
REMARK                            x       y       z     vdW  Elec       q    Type
REMARK                         _______ _______ _______ _____ _____    ______ ____
ROOT
ATOM      1  S   UNL     1      33.461 -22.410 -18.770  0.00  0.00    -0.059 S 
ATOM      2  O   UNL     1      36.781 -19.504 -20.251  0.00  0.00    -0.270 OA
ATOM      3  N   UNL     1      34.700 -20.597 -20.245  0.00  0.00    -0.251 N 
ATOM      4  N   UNL     1      35.846 -21.525 -18.307  0.00  0.00    -0.380 NA
ATOM      5  C   UNL     1      35.659 -19.705 -20.741  0.00  0.00    +0.252 C 
ATOM      6  C   UNL     1      34.819 -21.421 -19.121  0.00  0.00    +0.213 C 
ATOM      7  C   UNL     1      35.547 -22.454 -17.329  0.00  0.00    +0.175 C 
ATOM      8  C   UNL     1      34.302 -23.041 -17.414  0.00  0.00    +0.129 C 
ATOM      9  H   UNL     1      33.851 -20.651 -20.741  0.00  0.00    +0.158 HD
ENDROOT
BRANCH   5  23
ATOM     10  O   UNL     1      33.190 -14.302 -26.570  0.00  0.00    -0.269 OA
ATOM     11  N   UNL     1      34.161 -16.769 -25.242  0.00  0.00    -0.350 N 
ATOM     12  N   UNL     1      32.587 -13.523 -24.487  0.00  0.00    -0.299 N 
ATOM     13  C   UNL     1      33.417 -14.627 -22.383  0.00  0.00    +0.044 C 
ATOM     14  C   UNL     1      33.819 -15.738 -23.304  0.00  0.00    +0.001 A 
ATOM     15  C   UNL     1      32.319 -13.787 -23.070  0.00  0.00    +0.094 C 
ATOM     16  C   UNL     1      33.684 -15.618 -24.674  0.00  0.00    +0.107 A 
ATOM     17  C   UNL     1      34.378 -17.016 -23.028  0.00  0.00    +0.013 A 
ATOM     18  C   UNL     1      34.582 -17.642 -24.262  0.00  0.00    +0.056 A 
ATOM     19  C   UNL     1      34.618 -13.755 -22.010  0.00  0.00    +0.007 C 
ATOM     20  C   UNL     1      33.148 -14.462 -25.352  0.00  0.00    +0.261 C 
ATOM     21  C   UNL     1      34.740 -17.704 -21.852  0.00  0.00    +0.006 C 
ATOM     22  C   UNL     1      35.127 -18.926 -24.375  0.00  0.00    +0.017 C 
ATOM     23  C   UNL     1      35.284 -18.989 -21.952  0.00  0.00    +0.054 C 
ATOM     24  C   UNL     1      35.473 -19.590 -23.194  0.00  0.00    +0.006 C 
ATOM     25  H   UNL     1      34.198 -16.946 -26.210  0.00  0.00    +0.166 HD
ATOM     26  H   UNL     1      32.359 -12.636 -24.847  0.00  0.00    +0.150 HD
ENDBRANCH   5  23
BRANCH   7  29
ATOM     27  O   UNL     1      37.477 -22.020 -16.046  0.00  0.00    -0.268 OA
ATOM     28  N   UNL     1      36.292 -23.940 -15.572  0.00  0.00    -0.301 N 
ATOM     29  C   UNL     1      36.507 -22.762 -16.307  0.00  0.00    +0.272 C 
ATOM     30  H   UNL     1      35.516 -24.501 -15.804  0.00  0.00    +0.150 HD
BRANCH  28  31
ATOM     31  C   UNL     1      37.151 -24.371 -14.492  0.00  0.00    +0.067 C 
BRANCH  31  32
ATOM     32  C   UNL     1      37.625 -25.802 -14.703  0.00  0.00    -0.056 C 
BRANCH  32  33
ATOM     33  N   UNL     1      38.618 -26.160 -13.698  0.00  0.00    +0.385 N 
ATOM     34  C   UNL     1      38.309 -25.523 -12.416  0.00  0.00    -0.101 C 
ATOM     35  C   UNL     1      39.961 -25.781 -14.141  0.00  0.00    -0.101 C 
ATOM     36  H   UNL     1      38.591 -27.172 -13.572  0.00  0.00    -0.080 HD
ENDBRANCH  32  33
ENDBRANCH  31  32
ENDBRANCH  28  31
ENDBRANCH   7  29
TORSDOF 5
ENDMDL
MODEL 2
REMARK VINA RESULT:     -10.4      6.109     13.253
REMARK  Name = 16741237
REMARK  5 active torsions:
REMARK  status: ('A' for Active; 'I' for Inactive)
REMARK    1  A    between atoms: C_5  and  C_23
REMARK    2  A    between atoms: C_7  and  C_29
REMARK    3  A    between atoms: N_28  and  C_31
REMARK    4  A    between atoms: C_31  and  C_32
REMARK    5  A    between atoms: C_32  and  N_33
REMARK                            x       y       z     vdW  Elec       q    Type
REMARK                         _______ _______ _______ _____ _____    ______ ____
ROOT
ATOM      1  S   UNL     1      31.565 -11.067 -20.121  0.00  0.00    -0.059 S 
ATOM      2  O   UNL     1      33.393 -11.072 -24.401  0.00  0.00    -0.270 OA
ATOM      3  N   UNL     1      32.545 -11.976 -22.404  0.00  0.00    -0.251 N 
ATOM      4  N   UNL     1      32.384  -9.571 -22.063  0.00  0.00    -0.380 NA
ATOM      5  C   UNL     1      33.095 -12.045 -23.690  0.00  0.00    +0.252 C 
ATOM      6  C   UNL     1      32.230 -10.819 -21.684  0.00  0.00    +0.213 C 
ATOM      7  C   UNL     1      31.947  -8.739 -21.050  0.00  0.00    +0.175 C 
ATOM      8  C   UNL     1      31.469  -9.366 -19.919  0.00  0.00    +0.129 C 
ATOM      9  H   UNL     1      32.359 -12.835 -21.958  0.00  0.00    +0.158 HD
ENDROOT
BRANCH   5  23
ATOM     10  O   UNL     1      34.917 -20.075 -24.899  0.00  0.00    -0.269 OA
ATOM     11  N   UNL     1      34.145 -17.254 -25.388  0.00  0.00    -0.350 N 
ATOM     12  N   UNL     1      35.636 -19.424 -22.809  0.00  0.00    -0.299 N 
ATOM     13  C   UNL     1      35.005 -17.187 -21.842  0.00  0.00    +0.044 C 
ATOM     14  C   UNL     1      34.583 -16.869 -23.244  0.00  0.00    +0.001 A 
ATOM     15  C   UNL     1      36.015 -18.353 -21.882  0.00  0.00    +0.094 C 
ATOM     16  C   UNL     1      34.615 -17.829 -24.238  0.00  0.00    +0.107 A 
ATOM     17  C   UNL     1      34.098 -15.661 -23.816  0.00  0.00    +0.013 A 
ATOM     18  C   UNL     1      33.831 -15.930 -25.163  0.00  0.00    +0.056 A 
ATOM     19  C   UNL     1      33.799 -17.539 -20.968  0.00  0.00    +0.007 C 
ATOM     20  C   UNL     1      35.053 -19.192 -24.055  0.00  0.00    +0.261 C 
ATOM     21  C   UNL     1      33.850 -14.364 -23.324  0.00  0.00    +0.006 C 
ATOM     22  C   UNL     1      33.333 -14.962 -26.041  0.00  0.00    +0.017 C 
ATOM     23  C   UNL     1      33.352 -13.386 -24.193  0.00  0.00    +0.054 C 
ATOM     24  C   UNL     1      33.099 -13.682 -25.530  0.00  0.00    +0.006 C 
ATOM     25  H   UNL     1      34.046 -17.718 -26.251  0.00  0.00    +0.166 HD
ATOM     26  H   UNL     1      35.801 -20.356 -22.538  0.00  0.00    +0.150 HD
ENDBRANCH   5  23
BRANCH   7  29
ATOM     27  O   UNL     1      32.513  -6.561 -20.346  0.00  0.00    -0.268 OA
ATOM     28  N   UNL     1      31.496  -6.785 -22.404  0.00  0.00    -0.301 N 
ATOM     29  C   UNL     1      32.008  -7.313 -21.207  0.00  0.00    +0.272 C 
ATOM     30  H   UNL     1      31.106  -7.408 -23.060  0.00  0.00    +0.150 HD
BRANCH  28  31
ATOM     31  C   UNL     1      31.512  -5.376 -22.722  0.00  0.00    +0.067 C 
BRANCH  31  32
ATOM     32  C   UNL     1      31.105  -5.132 -24.168  0.00  0.00    -0.056 C 
BRANCH  32  33
ATOM     33  N   UNL     1      30.726  -3.738 -24.360  0.00  0.00    +0.385 N 
ATOM     34  C   UNL     1      31.306  -3.211 -25.597  0.00  0.00    -0.101 C 
ATOM     35  C   UNL     1      31.149  -2.927 -23.217  0.00  0.00    -0.101 C 
ATOM     36  H   UNL     1      29.710  -3.692 -24.432  0.00  0.00    -0.080 HD
ENDBRANCH  32  33
ENDBRANCH  31  32
ENDBRANCH  28  31
ENDBRANCH   7  29
TORSDOF 5
ENDMDL
MODEL 3
REMARK VINA RESULT:     -10.4      3.360     11.137
REMARK  Name = 16741237
REMARK  5 active torsions:
REMARK  status: ('A' for Active; 'I' for Inactive)
REMARK    1  A    between atoms: C_5  and  C_23
REMARK    2  A    between atoms: C_7  and  C_29
REMARK    3  A    between atoms: N_28  and  C_31
REMARK    4  A    between atoms: C_31  and  C_32
REMARK    5  A    between atoms: C_32  and  N_33
REMARK                            x       y       z     vdW  Elec       q    Type
REMARK                         _______ _______ _______ _____ _____    ______ ____
ROOT
ATOM      1  S   UNL     1      36.811 -19.020 -21.271  0.00  0.00    -0.059 S 
ATOM      2  O   UNL     1      32.637 -20.963 -20.586  0.00  0.00    -0.270 OA
ATOM      3  N   UNL     1      34.881 -20.427 -20.133  0.00  0.00    -0.251 N 
ATOM      4  N   UNL     1      34.428 -19.288 -22.236  0.00  0.00    -0.380 NA
ATOM      5  C   UNL     1      33.648 -21.039 -19.870  0.00  0.00    +0.252 C 
ATOM      6  C   UNL     1      35.206 -19.627 -21.233  0.00  0.00    +0.213 C 
ATOM      7  C   UNL     1      35.144 -18.489 -23.106  0.00  0.00    +0.175 C 
ATOM      8  C   UNL     1      36.452 -18.234 -22.752  0.00  0.00    +0.129 C 
ATOM      9  H   UNL     1      35.596 -20.576 -19.472  0.00  0.00    +0.158 HD
ENDROOT
BRANCH   5  23
ATOM     10  O   UNL     1      31.612 -25.465 -13.123  0.00  0.00    -0.269 OA
ATOM     11  N   UNL     1      33.191 -24.111 -15.237  0.00  0.00    -0.350 N 
ATOM     12  N   UNL     1      29.784 -24.258 -13.837  0.00  0.00    -0.299 N 
ATOM     13  C   UNL     1      29.797 -23.038 -16.040  0.00  0.00    +0.044 C 
ATOM     14  C   UNL     1      31.274 -23.281 -15.994  0.00  0.00    +0.001 A 
ATOM     15  C   UNL     1      29.236 -23.136 -14.605  0.00  0.00    +0.094 C 
ATOM     16  C   UNL     1      31.846 -24.042 -14.992  0.00  0.00    +0.107 A 
ATOM     17  C   UNL     1      32.313 -22.854 -16.867  0.00  0.00    +0.013 A 
ATOM     18  C   UNL     1      33.505 -23.388 -16.368  0.00  0.00    +0.056 A 
ATOM     19  C   UNL     1      29.100 -24.035 -16.968  0.00  0.00    +0.007 C 
ATOM     20  C   UNL     1      31.119 -24.656 -13.906  0.00  0.00    +0.261 C 
ATOM     21  C   UNL     1      32.361 -22.071 -18.038  0.00  0.00    +0.006 C 
ATOM     22  C   UNL     1      34.743 -23.173 -16.982  0.00  0.00    +0.017 C 
ATOM     23  C   UNL     1      33.593 -21.847 -18.661  0.00  0.00    +0.054 C 
ATOM     24  C   UNL     1      34.766 -22.389 -18.140  0.00  0.00    +0.006 C 
ATOM     25  H   UNL     1      33.840 -24.605 -14.685  0.00  0.00    +0.166 HD
ATOM     26  H   UNL     1      29.180 -24.755 -13.242  0.00  0.00    +0.150 HD
ENDBRANCH   5  23
BRANCH   7  29
ATOM     27  O   UNL     1      34.066 -18.722 -25.190  0.00  0.00    -0.268 OA
ATOM     28  N   UNL     1      34.427 -16.582 -24.411  0.00  0.00    -0.301 N 
ATOM     29  C   UNL     1      34.526 -17.979 -24.297  0.00  0.00    +0.272 C 
ATOM     30  H   UNL     1      34.799 -16.027 -23.688  0.00  0.00    +0.150 HD
BRANCH  28  31
ATOM     31  C   UNL     1      33.805 -15.918 -25.534  0.00  0.00    +0.067 C 
BRANCH  31  32
ATOM     32  C   UNL     1      33.013 -14.699 -25.084  0.00  0.00    -0.056 C 
BRANCH  32  33
ATOM     33  N   UNL     1      33.633 -14.097 -23.910  0.00  0.00    +0.385 N 
ATOM     34  C   UNL     1      32.779 -14.264 -22.732  0.00  0.00    -0.101 C 
ATOM     35  C   UNL     1      33.905 -12.677 -24.141  0.00  0.00    -0.101 C 
ATOM     36  H   UNL     1      34.518 -14.574 -23.740  0.00  0.00    -0.080 HD
ENDBRANCH  32  33
ENDBRANCH  31  32
ENDBRANCH  28  31
ENDBRANCH   7  29
TORSDOF 5
ENDMDL
MODEL 4
REMARK VINA RESULT:     -10.2      2.769      3.893
REMARK  Name = 16741237
REMARK  5 active torsions:
REMARK  status: ('A' for Active; 'I' for Inactive)
REMARK    1  A    between atoms: C_5  and  C_23
REMARK    2  A    between atoms: C_7  and  C_29
REMARK    3  A    between atoms: N_28  and  C_31
REMARK    4  A    between atoms: C_31  and  C_32
REMARK    5  A    between atoms: C_32  and  N_33
REMARK                            x       y       z     vdW  Elec       q    Type
REMARK                         _______ _______ _______ _____ _____    ______ ____
ROOT
ATOM      1  S   UNL     1      36.936 -19.891 -20.629  0.00  0.00    -0.059 S 
ATOM      2  O   UNL     1      32.736 -17.909 -20.938  0.00  0.00    -0.270 OA
ATOM      3  N   UNL     1      35.057 -18.130 -21.234  0.00  0.00    -0.251 N 
ATOM      4  N   UNL     1      34.432 -20.158 -20.042  0.00  0.00    -0.380 NA
ATOM      5  C   UNL     1      33.822 -17.481 -21.359  0.00  0.00    +0.252 C 
ATOM      6  C   UNL     1      35.303 -19.362 -20.621  0.00  0.00    +0.213 C 
ATOM      7  C   UNL     1      35.095 -21.273 -19.566  0.00  0.00    +0.175 C 
ATOM      8  C   UNL     1      36.455 -21.307 -19.788  0.00  0.00    +0.129 C 
ATOM      9  H   UNL     1      35.837 -17.667 -21.619  0.00  0.00    +0.158 HD
ENDROOT
BRANCH   5  23
ATOM     10  O   UNL     1      32.932  -9.595 -23.863  0.00  0.00    -0.269 OA
ATOM     11  N   UNL     1      33.790 -12.429 -23.725  0.00  0.00    -0.350 N 
ATOM     12  N   UNL     1      31.303 -10.104 -22.316  0.00  0.00    -0.299 N 
ATOM     13  C   UNL     1      31.364 -12.253 -21.006  0.00  0.00    +0.044 C 
ATOM     14  C   UNL     1      32.389 -12.664 -22.018  0.00  0.00    +0.001 A 
ATOM     15  C   UNL     1      30.512 -11.111 -21.601  0.00  0.00    +0.094 C 
ATOM     16  C   UNL     1      32.846 -11.781 -22.976  0.00  0.00    +0.107 A 
ATOM     17  C   UNL     1      33.064 -13.902 -22.205  0.00  0.00    +0.013 A 
ATOM     18  C   UNL     1      33.937 -13.727 -23.283  0.00  0.00    +0.056 A 
ATOM     19  C   UNL     1      32.023 -11.817 -19.696  0.00  0.00    +0.007 C 
ATOM     20  C   UNL     1      32.398 -10.416 -23.120  0.00  0.00    +0.261 C 
ATOM     21  C   UNL     1      33.027 -15.155 -21.561  0.00  0.00    +0.006 C 
ATOM     22  C   UNL     1      34.772 -14.748 -23.751  0.00  0.00    +0.017 C 
ATOM     23  C   UNL     1      33.856 -16.185 -22.020  0.00  0.00    +0.054 C 
ATOM     24  C   UNL     1      34.714 -15.983 -23.099  0.00  0.00    +0.006 C 
ATOM     25  H   UNL     1      34.292 -12.028 -24.471  0.00  0.00    +0.166 HD
ATOM     26  H   UNL     1      31.047  -9.158 -22.223  0.00  0.00    +0.150 HD
ENDBRANCH   5  23
BRANCH   7  29
ATOM     27  O   UNL     1      33.582 -23.079 -19.468  0.00  0.00    -0.268 OA
ATOM     28  N   UNL     1      34.613 -22.445 -17.505  0.00  0.00    -0.301 N 
ATOM     29  C   UNL     1      34.372 -22.308 -18.883  0.00  0.00    +0.272 C 
ATOM     30  H   UNL     1      35.242 -21.820 -17.077  0.00  0.00    +0.150 HD
BRANCH  28  31
ATOM     31  C   UNL     1      33.985 -23.457 -16.685  0.00  0.00    +0.067 C 
BRANCH  31  32
ATOM     32  C   UNL     1      34.251 -23.211 -15.207  0.00  0.00    -0.056 C 
BRANCH  32  33
ATOM     33  N   UNL     1      34.532 -24.469 -14.527  0.00  0.00    +0.385 N 
ATOM     34  C   UNL     1      34.589 -24.270 -13.077  0.00  0.00    -0.101 C 
ATOM     35  C   UNL     1      35.787 -25.047 -15.009  0.00  0.00    -0.101 C 
ATOM     36  H   UNL     1      33.774 -25.118 -14.735  0.00  0.00    -0.080 HD
ENDBRANCH  32  33
ENDBRANCH  31  32
ENDBRANCH  28  31
ENDBRANCH   7  29
TORSDOF 5
ENDMDL
MODEL 5
REMARK VINA RESULT:     -10.1      3.728      4.763
REMARK  Name = 16741237
REMARK  5 active torsions:
REMARK  status: ('A' for Active; 'I' for Inactive)
REMARK    1  A    between atoms: C_5  and  C_23
REMARK    2  A    between atoms: C_7  and  C_29
REMARK    3  A    between atoms: N_28  and  C_31
REMARK    4  A    between atoms: C_31  and  C_32
REMARK    5  A    between atoms: C_32  and  N_33
REMARK                            x       y       z     vdW  Elec       q    Type
REMARK                         _______ _______ _______ _____ _____    ______ ____
ROOT
ATOM      1  S   UNL     1      36.650 -20.514 -20.076  0.00  0.00    -0.059 S 
ATOM      2  O   UNL     1      32.571 -18.473 -21.004  0.00  0.00    -0.270 OA
ATOM      3  N   UNL     1      34.907 -18.736 -20.968  0.00  0.00    -0.251 N 
ATOM      4  N   UNL     1      34.084 -20.731 -19.842  0.00  0.00    -0.380 NA
ATOM      5  C   UNL     1      33.713 -18.071 -21.276  0.00  0.00    +0.252 C 
ATOM      6  C   UNL     1      35.042 -19.960 -20.306  0.00  0.00    +0.213 C 
ATOM      7  C   UNL     1      34.653 -21.847 -19.258  0.00  0.00    +0.175 C 
ATOM      8  C   UNL     1      36.031 -21.906 -19.287  0.00  0.00    +0.129 C 
ATOM      9  H   UNL     1      35.741 -18.293 -21.248  0.00  0.00    +0.158 HD
ENDROOT
BRANCH   5  23
ATOM     10  O   UNL     1      33.444 -10.181 -23.910  0.00  0.00    -0.269 OA
ATOM     11  N   UNL     1      34.121 -13.059 -23.692  0.00  0.00    -0.350 N 
ATOM     12  N   UNL     1      31.700 -10.571 -22.455  0.00  0.00    -0.299 N 
ATOM     13  C   UNL     1      31.556 -12.702 -21.122  0.00  0.00    +0.044 C 
ATOM     14  C   UNL     1      32.611 -13.187 -22.068  0.00  0.00    +0.001 A 
ATOM     15  C   UNL     1      30.811 -11.519 -21.778  0.00  0.00    +0.094 C 
ATOM     16  C   UNL     1      33.176 -12.345 -23.007  0.00  0.00    +0.107 A 
ATOM     17  C   UNL     1      33.221 -14.465 -22.202  0.00  0.00    +0.013 A 
ATOM     18  C   UNL     1      34.164 -14.357 -23.229  0.00  0.00    +0.056 A 
ATOM     19  C   UNL     1      32.163 -12.287 -19.780  0.00  0.00    +0.007 C 
ATOM     20  C   UNL     1      32.820 -10.958 -23.191  0.00  0.00    +0.261 C 
ATOM     21  C   UNL     1      33.072 -15.705 -21.548  0.00  0.00    +0.006 C 
ATOM     22  C   UNL     1      34.962 -15.432 -23.636  0.00  0.00    +0.017 C 
ATOM     23  C   UNL     1      33.863 -16.788 -21.947  0.00  0.00    +0.054 C 
ATOM     24  C   UNL     1      34.792 -16.652 -22.976  0.00  0.00    +0.006 C 
ATOM     25  H   UNL     1      34.689 -12.698 -24.412  0.00  0.00    +0.166 HD
ATOM     26  H   UNL     1      31.496  -9.611 -22.388  0.00  0.00    +0.150 HD
ENDBRANCH   5  23
BRANCH   7  29
ATOM     27  O   UNL     1      33.808 -24.039 -19.069  0.00  0.00    -0.268 OA
ATOM     28  N   UNL     1      33.032 -22.465 -17.572  0.00  0.00    -0.301 N 
ATOM     29  C   UNL     1      33.823 -22.857 -18.666  0.00  0.00    +0.272 C 
ATOM     30  H   UNL     1      33.070 -21.525 -17.282  0.00  0.00    +0.150 HD
BRANCH  28  31
ATOM     31  C   UNL     1      32.168 -23.372 -16.852  0.00  0.00    +0.067 C 
BRANCH  31  32
ATOM     32  C   UNL     1      30.859 -22.697 -16.469  0.00  0.00    -0.056 C 
BRANCH  32  33
ATOM     33  N   UNL     1      29.861 -23.696 -16.106  0.00  0.00    +0.385 N 
ATOM     34  C   UNL     1      28.509 -23.189 -16.350  0.00  0.00    -0.101 C 
ATOM     35  C   UNL     1      30.009 -24.089 -14.704  0.00  0.00    -0.101 C 
ATOM     36  H   UNL     1      30.009 -24.518 -16.691  0.00  0.00    -0.080 HD
ENDBRANCH  32  33
ENDBRANCH  31  32
ENDBRANCH  28  31
ENDBRANCH   7  29
TORSDOF 5
ENDMDL
MODEL 6
REMARK VINA RESULT:      -9.8      2.257     11.242
REMARK  Name = 16741237
REMARK  5 active torsions:
REMARK  status: ('A' for Active; 'I' for Inactive)
REMARK    1  A    between atoms: C_5  and  C_23
REMARK    2  A    between atoms: C_7  and  C_29
REMARK    3  A    between atoms: N_28  and  C_31
REMARK    4  A    between atoms: C_31  and  C_32
REMARK    5  A    between atoms: C_32  and  N_33
REMARK                            x       y       z     vdW  Elec       q    Type
REMARK                         _______ _______ _______ _____ _____    ______ ____
ROOT
ATOM      1  S   UNL     1      36.811 -19.042 -21.102  0.00  0.00    -0.059 S 
ATOM      2  O   UNL     1      32.713 -21.150 -20.446  0.00  0.00    -0.270 OA
ATOM      3  N   UNL     1      34.923 -20.507 -19.967  0.00  0.00    -0.251 N 
ATOM      4  N   UNL     1      34.459 -19.433 -22.102  0.00  0.00    -0.380 NA
ATOM      5  C   UNL     1      33.713 -21.167 -19.712  0.00  0.00    +0.252 C 
ATOM      6  C   UNL     1      35.233 -19.717 -21.079  0.00  0.00    +0.213 C 
ATOM      7  C   UNL     1      35.156 -18.621 -22.976  0.00  0.00    +0.175 C 
ATOM      8  C   UNL     1      36.445 -18.302 -22.606  0.00  0.00    +0.129 C 
ATOM      9  H   UNL     1      35.632 -20.611 -19.291  0.00  0.00    +0.158 HD
ENDROOT
BRANCH   5  23
ATOM     10  O   UNL     1      35.180 -25.317 -12.649  0.00  0.00    -0.269 OA
ATOM     11  N   UNL     1      33.798 -24.146 -14.997  0.00  0.00    -0.350 N 
ATOM     12  N   UNL     1      37.176 -24.854 -13.704  0.00  0.00    -0.299 N 
ATOM     13  C   UNL     1      37.282 -23.315 -15.693  0.00  0.00    +0.044 C 
ATOM     14  C   UNL     1      35.794 -23.485 -15.714  0.00  0.00    +0.001 A 
ATOM     15  C   UNL     1      37.905 -24.501 -14.926  0.00  0.00    +0.094 C 
ATOM     16  C   UNL     1      35.139 -24.193 -14.725  0.00  0.00    +0.107 A 
ATOM     17  C   UNL     1      34.818 -23.009 -16.633  0.00  0.00    +0.013 A 
ATOM     18  C   UNL     1      33.574 -23.439 -16.159  0.00  0.00    +0.056 A 
ATOM     19  C   UNL     1      37.677 -21.982 -15.053  0.00  0.00    +0.007 C 
ATOM     20  C   UNL     1      35.785 -24.839 -13.607  0.00  0.00    +0.261 C 
ATOM     21  C   UNL     1      34.864 -22.248 -17.818  0.00  0.00    +0.006 C 
ATOM     22  C   UNL     1      32.375 -23.147 -16.818  0.00  0.00    +0.017 C 
ATOM     23  C   UNL     1      33.672 -21.951 -18.487  0.00  0.00    +0.054 C 
ATOM     24  C   UNL     1      32.447 -22.395 -17.994  0.00  0.00    +0.006 C 
ATOM     25  H   UNL     1      33.095 -24.558 -14.443  0.00  0.00    +0.166 HD
ATOM     26  H   UNL     1      37.695 -25.115 -12.910  0.00  0.00    +0.150 HD
ENDBRANCH   5  23
BRANCH   7  29
ATOM     27  O   UNL     1      34.018 -18.942 -25.016  0.00  0.00    -0.268 OA
ATOM     28  N   UNL     1      34.511 -16.775 -24.400  0.00  0.00    -0.301 N 
ATOM     29  C   UNL     1      34.537 -18.164 -24.188  0.00  0.00    +0.272 C 
ATOM     30  H   UNL     1      34.930 -16.191 -23.726  0.00  0.00    +0.150 HD
BRANCH  28  31
ATOM     31  C   UNL     1      33.899 -16.158 -25.555  0.00  0.00    +0.067 C 
BRANCH  31  32
ATOM     32  C   UNL     1      33.101 -14.924 -25.163  0.00  0.00    -0.056 C 
BRANCH  32  33
ATOM     33  N   UNL     1      33.677 -14.303 -23.977  0.00  0.00    +0.385 N 
ATOM     34  C   UNL     1      32.809 -14.503 -22.815  0.00  0.00    -0.101 C 
ATOM     35  C   UNL     1      33.902 -12.874 -24.201  0.00  0.00    -0.101 C 
ATOM     36  H   UNL     1      34.575 -14.748 -23.792  0.00  0.00    -0.080 HD
ENDBRANCH  32  33
ENDBRANCH  31  32
ENDBRANCH  28  31
ENDBRANCH   7  29
TORSDOF 5
ENDMDL
MODEL 7
REMARK VINA RESULT:      -9.4      6.286     13.870
REMARK  Name = 16741237
REMARK  5 active torsions:
REMARK  status: ('A' for Active; 'I' for Inactive)
REMARK    1  A    between atoms: C_5  and  C_23
REMARK    2  A    between atoms: C_7  and  C_29
REMARK    3  A    between atoms: N_28  and  C_31
REMARK    4  A    between atoms: C_31  and  C_32
REMARK    5  A    between atoms: C_32  and  N_33
REMARK                            x       y       z     vdW  Elec       q    Type
REMARK                         _______ _______ _______ _____ _____    ______ ____
ROOT
ATOM      1  S   UNL     1      31.960  -9.936 -21.211  0.00  0.00    -0.059 S 
ATOM      2  O   UNL     1      33.518 -10.835 -25.503  0.00  0.00    -0.270 OA
ATOM      3  N   UNL     1      32.785 -11.304 -23.320  0.00  0.00    -0.251 N 
ATOM      4  N   UNL     1      32.675  -8.876 -23.457  0.00  0.00    -0.380 NA
ATOM      5  C   UNL     1      33.253 -11.640 -24.596  0.00  0.00    +0.252 C 
ATOM      6  C   UNL     1      32.530 -10.020 -22.828  0.00  0.00    +0.213 C 
ATOM      7  C   UNL     1      32.312  -7.849 -22.607  0.00  0.00    +0.175 C 
ATOM      8  C   UNL     1      31.898  -8.228 -21.347  0.00  0.00    +0.129 C 
ATOM      9  H   UNL     1      32.617 -12.052 -22.702  0.00  0.00    +0.158 HD
ENDROOT
BRANCH   5  23
ATOM     10  O   UNL     1      34.773 -19.815 -24.255  0.00  0.00    -0.269 OA
ATOM     11  N   UNL     1      34.113 -17.110 -25.274  0.00  0.00    -0.350 N 
ATOM     12  N   UNL     1      35.504 -18.810 -22.314  0.00  0.00    -0.299 N 
ATOM     13  C   UNL     1      34.952 -16.410 -21.793  0.00  0.00    +0.044 C 
ATOM     14  C   UNL     1      34.553 -16.346 -23.235  0.00  0.00    +0.001 A 
ATOM     15  C   UNL     1      35.918 -17.600 -21.600  0.00  0.00    +0.094 C 
ATOM     16  C   UNL     1      34.553 -17.475 -24.031  0.00  0.00    +0.107 A 
ATOM     17  C   UNL     1      34.117 -15.250 -24.029  0.00  0.00    +0.013 A 
ATOM     18  C   UNL     1      33.849 -15.757 -25.305  0.00  0.00    +0.056 A 
ATOM     19  C   UNL     1      33.729 -16.547 -20.884  0.00  0.00    +0.007 C 
ATOM     20  C   UNL     1      34.938 -18.795 -23.589  0.00  0.00    +0.261 C 
ATOM     21  C   UNL     1      33.916 -13.875 -23.792  0.00  0.00    +0.006 C 
ATOM     22  C   UNL     1      33.394 -14.953 -26.356  0.00  0.00    +0.017 C 
ATOM     23  C   UNL     1      33.462 -13.060 -24.835  0.00  0.00    +0.054 C 
ATOM     24  C   UNL     1      33.206 -13.592 -26.097  0.00  0.00    +0.006 C 
ATOM     25  H   UNL     1      34.002 -17.724 -26.036  0.00  0.00    +0.166 HD
ATOM     26  H   UNL     1      35.631 -19.680 -21.872  0.00  0.00    +0.150 HD
ENDBRANCH   5  23
BRANCH   7  29
ATOM     27  O   UNL     1      32.367  -5.518 -22.256  0.00  0.00    -0.268 OA
ATOM     28  N   UNL     1      32.498  -6.272 -24.432  0.00  0.00    -0.301 N 
ATOM     29  C   UNL     1      32.381  -6.485 -23.048  0.00  0.00    +0.272 C 
ATOM     30  H   UNL     1      32.506  -7.058 -25.026  0.00  0.00    +0.150 HD
BRANCH  28  31
ATOM     31  C   UNL     1      32.608  -4.960 -25.028  0.00  0.00    +0.067 C 
BRANCH  31  32
ATOM     32  C   UNL     1      33.136  -5.045 -26.453  0.00  0.00    -0.056 C 
BRANCH  32  33
ATOM     33  N   UNL     1      32.923  -3.781 -27.148  0.00  0.00    +0.385 N 
ATOM     34  C   UNL     1      34.203  -3.162 -27.499  0.00  0.00    -0.101 C 
ATOM     35  C   UNL     1      32.127  -2.868 -26.326  0.00  0.00    -0.101 C 
ATOM     36  H   UNL     1      32.410  -3.975 -28.007  0.00  0.00    -0.080 HD
ENDBRANCH  32  33
ENDBRANCH  31  32
ENDBRANCH  28  31
ENDBRANCH   7  29
TORSDOF 5
ENDMDL
MODEL 8
REMARK VINA RESULT:      -9.4      4.053      7.017
REMARK  Name = 16741237
REMARK  5 active torsions:
REMARK  status: ('A' for Active; 'I' for Inactive)
REMARK    1  A    between atoms: C_5  and  C_23
REMARK    2  A    between atoms: C_7  and  C_29
REMARK    3  A    between atoms: N_28  and  C_31
REMARK    4  A    between atoms: C_31  and  C_32
REMARK    5  A    between atoms: C_32  and  N_33
REMARK                            x       y       z     vdW  Elec       q    Type
REMARK                         _______ _______ _______ _____ _____    ______ ____
ROOT
ATOM      1  S   UNL     1      34.784 -16.775 -24.209  0.00  0.00    -0.059 S 
ATOM      2  O   UNL     1      33.269 -14.526 -20.427  0.00  0.00    -0.270 OA
ATOM      3  N   UNL     1      33.694 -14.888 -22.710  0.00  0.00    -0.251 N 
ATOM      4  N   UNL     1      34.562 -16.893 -21.636  0.00  0.00    -0.380 NA
ATOM      5  C   UNL     1      33.218 -14.160 -21.612  0.00  0.00    +0.252 C 
ATOM      6  C   UNL     1      34.308 -16.144 -22.686  0.00  0.00    +0.213 C 
ATOM      7  C   UNL     1      35.179 -18.055 -22.057  0.00  0.00    +0.175 C 
ATOM      8  C   UNL     1      35.385 -18.171 -23.415  0.00  0.00    +0.129 C 
ATOM      9  H   UNL     1      33.584 -14.469 -23.595  0.00  0.00    +0.158 HD
ENDROOT
BRANCH   5  23
ATOM     10  O   UNL     1      31.490  -6.420 -24.134  0.00  0.00    -0.269 OA
ATOM     11  N   UNL     1      31.244  -9.104 -22.897  0.00  0.00    -0.350 N 
ATOM     12  N   UNL     1      33.757  -6.799 -24.297  0.00  0.00    -0.299 N 
ATOM     13  C   UNL     1      34.727  -9.101 -23.983  0.00  0.00    +0.044 C 
ATOM     14  C   UNL     1      33.378  -9.429 -23.423  0.00  0.00    +0.001 A 
ATOM     15  C   UNL     1      34.938  -7.573 -23.902  0.00  0.00    +0.094 C 
ATOM     16  C   UNL     1      32.349  -8.507 -23.442  0.00  0.00    +0.107 A 
ATOM     17  C   UNL     1      32.886 -10.622 -22.825  0.00  0.00    +0.013 A 
ATOM     18  C   UNL     1      31.545 -10.390 -22.504  0.00  0.00    +0.056 A 
ATOM     19  C   UNL     1      34.864  -9.595 -25.424  0.00  0.00    +0.007 C 
ATOM     20  C   UNL     1      32.452  -7.167 -23.969  0.00  0.00    +0.261 C 
ATOM     21  C   UNL     1      33.444 -11.882 -22.529  0.00  0.00    +0.006 C 
ATOM     22  C   UNL     1      30.737 -11.357 -21.896  0.00  0.00    +0.017 C 
ATOM     23  C   UNL     1      32.646 -12.858 -21.920  0.00  0.00    +0.054 C 
ATOM     24  C   UNL     1      31.314 -12.598 -21.609  0.00  0.00    +0.006 C 
ATOM     25  H   UNL     1      30.362  -8.676 -22.801  0.00  0.00    +0.166 HD
ATOM     26  H   UNL     1      33.892  -5.976 -24.819  0.00  0.00    +0.150 HD
ENDBRANCH   5  23
BRANCH   7  29
ATOM     27  O   UNL     1      36.718 -19.109 -20.614  0.00  0.00    -0.268 OA
ATOM     28  N   UNL     1      34.580 -19.969 -20.704  0.00  0.00    -0.301 N 
ATOM     29  C   UNL     1      35.569 -19.054 -21.102  0.00  0.00    +0.272 C 
ATOM     30  H   UNL     1      33.685 -19.895 -21.108  0.00  0.00    +0.150 HD
BRANCH  28  31
ATOM     31  C   UNL     1      34.809 -21.012 -19.730  0.00  0.00    +0.067 C 
BRANCH  31  32
ATOM     32  C   UNL     1      33.521 -21.758 -19.408  0.00  0.00    -0.056 C 
BRANCH  32  33
ATOM     33  N   UNL     1      33.773 -22.799 -18.420  0.00  0.00    +0.385 N 
ATOM     34  C   UNL     1      32.643 -22.917 -17.495  0.00  0.00    -0.101 C 
ATOM     35  C   UNL     1      35.006 -22.524 -17.682  0.00  0.00    -0.101 C 
ATOM     36  H   UNL     1      33.881 -23.685 -18.914  0.00  0.00    -0.080 HD
ENDBRANCH  32  33
ENDBRANCH  31  32
ENDBRANCH  28  31
ENDBRANCH   7  29
TORSDOF 5
ENDMDL
MODEL 9
REMARK VINA RESULT:      -8.8      5.248      9.247
REMARK  Name = 16741237
REMARK  5 active torsions:
REMARK  status: ('A' for Active; 'I' for Inactive)
REMARK    1  A    between atoms: C_5  and  C_23
REMARK    2  A    between atoms: C_7  and  C_29
REMARK    3  A    between atoms: N_28  and  C_31
REMARK    4  A    between atoms: C_31  and  C_32
REMARK    5  A    between atoms: C_32  and  N_33
REMARK                            x       y       z     vdW  Elec       q    Type
REMARK                         _______ _______ _______ _____ _____    ______ ____
ROOT
ATOM      1  S   UNL     1      33.179 -14.036 -25.706  0.00  0.00    -0.059 S 
ATOM      2  O   UNL     1      32.972 -13.837 -21.060  0.00  0.00    -0.270 OA
ATOM      3  N   UNL     1      32.814 -13.061 -23.274  0.00  0.00    -0.251 N 
ATOM      4  N   UNL     1      33.504 -15.382 -23.523  0.00  0.00    -0.380 NA
ATOM      5  C   UNL     1      32.734 -12.936 -21.881  0.00  0.00    +0.252 C 
ATOM      6  C   UNL     1      33.173 -14.203 -23.998  0.00  0.00    +0.213 C 
ATOM      7  C   UNL     1      33.786 -16.225 -24.581  0.00  0.00    +0.175 C 
ATOM      8  C   UNL     1      33.666 -15.675 -25.839  0.00  0.00    +0.129 C 
ATOM      9  H   UNL     1      32.595 -12.258 -23.800  0.00  0.00    +0.158 HD
ENDROOT
BRANCH   5  23
ATOM     10  O   UNL     1      30.726  -4.941 -20.738  0.00  0.00    -0.269 OA
ATOM     11  N   UNL     1      31.336  -7.797 -20.223  0.00  0.00    -0.350 N 
ATOM     12  N   UNL     1      31.613  -5.223 -22.846  0.00  0.00    -0.299 N 
ATOM     13  C   UNL     1      32.047  -7.516 -23.790  0.00  0.00    +0.044 C 
ATOM     14  C   UNL     1      31.850  -7.970 -22.377  0.00  0.00    +0.001 A 
ATOM     15  C   UNL     1      32.416  -6.016 -23.781  0.00  0.00    +0.094 C 
ATOM     16  C   UNL     1      31.465  -7.088 -21.386  0.00  0.00    +0.107 A 
ATOM     17  C   UNL     1      31.982  -9.259 -21.789  0.00  0.00    +0.013 A 
ATOM     18  C   UNL     1      31.654  -9.121 -20.437  0.00  0.00    +0.056 A 
ATOM     19  C   UNL     1      30.793  -7.764 -24.632  0.00  0.00    +0.007 C 
ATOM     20  C   UNL     1      31.230  -5.677 -21.584  0.00  0.00    +0.261 C 
ATOM     21  C   UNL     1      32.340 -10.533 -22.272  0.00  0.00    +0.006 C 
ATOM     22  C   UNL     1      31.673 -10.197 -19.543  0.00  0.00    +0.017 C 
ATOM     23  C   UNL     1      32.364 -11.618 -21.388  0.00  0.00    +0.054 C 
ATOM     24  C   UNL     1      32.036 -11.451 -20.045  0.00  0.00    +0.006 C 
ATOM     25  H   UNL     1      31.057  -7.416 -19.358  0.00  0.00    +0.166 HD
ATOM     26  H   UNL     1      31.329  -4.322 -23.123  0.00  0.00    +0.150 HD
ENDBRANCH   5  23
BRANCH   7  29
ATOM     27  O   UNL     1      34.217 -18.447 -25.241  0.00  0.00    -0.268 OA
ATOM     28  N   UNL     1      34.560 -17.908 -23.025  0.00  0.00    -0.301 N 
ATOM     29  C   UNL     1      34.180 -17.584 -24.338  0.00  0.00    +0.272 C 
ATOM     30  H   UNL     1      34.519 -17.203 -22.339  0.00  0.00    +0.150 HD
BRANCH  28  31
ATOM     31  C   UNL     1      35.009 -19.224 -22.629  0.00  0.00    +0.067 C 
BRANCH  31  32
ATOM     32  C   UNL     1      35.936 -19.150 -21.424  0.00  0.00    -0.056 C 
BRANCH  32  33
ATOM     33  N   UNL     1      35.363 -19.878 -20.299  0.00  0.00    +0.385 N 
ATOM     34  C   UNL     1      36.162 -21.066 -19.990  0.00  0.00    -0.101 C 
ATOM     35  C   UNL     1      33.978 -20.258 -20.582  0.00  0.00    -0.101 C 
ATOM     36  H   UNL     1      35.370 -19.262 -19.486  0.00  0.00    -0.080 HD
ENDBRANCH  32  33
ENDBRANCH  31  32
ENDBRANCH  28  31
ENDBRANCH   7  29
TORSDOF 5
ENDMDL
