MODEL 1
REMARK VINA RESULT:      -9.3      0.000      0.000
REMARK  Name = 657105
REMARK  6 active torsions:
REMARK  status: ('A' for Active; 'I' for Inactive)
REMARK    1  A    between atoms: S_1  and  C_5
REMARK    2  A    between atoms: S_1  and  N_13
REMARK    3  A    between atoms: C_6  and  C_10
REMARK    4  A    between atoms: C_10  and  O_11
REMARK    5  A    between atoms: N_13  and  C_15
REMARK    6  A    between atoms: C_18  and  N_23
REMARK                            x       y       z     vdW  Elec       q    Type
REMARK                         _______ _______ _______ _____ _____    ______ ____
ROOT
ATOM      1  S   UNL     1      33.715 -16.329 -21.188  0.00  0.00    +0.074 S 
ATOM      2  O   UNL     1      32.449 -16.552 -20.517  0.00  0.00    -0.150 OA
ATOM      3  O   UNL     1      34.858 -15.806 -20.467  0.00  0.00    -0.150 OA
ENDROOT
BRANCH   1   5
ATOM      4  S   UNL     1      33.145 -13.780 -24.526  0.00  0.00    -0.079 S 
ATOM      5  C   UNL     1      33.316 -15.094 -22.367  0.00  0.00    +0.138 C 
ATOM      6  C   UNL     1      33.709 -15.148 -23.664  0.00  0.00    +0.124 C 
ATOM      7  C   UNL     1      32.558 -13.961 -22.031  0.00  0.00    +0.028 C 
ATOM      8  C   UNL     1      32.384 -13.146 -23.129  0.00  0.00    +0.037 C 
BRANCH   6  10
ATOM      9  O   UNL     1      34.106 -16.853 -25.301  0.00  0.00    -0.244 OA
ATOM     10  C   UNL     1      34.480 -16.125 -24.364  0.00  0.00    +0.345 C 
BRANCH  10  11
ATOM     11  O   UNL     1      35.769 -16.223 -23.901  0.00  0.00    -0.477 OA
ATOM     12  H   UNL     1      36.199 -15.468 -23.549  0.00  0.00    +0.295 HD
ENDBRANCH  10  11
ENDBRANCH   6  10
ENDBRANCH   1   5
BRANCH   1  13
ATOM     13  N   UNL     1      34.156 -17.751 -22.069  0.00  0.00    -0.215 N 
ATOM     14  H   UNL     1      33.966 -17.841 -23.031  0.00  0.00    +0.174 HD
BRANCH  13  15
ATOM     15  C   UNL     1      34.809 -18.786 -21.336  0.00  0.00    +0.066 C 
ATOM     16  C   UNL     1      34.060 -19.818 -20.769  0.00  0.00    +0.040 C 
ATOM     17  C   UNL     1      36.195 -18.768 -21.186  0.00  0.00    +0.016 C 
ATOM     18  C   UNL     1      34.698 -20.831 -20.053  0.00  0.00    +0.144 C 
ATOM     19  C   UNL     1      36.834 -19.781 -20.470  0.00  0.00    +0.003 C 
ATOM     20  C   UNL     1      36.084 -20.812 -19.904  0.00  0.00    +0.024 C 
BRANCH  18  23
ATOM     21  O   UNL     1      34.526 -22.922 -19.097  0.00  0.00    -0.126 OA
ATOM     22  O   UNL     1      32.695 -21.743 -19.365  0.00  0.00    -0.126 OA
ATOM     23  N   UNL     1      33.937 -21.882 -19.478  0.00  0.00    +0.058 N 
ENDBRANCH  18  23
ENDBRANCH  13  15
ENDBRANCH   1  13
TORSDOF 6
ENDMDL
MODEL 2
REMARK VINA RESULT:      -9.1      1.636      2.866
REMARK  Name = 657105
REMARK  6 active torsions:
REMARK  status: ('A' for Active; 'I' for Inactive)
REMARK    1  A    between atoms: S_1  and  C_5
REMARK    2  A    between atoms: S_1  and  N_13
REMARK    3  A    between atoms: C_6  and  C_10
REMARK    4  A    between atoms: C_10  and  O_11
REMARK    5  A    between atoms: N_13  and  C_15
REMARK    6  A    between atoms: C_18  and  N_23
REMARK                            x       y       z     vdW  Elec       q    Type
REMARK                         _______ _______ _______ _____ _____    ______ ____
ROOT
ATOM      1  S   UNL     1      35.081 -18.392 -22.992  0.00  0.00    +0.074 S 
ATOM      2  O   UNL     1      36.410 -17.989 -22.574  0.00  0.00    -0.150 OA
ATOM      3  O   UNL     1      34.895 -19.387 -24.030  0.00  0.00    -0.150 OA
ENDROOT
BRANCH   1   5
ATOM      4  S   UNL     1      33.430 -14.589 -23.874  0.00  0.00    -0.079 S 
ATOM      5  C   UNL     1      34.419 -16.910 -23.659  0.00  0.00    +0.138 C 
ATOM      6  C   UNL     1      34.024 -15.861 -22.895  0.00  0.00    +0.124 C 
ATOM      7  C   UNL     1      34.256 -16.723 -25.041  0.00  0.00    +0.028 C 
ATOM      8  C   UNL     1      33.719 -15.482 -25.307  0.00  0.00    +0.037 C 
BRANCH   6  10
ATOM      9  O   UNL     1      34.974 -15.276 -20.774  0.00  0.00    -0.244 OA
ATOM     10  C   UNL     1      34.033 -15.685 -21.478  0.00  0.00    +0.345 C 
BRANCH  10  11
ATOM     11  O   UNL     1      32.841 -16.024 -20.888  0.00  0.00    -0.477 OA
ATOM     12  H   UNL     1      32.041 -15.643 -21.194  0.00  0.00    +0.295 HD
ENDBRANCH  10  11
ENDBRANCH   6  10
ENDBRANCH   1   5
BRANCH   1  13
ATOM     13  N   UNL     1      34.136 -18.789 -21.598  0.00  0.00    -0.215 N 
ATOM     14  H   UNL     1      33.294 -18.321 -21.396  0.00  0.00    +0.174 HD
BRANCH  13  15
ATOM     15  C   UNL     1      34.637 -19.826 -20.756  0.00  0.00    +0.066 C 
ATOM     16  C   UNL     1      33.753 -20.717 -20.145  0.00  0.00    +0.040 C 
ATOM     17  C   UNL     1      36.010 -19.951 -20.545  0.00  0.00    +0.016 C 
ATOM     18  C   UNL     1      34.243 -21.731 -19.323  0.00  0.00    +0.144 C 
ATOM     19  C   UNL     1      36.500 -20.966 -19.722  0.00  0.00    +0.003 C 
ATOM     20  C   UNL     1      35.616 -21.856 -19.111  0.00  0.00    +0.024 C 
BRANCH  18  23
ATOM     21  O   UNL     1      32.251 -22.207 -18.261  0.00  0.00    -0.126 OA
ATOM     22  O   UNL     1      33.668 -23.847 -18.609  0.00  0.00    -0.126 OA
ATOM     23  N   UNL     1      33.345 -22.638 -18.702  0.00  0.00    +0.058 N 
ENDBRANCH  18  23
ENDBRANCH  13  15
ENDBRANCH   1  13
TORSDOF 6
ENDMDL
MODEL 3
REMARK VINA RESULT:      -9.1      9.237     11.345
REMARK  Name = 657105
REMARK  6 active torsions:
REMARK  status: ('A' for Active; 'I' for Inactive)
REMARK    1  A    between atoms: S_1  and  C_5
REMARK    2  A    between atoms: S_1  and  N_13
REMARK    3  A    between atoms: C_6  and  C_10
REMARK    4  A    between atoms: C_10  and  O_11
REMARK    5  A    between atoms: N_13  and  C_15
REMARK    6  A    between atoms: C_18  and  N_23
REMARK                            x       y       z     vdW  Elec       q    Type
REMARK                         _______ _______ _______ _____ _____    ______ ____
ROOT
ATOM      1  S   UNL     1      34.857 -23.482 -15.209  0.00  0.00    +0.074 S 
ATOM      2  O   UNL     1      34.278 -24.212 -16.321  0.00  0.00    -0.150 OA
ATOM      3  O   UNL     1      35.729 -22.347 -15.435  0.00  0.00    -0.150 OA
ENDROOT
BRANCH   1   5
ATOM      4  S   UNL     1      37.273 -25.940 -12.741  0.00  0.00    -0.079 S 
ATOM      5  C   UNL     1      35.871 -24.689 -14.440  0.00  0.00    +0.138 C 
ATOM      6  C   UNL     1      36.308 -24.589 -13.159  0.00  0.00    +0.124 C 
ATOM      7  C   UNL     1      36.297 -25.844 -15.115  0.00  0.00    +0.028 C 
ATOM      8  C   UNL     1      37.080 -26.629 -14.297  0.00  0.00    +0.037 C 
BRANCH   6  10
ATOM      9  O   UNL     1      36.890 -22.700 -11.804  0.00  0.00    -0.244 OA
ATOM     10  C   UNL     1      36.089 -23.576 -12.177  0.00  0.00    +0.345 C 
BRANCH  10  11
ATOM     11  O   UNL     1      34.835 -23.631 -11.621  0.00  0.00    -0.477 OA
ATOM     12  H   UNL     1      34.725 -23.937 -10.742  0.00  0.00    +0.295 HD
ENDBRANCH  10  11
ENDBRANCH   6  10
ENDBRANCH   1   5
BRANCH   1  13
ATOM     13  N   UNL     1      33.611 -23.072 -14.081  0.00  0.00    -0.215 N 
ATOM     14  H   UNL     1      33.794 -22.513 -13.291  0.00  0.00    +0.174 HD
BRANCH  13  15
ATOM     15  C   UNL     1      32.306 -23.583 -14.349  0.00  0.00    +0.066 C 
ATOM     16  C   UNL     1      31.372 -22.794 -15.023  0.00  0.00    +0.040 C 
ATOM     17  C   UNL     1      31.964 -24.872 -13.940  0.00  0.00    +0.016 C 
ATOM     18  C   UNL     1      30.098 -23.294 -15.286  0.00  0.00    +0.144 C 
ATOM     19  C   UNL     1      30.688 -25.372 -14.203  0.00  0.00    +0.003 C 
ATOM     20  C   UNL     1      29.756 -24.583 -14.877  0.00  0.00    +0.024 C 
BRANCH  18  23
ATOM     21  O   UNL     1      28.220 -21.956 -15.320  0.00  0.00    -0.126 OA
ATOM     22  O   UNL     1      29.261 -22.343 -17.213  0.00  0.00    -0.126 OA
ATOM     23  N   UNL     1      29.148 -22.493 -15.972  0.00  0.00    +0.058 N 
ENDBRANCH  18  23
ENDBRANCH  13  15
ENDBRANCH   1  13
TORSDOF 6
ENDMDL
MODEL 4
REMARK VINA RESULT:      -9.0      9.044     10.951
REMARK  Name = 657105
REMARK  6 active torsions:
REMARK  status: ('A' for Active; 'I' for Inactive)
REMARK    1  A    between atoms: S_1  and  C_5
REMARK    2  A    between atoms: S_1  and  N_13
REMARK    3  A    between atoms: C_6  and  C_10
REMARK    4  A    between atoms: C_10  and  O_11
REMARK    5  A    between atoms: N_13  and  C_15
REMARK    6  A    between atoms: C_18  and  N_23
REMARK                            x       y       z     vdW  Elec       q    Type
REMARK                         _______ _______ _______ _____ _____    ______ ____
ROOT
ATOM      1  S   UNL     1      35.536 -23.760 -15.332  0.00  0.00    +0.074 S 
ATOM      2  O   UNL     1      35.125 -25.129 -15.579  0.00  0.00    -0.150 OA
ATOM      3  O   UNL     1      36.412 -23.067 -16.256  0.00  0.00    -0.150 OA
ENDROOT
BRANCH   1   5
ATOM      4  S   UNL     1      38.286 -24.425 -12.176  0.00  0.00    -0.079 S 
ATOM      5  C   UNL     1      36.457 -23.894 -13.845  0.00  0.00    +0.138 C 
ATOM      6  C   UNL     1      37.685 -24.466 -13.778  0.00  0.00    +0.124 C 
ATOM      7  C   UNL     1      35.967 -23.413 -12.620  0.00  0.00    +0.028 C 
ATOM      8  C   UNL     1      36.875 -23.638 -11.608  0.00  0.00    +0.037 C 
BRANCH   6  10
ATOM      9  O   UNL     1      38.645 -26.273 -15.026  0.00  0.00    -0.244 OA
ATOM     10  C   UNL     1      38.493 -25.060 -14.796  0.00  0.00    +0.345 C 
BRANCH  10  11
ATOM     11  O   UNL     1      39.147 -24.134 -15.569  0.00  0.00    -0.477 OA
ATOM     12  H   UNL     1      39.018 -23.219 -15.414  0.00  0.00    +0.295 HD
ENDBRANCH  10  11
ENDBRANCH   6  10
ENDBRANCH   1   5
BRANCH   1  13
ATOM     13  N   UNL     1      34.143 -22.796 -14.982  0.00  0.00    -0.215 N 
ATOM     14  H   UNL     1      34.205 -21.820 -14.875  0.00  0.00    +0.174 HD
BRANCH  13  15
ATOM     15  C   UNL     1      32.899 -23.485 -14.855  0.00  0.00    +0.066 C 
ATOM     16  C   UNL     1      31.841 -23.179 -15.712  0.00  0.00    +0.040 C 
ATOM     17  C   UNL     1      32.742 -24.465 -13.875  0.00  0.00    +0.016 C 
ATOM     18  C   UNL     1      30.627 -23.853 -15.589  0.00  0.00    +0.144 C 
ATOM     19  C   UNL     1      31.527 -25.140 -13.751  0.00  0.00    +0.003 C 
ATOM     20  C   UNL     1      30.470 -24.833 -14.609  0.00  0.00    +0.024 C 
BRANCH  18  23
ATOM     21  O   UNL     1      28.597 -24.354 -16.562  0.00  0.00    -0.126 OA
ATOM     22  O   UNL     1      29.582 -22.470 -17.108  0.00  0.00    -0.126 OA
ATOM     23  N   UNL     1      29.551 -23.544 -16.461  0.00  0.00    +0.058 N 
ENDBRANCH  18  23
ENDBRANCH  13  15
ENDBRANCH   1  13
TORSDOF 6
ENDMDL
MODEL 5
REMARK VINA RESULT:      -8.7      1.761      2.125
REMARK  Name = 657105
REMARK  6 active torsions:
REMARK  status: ('A' for Active; 'I' for Inactive)
REMARK    1  A    between atoms: S_1  and  C_5
REMARK    2  A    between atoms: S_1  and  N_13
REMARK    3  A    between atoms: C_6  and  C_10
REMARK    4  A    between atoms: C_10  and  O_11
REMARK    5  A    between atoms: N_13  and  C_15
REMARK    6  A    between atoms: C_18  and  N_23
REMARK                            x       y       z     vdW  Elec       q    Type
REMARK                         _______ _______ _______ _____ _____    ______ ____
ROOT
ATOM      1  S   UNL     1      34.807 -18.065 -22.732  0.00  0.00    +0.074 S 
ATOM      2  O   UNL     1      36.228 -18.031 -22.443  0.00  0.00    -0.150 OA
ATOM      3  O   UNL     1      34.307 -18.690 -23.940  0.00  0.00    -0.150 OA
ENDROOT
BRANCH   1   5
ATOM      4  S   UNL     1      33.778 -14.116 -23.879  0.00  0.00    -0.079 S 
ATOM      5  C   UNL     1      34.404 -16.366 -22.898  0.00  0.00    +0.138 C 
ATOM      6  C   UNL     1      34.126 -15.779 -24.089  0.00  0.00    +0.124 C 
ATOM      7  C   UNL     1      34.348 -15.502 -21.792  0.00  0.00    +0.028 C 
ATOM      8  C   UNL     1      34.012 -14.225 -22.185  0.00  0.00    +0.037 C 
BRANCH   6  10
ATOM      9  O   UNL     1      33.108 -16.382 -26.173  0.00  0.00    -0.244 OA
ATOM     10  C   UNL     1      34.088 -16.323 -25.409  0.00  0.00    +0.345 C 
BRANCH  10  11
ATOM     11  O   UNL     1      35.300 -16.821 -25.819  0.00  0.00    -0.477 OA
ATOM     12  H   UNL     1      35.602 -16.659 -26.691  0.00  0.00    +0.295 HD
ENDBRANCH  10  11
ENDBRANCH   6  10
ENDBRANCH   1   5
BRANCH   1  13
ATOM     13  N   UNL     1      33.954 -18.657 -21.348  0.00  0.00    -0.215 N 
ATOM     14  H   UNL     1      33.107 -18.251 -21.052  0.00  0.00    +0.174 HD
BRANCH  13  15
ATOM     15  C   UNL     1      34.537 -19.760 -20.656  0.00  0.00    +0.066 C 
ATOM     16  C   UNL     1      33.719 -20.723 -20.064  0.00  0.00    +0.040 C 
ATOM     17  C   UNL     1      35.925 -19.877 -20.574  0.00  0.00    +0.016 C 
ATOM     18  C   UNL     1      34.289 -21.802 -19.389  0.00  0.00    +0.144 C 
ATOM     19  C   UNL     1      36.495 -20.956 -19.898  0.00  0.00    +0.003 C 
ATOM     20  C   UNL     1      35.677 -21.919 -19.306  0.00  0.00    +0.024 C 
BRANCH  18  23
ATOM     21  O   UNL     1      32.403 -22.419 -18.214  0.00  0.00    -0.126 OA
ATOM     22  O   UNL     1      33.801 -23.989 -18.845  0.00  0.00    -0.126 OA
ATOM     23  N   UNL     1      33.459 -22.783 -18.787  0.00  0.00    +0.058 N 
ENDBRANCH  18  23
ENDBRANCH  13  15
ENDBRANCH   1  13
TORSDOF 6
ENDMDL
MODEL 6
REMARK VINA RESULT:      -8.7      3.177      7.333
REMARK  Name = 657105
REMARK  6 active torsions:
REMARK  status: ('A' for Active; 'I' for Inactive)
REMARK    1  A    between atoms: S_1  and  C_5
REMARK    2  A    between atoms: S_1  and  N_13
REMARK    3  A    between atoms: C_6  and  C_10
REMARK    4  A    between atoms: C_10  and  O_11
REMARK    5  A    between atoms: N_13  and  C_15
REMARK    6  A    between atoms: C_18  and  N_23
REMARK                            x       y       z     vdW  Elec       q    Type
REMARK                         _______ _______ _______ _____ _____    ______ ____
ROOT
ATOM      1  S   UNL     1      36.245 -20.814 -19.893  0.00  0.00    +0.074 S 
ATOM      2  O   UNL     1      36.499 -21.919 -20.798  0.00  0.00    -0.150 OA
ATOM      3  O   UNL     1      37.260 -19.811 -19.638  0.00  0.00    -0.150 OA
ENDROOT
BRANCH   1   5
ATOM      4  S   UNL     1      35.011 -23.012 -16.485  0.00  0.00    -0.079 S 
ATOM      5  C   UNL     1      36.004 -21.621 -18.354  0.00  0.00    +0.138 C 
ATOM      6  C   UNL     1      34.917 -22.382 -18.074  0.00  0.00    +0.124 C 
ATOM      7  C   UNL     1      36.936 -21.523 -17.309  0.00  0.00    +0.028 C 
ATOM      8  C   UNL     1      36.517 -22.244 -16.211  0.00  0.00    +0.037 C 
BRANCH   6  10
ATOM      9  O   UNL     1      32.730 -22.045 -18.995  0.00  0.00    -0.244 OA
ATOM     10  C   UNL     1      33.776 -22.706 -18.870  0.00  0.00    +0.345 C 
BRANCH  10  11
ATOM     11  O   UNL     1      33.916 -23.892 -19.547  0.00  0.00    -0.477 OA
ATOM     12  H   UNL     1      34.090 -24.683 -19.076  0.00  0.00    +0.295 HD
ENDBRANCH  10  11
ENDBRANCH   6  10
ENDBRANCH   1   5
BRANCH   1  13
ATOM     13  N   UNL     1      34.744 -20.062 -20.313  0.00  0.00    -0.215 N 
ATOM     14  H   UNL     1      33.900 -20.316 -19.874  0.00  0.00    +0.174 HD
BRANCH  13  15
ATOM     15  C   UNL     1      34.789 -19.058 -21.326  0.00  0.00    +0.066 C 
ATOM     16  C   UNL     1      34.736 -17.709 -20.975  0.00  0.00    +0.040 C 
ATOM     17  C   UNL     1      34.888 -19.426 -22.668  0.00  0.00    +0.016 C 
ATOM     18  C   UNL     1      34.781 -16.728 -21.965  0.00  0.00    +0.144 C 
ATOM     19  C   UNL     1      34.932 -18.445 -23.659  0.00  0.00    +0.003 C 
ATOM     20  C   UNL     1      34.879 -17.096 -23.307  0.00  0.00    +0.024 C 
BRANCH  18  23
ATOM     21  O   UNL     1      34.864 -15.034 -20.402  0.00  0.00    -0.126 OA
ATOM     22  O   UNL     1      34.547 -14.499 -22.508  0.00  0.00    -0.126 OA
ATOM     23  N   UNL     1      34.728 -15.355 -21.608  0.00  0.00    +0.058 N 
ENDBRANCH  18  23
ENDBRANCH  13  15
ENDBRANCH   1  13
TORSDOF 6
ENDMDL
MODEL 7
REMARK VINA RESULT:      -8.6      8.295     10.519
REMARK  Name = 657105
REMARK  6 active torsions:
REMARK  status: ('A' for Active; 'I' for Inactive)
REMARK    1  A    between atoms: S_1  and  C_5
REMARK    2  A    between atoms: S_1  and  N_13
REMARK    3  A    between atoms: C_6  and  C_10
REMARK    4  A    between atoms: C_10  and  O_11
REMARK    5  A    between atoms: N_13  and  C_15
REMARK    6  A    between atoms: C_18  and  N_23
REMARK                            x       y       z     vdW  Elec       q    Type
REMARK                         _______ _______ _______ _____ _____    ______ ____
ROOT
ATOM      1  S   UNL     1      34.673 -23.654 -15.886  0.00  0.00    +0.074 S 
ATOM      2  O   UNL     1      35.136 -23.046 -17.118  0.00  0.00    -0.150 OA
ATOM      3  O   UNL     1      34.801 -25.080 -15.664  0.00  0.00    -0.150 OA
ENDROOT
BRANCH   1   5
ATOM      4  S   UNL     1      30.508 -23.162 -15.268  0.00  0.00    -0.079 S 
ATOM      5  C   UNL     1      32.945 -23.354 -15.931  0.00  0.00    +0.138 C 
ATOM      6  C   UNL     1      32.125 -23.555 -14.869  0.00  0.00    +0.124 C 
ATOM      7  C   UNL     1      32.301 -22.883 -17.087  0.00  0.00    +0.028 C 
ATOM      8  C   UNL     1      30.949 -22.730 -16.866  0.00  0.00    +0.037 C 
BRANCH   6  10
ATOM      9  O   UNL     1      32.443 -25.200 -13.156  0.00  0.00    -0.244 OA
ATOM     10  C   UNL     1      32.409 -24.021 -13.549  0.00  0.00    +0.345 C 
BRANCH  10  11
ATOM     11  O   UNL     1      32.663 -23.002 -12.664  0.00  0.00    -0.477 OA
ATOM     12  H   UNL     1      32.514 -23.129 -11.748  0.00  0.00    +0.295 HD
ENDBRANCH  10  11
ENDBRANCH   6  10
ENDBRANCH   1   5
BRANCH   1  13
ATOM     13  N   UNL     1      35.306 -22.773 -14.538  0.00  0.00    -0.215 N 
ATOM     14  H   UNL     1      35.011 -21.856 -14.337  0.00  0.00    +0.174 HD
BRANCH  13  15
ATOM     15  C   UNL     1      36.277 -23.440 -13.733  0.00  0.00    +0.066 C 
ATOM     16  C   UNL     1      37.363 -24.078 -14.334  0.00  0.00    +0.040 C 
ATOM     17  C   UNL     1      36.141 -23.454 -12.345  0.00  0.00    +0.016 C 
ATOM     18  C   UNL     1      38.312 -24.728 -13.547  0.00  0.00    +0.144 C 
ATOM     19  C   UNL     1      37.091 -24.105 -11.557  0.00  0.00    +0.003 C 
ATOM     20  C   UNL     1      38.177 -24.742 -12.158  0.00  0.00    +0.024 C 
BRANCH  18  23
ATOM     21  O   UNL     1      39.243 -26.487 -14.713  0.00  0.00    -0.126 OA
ATOM     22  O   UNL     1      40.543 -24.819 -14.124  0.00  0.00    -0.126 OA
ATOM     23  N   UNL     1      39.418 -25.376 -14.157  0.00  0.00    +0.058 N 
ENDBRANCH  18  23
ENDBRANCH  13  15
ENDBRANCH   1  13
TORSDOF 6
ENDMDL
MODEL 8
REMARK VINA RESULT:      -8.5      1.688      2.318
REMARK  Name = 657105
REMARK  6 active torsions:
REMARK  status: ('A' for Active; 'I' for Inactive)
REMARK    1  A    between atoms: S_1  and  C_5
REMARK    2  A    between atoms: S_1  and  N_13
REMARK    3  A    between atoms: C_6  and  C_10
REMARK    4  A    between atoms: C_10  and  O_11
REMARK    5  A    between atoms: N_13  and  C_15
REMARK    6  A    between atoms: C_18  and  N_23
REMARK                            x       y       z     vdW  Elec       q    Type
REMARK                         _______ _______ _______ _____ _____    ______ ____
ROOT
ATOM      1  S   UNL     1      35.103 -17.373 -22.041  0.00  0.00    +0.074 S 
ATOM      2  O   UNL     1      35.159 -16.998 -20.641  0.00  0.00    -0.150 OA
ATOM      3  O   UNL     1      36.316 -17.612 -22.797  0.00  0.00    -0.150 OA
ENDROOT
BRANCH   1   5
ATOM      4  S   UNL     1      33.388 -14.377 -24.499  0.00  0.00    -0.079 S 
ATOM      5  C   UNL     1      34.368 -15.968 -22.790  0.00  0.00    +0.138 C 
ATOM      6  C   UNL     1      34.103 -15.884 -24.118  0.00  0.00    +0.124 C 
ATOM      7  C   UNL     1      34.007 -14.832 -22.048  0.00  0.00    +0.028 C 
ATOM      8  C   UNL     1      33.452 -13.870 -22.864  0.00  0.00    +0.037 C 
BRANCH   6  10
ATOM      9  O   UNL     1      33.617 -17.794 -25.481  0.00  0.00    -0.244 OA
ATOM     10  C   UNL     1      34.327 -16.820 -25.173  0.00  0.00    +0.345 C 
BRANCH  10  11
ATOM     11  O   UNL     1      35.471 -16.560 -25.887  0.00  0.00    -0.477 OA
ATOM     12  H   UNL     1      35.676 -15.681 -26.138  0.00  0.00    +0.295 HD
ENDBRANCH  10  11
ENDBRANCH   6  10
ENDBRANCH   1   5
BRANCH   1  13
ATOM     13  N   UNL     1      33.999 -18.691 -22.238  0.00  0.00    -0.215 N 
ATOM     14  H   UNL     1      33.421 -18.764 -23.032  0.00  0.00    +0.174 HD
BRANCH  13  15
ATOM     15  C   UNL     1      33.966 -19.664 -21.196  0.00  0.00    +0.066 C 
ATOM     16  C   UNL     1      35.157 -20.195 -20.698  0.00  0.00    +0.040 C 
ATOM     17  C   UNL     1      32.743 -20.085 -20.673  0.00  0.00    +0.016 C 
ATOM     18  C   UNL     1      35.124 -21.145 -19.678  0.00  0.00    +0.144 C 
ATOM     19  C   UNL     1      32.710 -21.036 -19.653  0.00  0.00    +0.003 C 
ATOM     20  C   UNL     1      33.901 -21.566 -19.156  0.00  0.00    +0.024 C 
BRANCH  18  23
ATOM     21  O   UNL     1      36.351 -22.155 -18.006  0.00  0.00    -0.126 OA
ATOM     22  O   UNL     1      37.357 -21.676 -19.897  0.00  0.00    -0.126 OA
ATOM     23  N   UNL     1      36.334 -21.684 -19.170  0.00  0.00    +0.058 N 
ENDBRANCH  18  23
ENDBRANCH  13  15
ENDBRANCH   1  13
TORSDOF 6
ENDMDL
MODEL 9
REMARK VINA RESULT:      -8.5      8.494     10.576
REMARK  Name = 657105
REMARK  6 active torsions:
REMARK  status: ('A' for Active; 'I' for Inactive)
REMARK    1  A    between atoms: S_1  and  C_5
REMARK    2  A    between atoms: S_1  and  N_13
REMARK    3  A    between atoms: C_6  and  C_10
REMARK    4  A    between atoms: C_10  and  O_11
REMARK    5  A    between atoms: N_13  and  C_15
REMARK    6  A    between atoms: C_18  and  N_23
REMARK                            x       y       z     vdW  Elec       q    Type
REMARK                         _______ _______ _______ _____ _____    ______ ____
ROOT
ATOM      1  S   UNL     1      34.291 -23.525 -15.936  0.00  0.00    +0.074 S 
ATOM      2  O   UNL     1      34.808 -22.486 -15.066  0.00  0.00    -0.150 OA
ATOM      3  O   UNL     1      34.580 -23.521 -17.356  0.00  0.00    -0.150 OA
ENDROOT
BRANCH   1   5
ATOM      4  S   UNL     1      30.189 -23.159 -14.931  0.00  0.00    -0.079 S 
ATOM      5  C   UNL     1      32.555 -23.296 -15.824  0.00  0.00    +0.138 C 
ATOM      6  C   UNL     1      31.854 -23.465 -14.675  0.00  0.00    +0.124 C 
ATOM      7  C   UNL     1      31.780 -22.921 -16.933  0.00  0.00    +0.028 C 
ATOM      8  C   UNL     1      30.452 -22.807 -16.586  0.00  0.00    +0.037 C 
BRANCH   6  10
ATOM      9  O   UNL     1      32.606 -24.975 -12.974  0.00  0.00    -0.244 OA
ATOM     10  C   UNL     1      32.286 -23.839 -13.366  0.00  0.00    +0.345 C 
BRANCH  10  11
ATOM     11  O   UNL     1      32.331 -22.781 -12.493  0.00  0.00    -0.477 OA
ATOM     12  H   UNL     1      32.038 -21.934 -12.768  0.00  0.00    +0.295 HD
ENDBRANCH  10  11
ENDBRANCH   6  10
ENDBRANCH   1   5
BRANCH   1  13
ATOM     13  N   UNL     1      34.644 -25.075 -15.253  0.00  0.00    -0.215 N 
ATOM     14  H   UNL     1      34.008 -25.824 -15.318  0.00  0.00    +0.174 HD
BRANCH  13  15
ATOM     15  C   UNL     1      35.900 -25.214 -14.590  0.00  0.00    +0.066 C 
ATOM     16  C   UNL     1      36.165 -24.478 -13.434  0.00  0.00    +0.040 C 
ATOM     17  C   UNL     1      36.862 -26.088 -15.096  0.00  0.00    +0.016 C 
ATOM     18  C   UNL     1      37.392 -24.616 -12.786  0.00  0.00    +0.144 C 
ATOM     19  C   UNL     1      38.090 -26.226 -14.448  0.00  0.00    +0.003 C 
ATOM     20  C   UNL     1      38.354 -25.489 -13.292  0.00  0.00    +0.024 C 
BRANCH  18  23
ATOM     21  O   UNL     1      37.000 -24.108 -10.571  0.00  0.00    -0.126 OA
ATOM     22  O   UNL     1      38.555 -22.987 -11.640  0.00  0.00    -0.126 OA
ATOM     23  N   UNL     1      37.661 -23.868 -11.610  0.00  0.00    +0.058 N 
ENDBRANCH  18  23
ENDBRANCH  13  15
ENDBRANCH   1  13
TORSDOF 6
ENDMDL
