MODEL 1
REMARK VINA RESULT:     -10.7      0.000      0.000
REMARK  Name = 90409366
REMARK  2 active torsions:
REMARK  status: ('A' for Active; 'I' for Inactive)
REMARK    1  A    between atoms: C_15  and  C_21
REMARK    2  A    between atoms: C_24  and  C_30
REMARK                            x       y       z     vdW  Elec       q    Type
REMARK                         _______ _______ _______ _____ _____    ______ ____
ROOT
ATOM      1  F   UNL     1      30.681 -10.048 -19.122  0.00  0.00    -0.205 F 
ATOM      2  O   UNL     1      33.873 -19.269 -23.969  0.00  0.00    -0.270 OA
ATOM      3  N   UNL     1      34.237 -17.281 -22.790  0.00  0.00    -0.273 N 
ATOM      4  N   UNL     1      32.777 -13.473 -22.748  0.00  0.00    -0.142 N 
ATOM      5  N   UNL     1      33.370 -14.194 -24.702  0.00  0.00    -0.148 NA
ATOM      6  N   UNL     1      32.818 -13.164 -24.061  0.00  0.00    -0.036 NA
ATOM      7  N   UNL     1      32.235 -13.003 -20.534  0.00  0.00    -0.199 NA
ATOM      8  N   UNL     1      31.777 -11.421 -22.292  0.00  0.00    -0.177 NA
ATOM      9  C   UNL     1      34.303 -16.464 -24.040  0.00  0.00    +0.115 C 
ATOM     10  C   UNL     1      34.473 -16.573 -21.497  0.00  0.00    +0.096 C 
ATOM     11  C   UNL     1      33.446 -15.447 -21.263  0.00  0.00    +0.050 C 
ATOM     12  C   UNL     1      33.674 -15.145 -23.772  0.00  0.00    +0.096 C 
ATOM     13  C   UNL     1      33.303 -14.703 -22.528  0.00  0.00    +0.147 C 
ATOM     14  C   UNL     1      35.744 -16.334 -24.529  0.00  0.00    +0.028 C 
ATOM     15  C   UNL     1      34.068 -18.667 -22.914  0.00  0.00    +0.250 C 
ATOM     16  C   UNL     1      32.239 -12.592 -21.816  0.00  0.00    +0.110 C 
ATOM     17  C   UNL     1      31.706 -12.125 -19.656  0.00  0.00    +0.195 C 
ATOM     18  C   UNL     1      31.261 -10.592 -21.362  0.00  0.00    +0.138 C 
ATOM     19  C   UNL     1      31.198 -10.892 -20.017  0.00  0.00    +0.163 C 
ENDROOT
BRANCH  15  21
ATOM     20 CL   UNL     1      36.815 -19.346 -21.759  0.00  0.00    -0.082 Cl
ATOM     21  C   UNL     1      34.104 -19.486 -21.695  0.00  0.00    +0.064 C 
ATOM     22  C   UNL     1      35.303 -19.854 -21.084  0.00  0.00    +0.066 C 
ATOM     23  C   UNL     1      32.888 -19.896 -21.149  0.00  0.00    +0.005 C 
ATOM     24  C   UNL     1      35.285 -20.633 -19.928  0.00  0.00    +0.082 C 
ATOM     25  C   UNL     1      32.870 -20.675 -19.992  0.00  0.00    +0.000 C 
ATOM     26  C   UNL     1      34.069 -21.044 -19.381  0.00  0.00    +0.005 C 
BRANCH  24  30
ATOM     27  F   UNL     1      36.305 -21.821 -18.138  0.00  0.00    -0.166 F 
ATOM     28  F   UNL     1      37.377 -21.790 -20.029  0.00  0.00    -0.166 F 
ATOM     29  F   UNL     1      37.298 -20.004 -18.800  0.00  0.00    -0.166 F 
ATOM     30  C   UNL     1      36.544 -21.052 -19.239  0.00  0.00    +0.419 C 
ENDBRANCH  24  30
ENDBRANCH  15  21
TORSDOF 2
ENDMDL
MODEL 2
REMARK VINA RESULT:     -10.5      1.433      1.966
REMARK  Name = 90409366
REMARK  2 active torsions:
REMARK  status: ('A' for Active; 'I' for Inactive)
REMARK    1  A    between atoms: C_15  and  C_21
REMARK    2  A    between atoms: C_24  and  C_30
REMARK                            x       y       z     vdW  Elec       q    Type
REMARK                         _______ _______ _______ _____ _____    ______ ____
ROOT
ATOM      1  F   UNL     1      30.741 -10.379 -18.840  0.00  0.00    -0.205 F 
ATOM      2  O   UNL     1      34.316 -19.233 -24.089  0.00  0.00    -0.270 OA
ATOM      3  N   UNL     1      34.584 -17.145 -23.069  0.00  0.00    -0.273 N 
ATOM      4  N   UNL     1      32.534 -13.631 -22.776  0.00  0.00    -0.142 N 
ATOM      5  N   UNL     1      32.793 -14.363 -24.797  0.00  0.00    -0.148 NA
ATOM      6  N   UNL     1      32.228 -13.399 -24.069  0.00  0.00    -0.036 NA
ATOM      7  N   UNL     1      32.427 -13.121 -20.507  0.00  0.00    -0.199 NA
ATOM      8  N   UNL     1      31.322 -11.746 -22.147  0.00  0.00    -0.177 NA
ATOM      9  C   UNL     1      34.227 -16.405 -24.318  0.00  0.00    +0.115 C 
ATOM     10  C   UNL     1      34.977 -16.330 -21.880  0.00  0.00    +0.096 C 
ATOM     11  C   UNL     1      33.849 -15.375 -21.441  0.00  0.00    +0.050 C 
ATOM     12  C   UNL     1      33.456 -15.193 -23.941  0.00  0.00    +0.096 C 
ATOM     13  C   UNL     1      33.301 -14.743 -22.655  0.00  0.00    +0.147 C 
ATOM     14  C   UNL     1      35.478 -16.072 -25.129  0.00  0.00    +0.028 C 
ATOM     15  C   UNL     1      34.633 -18.544 -23.120  0.00  0.00    +0.250 C 
ATOM     16  C   UNL     1      32.074 -12.795 -21.764  0.00  0.00    +0.110 C 
ATOM     17  C   UNL     1      31.963 -12.290 -19.551  0.00  0.00    +0.195 C 
ATOM     18  C   UNL     1      30.892 -10.957 -21.141  0.00  0.00    +0.138 C 
ATOM     19  C   UNL     1      31.183 -11.181 -19.811  0.00  0.00    +0.163 C 
ENDROOT
BRANCH  15  21
ATOM     20 CL   UNL     1      32.546 -20.194 -21.614  0.00  0.00    -0.082 Cl
ATOM     21  C   UNL     1      35.081 -19.271 -21.925  0.00  0.00    +0.064 C 
ATOM     22  C   UNL     1      34.213 -20.053 -21.163  0.00  0.00    +0.066 C 
ATOM     23  C   UNL     1      36.423 -19.160 -21.560  0.00  0.00    +0.005 C 
ATOM     24  C   UNL     1      34.687 -20.724 -20.036  0.00  0.00    +0.082 C 
ATOM     25  C   UNL     1      36.897 -19.831 -20.432  0.00  0.00    +0.000 C 
ATOM     26  C   UNL     1      36.029 -20.613 -19.670  0.00  0.00    +0.005 C 
BRANCH  24  30
ATOM     27  F   UNL     1      33.430 -22.731 -19.813  0.00  0.00    -0.166 F 
ATOM     28  F   UNL     1      34.364 -21.955 -18.009  0.00  0.00    -0.166 F 
ATOM     29  F   UNL     1      32.627 -20.958 -18.843  0.00  0.00    -0.166 F 
ATOM     30  C   UNL     1      33.794 -21.573 -19.190  0.00  0.00    +0.419 C 
ENDBRANCH  24  30
ENDBRANCH  15  21
TORSDOF 2
ENDMDL
MODEL 3
REMARK VINA RESULT:      -9.5      5.060      8.601
REMARK  Name = 90409366
REMARK  2 active torsions:
REMARK  status: ('A' for Active; 'I' for Inactive)
REMARK    1  A    between atoms: C_15  and  C_21
REMARK    2  A    between atoms: C_24  and  C_30
REMARK                            x       y       z     vdW  Elec       q    Type
REMARK                         _______ _______ _______ _____ _____    ______ ____
ROOT
ATOM      1  F   UNL     1      28.497 -23.478 -15.540  0.00  0.00    -0.205 F 
ATOM      2  O   UNL     1      36.929 -18.682 -20.501  0.00  0.00    -0.270 OA
ATOM      3  N   UNL     1      35.134 -20.178 -20.386  0.00  0.00    -0.273 N 
ATOM      4  N   UNL     1      33.419 -22.645 -17.627  0.00  0.00    -0.142 N 
ATOM      5  N   UNL     1      35.561 -22.878 -17.843  0.00  0.00    -0.148 NA
ATOM      6  N   UNL     1      34.501 -23.293 -17.149  0.00  0.00    -0.036 NA
ATOM      7  N   UNL     1      31.143 -22.154 -17.633  0.00  0.00    -0.199 NA
ATOM      8  N   UNL     1      32.070 -23.751 -16.086  0.00  0.00    -0.177 NA
ATOM      9  C   UNL     1      35.966 -21.243 -19.746  0.00  0.00    +0.115 C 
ATOM     10  C   UNL     1      33.713 -20.515 -20.698  0.00  0.00    +0.096 C 
ATOM     11  C   UNL     1      32.922 -20.898 -19.432  0.00  0.00    +0.050 C 
ATOM     12  C   UNL     1      35.123 -21.968 -18.760  0.00  0.00    +0.096 C 
ATOM     13  C   UNL     1      33.767 -21.807 -18.635  0.00  0.00    +0.147 C 
ATOM     14  C   UNL     1      36.560 -22.175 -20.801  0.00  0.00    +0.028 C 
ATOM     15  C   UNL     1      35.761 -18.978 -20.747  0.00  0.00    +0.250 C 
ATOM     16  C   UNL     1      32.154 -22.860 -17.091  0.00  0.00    +0.110 C 
ATOM     17  C   UNL     1      29.930 -22.386 -17.089  0.00  0.00    +0.195 C 
ATOM     18  C   UNL     1      30.830 -23.933 -15.589  0.00  0.00    +0.138 C 
ATOM     19  C   UNL     1      29.711 -23.273 -16.055  0.00  0.00    +0.163 C 
ENDROOT
BRANCH  15  21
ATOM     20 CL   UNL     1      35.789 -19.087 -23.802  0.00  0.00    -0.082 Cl
ATOM     21  C   UNL     1      34.973 -17.968 -21.466  0.00  0.00    +0.064 C 
ATOM     22  C   UNL     1      34.915 -17.926 -22.859  0.00  0.00    +0.066 C 
ATOM     23  C   UNL     1      34.267 -17.033 -20.710  0.00  0.00    +0.005 C 
ATOM     24  C   UNL     1      34.151 -16.947 -23.496  0.00  0.00    +0.082 C 
ATOM     25  C   UNL     1      33.504 -16.054 -21.347  0.00  0.00    +0.000 C 
ATOM     26  C   UNL     1      33.446 -16.011 -22.740  0.00  0.00    +0.005 C 
BRANCH  24  30
ATOM     27  F   UNL     1      33.293 -15.815 -25.402  0.00  0.00    -0.166 F 
ATOM     28  F   UNL     1      35.269 -16.701 -25.597  0.00  0.00    -0.166 F 
ATOM     29  F   UNL     1      33.512 -17.973 -25.560  0.00  0.00    -0.166 F 
ATOM     30  C   UNL     1      34.060 -16.863 -24.986  0.00  0.00    +0.419 C 
ENDBRANCH  24  30
ENDBRANCH  15  21
TORSDOF 2
ENDMDL
MODEL 4
REMARK VINA RESULT:      -9.4      3.507      8.896
REMARK  Name = 90409366
REMARK  2 active torsions:
REMARK  status: ('A' for Active; 'I' for Inactive)
REMARK    1  A    between atoms: C_15  and  C_21
REMARK    2  A    between atoms: C_24  and  C_30
REMARK                            x       y       z     vdW  Elec       q    Type
REMARK                         _______ _______ _______ _____ _____    ______ ____
ROOT
ATOM      1  F   UNL     1      34.633 -20.609 -19.729  0.00  0.00    -0.205 F 
ATOM      2  O   UNL     1      34.206 -11.396 -25.531  0.00  0.00    -0.270 OA
ATOM      3  N   UNL     1      33.287 -13.335 -24.598  0.00  0.00    -0.273 N 
ATOM      4  N   UNL     1      34.409 -17.198 -23.924  0.00  0.00    -0.142 N 
ATOM      5  N   UNL     1      34.720 -16.505 -25.952  0.00  0.00    -0.148 NA
ATOM      6  N   UNL     1      34.903 -17.540 -25.131  0.00  0.00    -0.036 NA
ATOM      7  N   UNL     1      33.955 -17.631 -21.682  0.00  0.00    -0.199 NA
ATOM      8  N   UNL     1      35.027 -19.277 -23.078  0.00  0.00    -0.177 NA
ATOM      9  C   UNL     1      33.709 -14.182 -25.755  0.00  0.00    +0.115 C 
ATOM     10  C   UNL     1      32.500 -13.998 -23.516  0.00  0.00    +0.096 C 
ATOM     11  C   UNL     1      33.280 -15.158 -22.867  0.00  0.00    +0.050 C 
ATOM     12  C   UNL     1      34.104 -15.518 -25.240  0.00  0.00    +0.096 C 
ATOM     13  C   UNL     1      33.900 -15.941 -23.951  0.00  0.00    +0.147 C 
ATOM     14  C   UNL     1      32.598 -14.264 -26.800  0.00  0.00    +0.028 C 
ATOM     15  C   UNL     1      33.561 -11.961 -24.649  0.00  0.00    +0.250 C 
ATOM     16  C   UNL     1      34.466 -18.075 -22.846  0.00  0.00    +0.110 C 
ATOM     17  C   UNL     1      34.027 -18.506 -20.657  0.00  0.00    +0.195 C 
ATOM     18  C   UNL     1      35.067 -20.101 -22.011  0.00  0.00    +0.138 C 
ATOM     19  C   UNL     1      34.578 -19.768 -20.764  0.00  0.00    +0.163 C 
ENDROOT
BRANCH  15  21
ATOM     20 CL   UNL     1      34.587  -9.084 -24.533  0.00  0.00    -0.082 Cl
ATOM     21  C   UNL     1      33.060 -11.109 -23.562  0.00  0.00    +0.064 C 
ATOM     22  C   UNL     1      33.462  -9.782 -23.415  0.00  0.00    +0.066 C 
ATOM     23  C   UNL     1      32.154 -11.668 -22.661  0.00  0.00    +0.005 C 
ATOM     24  C   UNL     1      32.958  -9.013 -22.366  0.00  0.00    +0.082 C 
ATOM     25  C   UNL     1      31.650 -10.899 -21.612  0.00  0.00    +0.000 C 
ATOM     26  C   UNL     1      32.052  -9.571 -21.465  0.00  0.00    +0.005 C 
BRANCH  24  30
ATOM     27  F   UNL     1      34.714  -7.420 -22.182  0.00  0.00    -0.166 F 
ATOM     28  F   UNL     1      32.877  -6.747 -23.131  0.00  0.00    -0.166 F 
ATOM     29  F   UNL     1      32.934  -7.060 -20.985  0.00  0.00    -0.166 F 
ATOM     30  C   UNL     1      33.360  -7.586 -22.169  0.00  0.00    +0.419 C 
ENDBRANCH  24  30
ENDBRANCH  15  21
TORSDOF 2
ENDMDL
MODEL 5
REMARK VINA RESULT:      -8.9      6.948     12.393
REMARK  Name = 90409366
REMARK  2 active torsions:
REMARK  status: ('A' for Active; 'I' for Inactive)
REMARK    1  A    between atoms: C_15  and  C_21
REMARK    2  A    between atoms: C_24  and  C_30
REMARK                            x       y       z     vdW  Elec       q    Type
REMARK                         _______ _______ _______ _____ _____    ______ ____
ROOT
ATOM      1  F   UNL     1      33.947 -16.071 -24.391  0.00  0.00    -0.205 F 
ATOM      2  O   UNL     1      31.102  -5.634 -23.091  0.00  0.00    -0.270 OA
ATOM      3  N   UNL     1      32.545  -7.462 -22.864  0.00  0.00    -0.273 N 
ATOM      4  N   UNL     1      32.274 -11.460 -22.107  0.00  0.00    -0.142 N 
ATOM      5  N   UNL     1      31.210 -10.199 -20.704  0.00  0.00    -0.148 NA
ATOM      6  N   UNL     1      31.460 -11.467 -21.031  0.00  0.00    -0.036 NA
ATOM      7  N   UNL     1      33.505 -12.528 -23.770  0.00  0.00    -0.199 NA
ATOM      8  N   UNL     1      32.276 -13.788 -22.125  0.00  0.00    -0.177 NA
ATOM      9  C   UNL     1      31.888  -7.920 -21.602  0.00  0.00    +0.115 C 
ATOM     10  C   UNL     1      33.734  -8.233 -23.335  0.00  0.00    +0.096 C 
ATOM     11  C   UNL     1      33.388  -9.711 -23.607  0.00  0.00    +0.050 C 
ATOM     12  C   UNL     1      31.882  -9.405 -21.588  0.00  0.00    +0.096 C 
ATOM     13  C   UNL     1      32.560 -10.190 -22.485  0.00  0.00    +0.147 C 
ATOM     14  C   UNL     1      32.587  -7.328 -20.379  0.00  0.00    +0.028 C 
ATOM     15  C   UNL     1      32.078  -6.285 -23.463  0.00  0.00    +0.250 C 
ATOM     16  C   UNL     1      32.704 -12.646 -22.694  0.00  0.00    +0.110 C 
ATOM     17  C   UNL     1      33.903 -13.696 -24.314  0.00  0.00    +0.195 C 
ATOM     18  C   UNL     1      32.711 -14.918 -22.719  0.00  0.00    +0.138 C 
ATOM     19  C   UNL     1      33.534 -14.934 -23.827  0.00  0.00    +0.163 C 
ENDROOT
BRANCH  15  21
ATOM     20 CL   UNL     1      30.760  -4.003 -25.014  0.00  0.00    -0.082 Cl
ATOM     21  C   UNL     1      32.785  -5.776 -24.646  0.00  0.00    +0.064 C 
ATOM     22  C   UNL     1      32.274  -4.739 -25.426  0.00  0.00    +0.066 C 
ATOM     23  C   UNL     1      34.004  -6.365 -24.980  0.00  0.00    +0.005 C 
ATOM     24  C   UNL     1      32.984  -4.290 -26.540  0.00  0.00    +0.082 C 
ATOM     25  C   UNL     1      34.713  -5.917 -26.095  0.00  0.00    +0.000 C 
ATOM     26  C   UNL     1      34.203  -4.879 -26.875  0.00  0.00    +0.005 C 
BRANCH  24  30
ATOM     27  F   UNL     1      33.445  -2.669 -28.218  0.00  0.00    -0.166 F 
ATOM     28  F   UNL     1      31.461  -3.560 -28.236  0.00  0.00    -0.166 F 
ATOM     29  F   UNL     1      31.987  -2.122 -26.700  0.00  0.00    -0.166 F 
ATOM     30  C   UNL     1      32.476  -3.182 -27.406  0.00  0.00    +0.419 C 
ENDBRANCH  24  30
ENDBRANCH  15  21
TORSDOF 2
ENDMDL
MODEL 6
REMARK VINA RESULT:      -8.2      4.940      8.569
REMARK  Name = 90409366
REMARK  2 active torsions:
REMARK  status: ('A' for Active; 'I' for Inactive)
REMARK    1  A    between atoms: C_15  and  C_21
REMARK    2  A    between atoms: C_24  and  C_30
REMARK                            x       y       z     vdW  Elec       q    Type
REMARK                         _______ _______ _______ _____ _____    ______ ____
ROOT
ATOM      1  F   UNL     1      29.251 -23.464 -15.626  0.00  0.00    -0.205 F 
ATOM      2  O   UNL     1      37.436 -18.700 -21.013  0.00  0.00    -0.270 OA
ATOM      3  N   UNL     1      35.810 -20.352 -20.697  0.00  0.00    -0.273 N 
ATOM      4  N   UNL     1      34.186 -22.451 -17.600  0.00  0.00    -0.142 N 
ATOM      5  N   UNL     1      36.350 -22.462 -17.665  0.00  0.00    -0.148 NA
ATOM      6  N   UNL     1      35.296 -22.865 -16.955  0.00  0.00    -0.036 NA
ATOM      7  N   UNL     1      31.876 -22.245 -17.808  0.00  0.00    -0.199 NA
ATOM      8  N   UNL     1      32.862 -23.404 -15.940  0.00  0.00    -0.177 NA
ATOM      9  C   UNL     1      36.706 -21.173 -19.826  0.00  0.00    +0.115 C 
ATOM     10  C   UNL     1      34.459 -20.908 -21.005  0.00  0.00    +0.096 C 
ATOM     11  C   UNL     1      33.629 -21.142 -19.728  0.00  0.00    +0.050 C 
ATOM     12  C   UNL     1      35.881 -21.797 -18.759  0.00  0.00    +0.096 C 
ATOM     13  C   UNL     1      34.510 -21.779 -18.732  0.00  0.00    +0.147 C 
ATOM     14  C   UNL     1      37.469 -22.206 -20.653  0.00  0.00    +0.028 C 
ATOM     15  C   UNL     1      36.327 -19.174 -21.253  0.00  0.00    +0.250 C 
ATOM     16  C   UNL     1      32.917 -22.712 -17.093  0.00  0.00    +0.110 C 
ATOM     17  C   UNL     1      30.661 -22.515 -17.287  0.00  0.00    +0.195 C 
ATOM     18  C   UNL     1      31.617 -23.638 -15.476  0.00  0.00    +0.138 C 
ATOM     19  C   UNL     1      30.468 -23.214 -16.112  0.00  0.00    +0.163 C 
ENDROOT
BRANCH  15  21
ATOM     20 CL   UNL     1      35.093 -16.567 -20.240  0.00  0.00    -0.082 Cl
ATOM     21  C   UNL     1      35.485 -18.417 -22.189  0.00  0.00    +0.064 C 
ATOM     22  C   UNL     1      34.873 -17.216 -21.832  0.00  0.00    +0.066 C 
ATOM     23  C   UNL     1      35.307 -18.937 -23.471  0.00  0.00    +0.005 C 
ATOM     24  C   UNL     1      34.083 -16.534 -22.757  0.00  0.00    +0.082 C 
ATOM     25  C   UNL     1      34.516 -18.254 -24.397  0.00  0.00    +0.000 C 
ATOM     26  C   UNL     1      33.904 -17.053 -24.039  0.00  0.00    +0.005 C 
BRANCH  24  30
ATOM     27  F   UNL     1      32.780 -14.686 -23.494  0.00  0.00    -0.166 F 
ATOM     28  F   UNL     1      32.449 -15.367 -21.456  0.00  0.00    -0.166 F 
ATOM     29  F   UNL     1      34.263 -14.288 -21.954  0.00  0.00    -0.166 F 
ATOM     30  C   UNL     1      33.408 -15.243 -22.419  0.00  0.00    +0.419 C 
ENDBRANCH  24  30
ENDBRANCH  15  21
TORSDOF 2
ENDMDL
MODEL 7
REMARK VINA RESULT:      -7.8      6.559     11.333
REMARK  Name = 90409366
REMARK  2 active torsions:
REMARK  status: ('A' for Active; 'I' for Inactive)
REMARK    1  A    between atoms: C_15  and  C_21
REMARK    2  A    between atoms: C_24  and  C_30
REMARK                            x       y       z     vdW  Elec       q    Type
REMARK                         _______ _______ _______ _____ _____    ______ ____
ROOT
ATOM      1  F   UNL     1      41.664 -26.284 -13.552  0.00  0.00    -0.205 F 
ATOM      2  O   UNL     1      33.218 -22.481 -19.288  0.00  0.00    -0.270 OA
ATOM      3  N   UNL     1      34.750 -22.429 -17.521  0.00  0.00    -0.273 N 
ATOM      4  N   UNL     1      36.602 -25.083 -15.039  0.00  0.00    -0.142 N 
ATOM      5  N   UNL     1      34.452 -25.306 -15.160  0.00  0.00    -0.148 NA
ATOM      6  N   UNL     1      35.557 -25.830 -14.629  0.00  0.00    -0.036 NA
ATOM      7  N   UNL     1      38.875 -24.589 -15.129  0.00  0.00    -0.199 NA
ATOM      8  N   UNL     1      38.056 -26.460 -13.852  0.00  0.00    -0.177 NA
ATOM      9  C   UNL     1      33.916 -23.335 -16.673  0.00  0.00    +0.115 C 
ATOM     10  C   UNL     1      36.008 -21.895 -16.920  0.00  0.00    +0.096 C 
ATOM     11  C   UNL     1      36.975 -23.025 -16.515  0.00  0.00    +0.050 C 
ATOM     12  C   UNL     1      34.824 -24.222 -15.901  0.00  0.00    +0.096 C 
ATOM     13  C   UNL     1      36.185 -24.068 -15.835  0.00  0.00    +0.147 C 
ATOM     14  C   UNL     1      32.983 -22.529 -15.771  0.00  0.00    +0.028 C 
ATOM     15  C   UNL     1      34.251 -22.054 -18.776  0.00  0.00    +0.250 C 
ATOM     16  C   UNL     1      37.903 -25.391 -14.656  0.00  0.00    +0.110 C 
ATOM     17  C   UNL     1      40.125 -24.916 -14.739  0.00  0.00    +0.195 C 
ATOM     18  C   UNL     1      39.330 -26.732 -13.502  0.00  0.00    +0.138 C 
ATOM     19  C   UNL     1      40.415 -25.988 -13.918  0.00  0.00    +0.163 C 
ENDROOT
BRANCH  15  21
ATOM     20 CL   UNL     1      32.670 -20.033 -20.436  0.00  0.00    -0.082 Cl
ATOM     21  C   UNL     1      35.018 -21.086 -19.570  0.00  0.00    +0.064 C 
ATOM     22  C   UNL     1      34.399 -20.120 -20.363  0.00  0.00    +0.066 C 
ATOM     23  C   UNL     1      36.410 -21.153 -19.513  0.00  0.00    +0.005 C 
ATOM     24  C   UNL     1      35.171 -19.222 -21.099  0.00  0.00    +0.082 C 
ATOM     25  C   UNL     1      37.183 -20.254 -20.249  0.00  0.00    +0.000 C 
ATOM     26  C   UNL     1      36.563 -19.289 -21.043  0.00  0.00    +0.005 C 
BRANCH  24  30
ATOM     27  F   UNL     1      33.888 -18.698 -23.032  0.00  0.00    -0.166 F 
ATOM     28  F   UNL     1      33.637 -17.398 -21.308  0.00  0.00    -0.166 F 
ATOM     29  F   UNL     1      35.455 -17.293 -22.486  0.00  0.00    -0.166 F 
ATOM     30  C   UNL     1      34.551 -18.171 -21.963  0.00  0.00    +0.419 C 
ENDBRANCH  24  30
ENDBRANCH  15  21
TORSDOF 2
ENDMDL
