MODEL 1
REMARK VINA RESULT:     -10.7      0.000      0.000
REMARK  Name = 71919
REMARK  6 active torsions:
REMARK  status: ('A' for Active; 'I' for Inactive)
REMARK    1  A    between atoms: N_1  and  C_15
REMARK    2  A    between atoms: N_2  and  C_9
REMARK    3  A    between atoms: C_15  and  C_16
REMARK    4  A    between atoms: C_16  and  C_17
REMARK    5  A    between atoms: C_17  and  N_20
REMARK    6  A    between atoms: C_21  and  C_24
REMARK                            x       y       z     vdW  Elec       q    Type
REMARK                         _______ _______ _______ _____ _____    ______ ____
ROOT
ATOM      1  N   UNL     1      34.693 -16.866 -24.270  0.00  0.00    +0.389 N 
ATOM      2  N   UNL     1      34.521 -18.834 -22.207  0.00  0.00    -0.312 N 
ATOM      3  C   UNL     1      34.180 -16.507 -22.941  0.00  0.00    -0.055 C 
ATOM      4  C   UNL     1      34.321 -18.249 -24.591  0.00  0.00    -0.055 C 
ATOM      5  C   UNL     1      34.758 -17.427 -21.863  0.00  0.00    +0.068 C 
ATOM      6  C   UNL     1      34.901 -19.228 -23.567  0.00  0.00    +0.068 C 
ATOM      7  H   UNL     1      35.711 -16.793 -24.261  0.00  0.00    -0.080 HD
ENDROOT
BRANCH   2   9
ATOM      8  F   UNL     1      34.677 -22.580 -18.105  0.00  0.00    -0.204 F 
ATOM      9  C   UNL     1      34.560 -19.778 -21.175  0.00  0.00    +0.048 C 
ATOM     10  C   UNL     1      33.372 -20.300 -20.622  0.00  0.00    +0.017 C 
ATOM     11  C   UNL     1      35.788 -20.234 -20.654  0.00  0.00    +0.017 C 
ATOM     12  C   UNL     1      33.412 -21.240 -19.592  0.00  0.00    +0.031 C 
ATOM     13  C   UNL     1      35.827 -21.175 -19.624  0.00  0.00    +0.031 C 
ATOM     14  C   UNL     1      34.640 -21.677 -19.093  0.00  0.00    +0.140 C 
ENDBRANCH   2   9
BRANCH   1  15
ATOM     15  C   UNL     1      34.179 -15.948 -25.284  0.00  0.00    -0.076 C 
BRANCH  15  16
ATOM     16  C   UNL     1      33.620 -14.686 -24.623  0.00  0.00    -0.003 C 
BRANCH  16  17
ATOM     17  C   UNL     1      33.822 -13.432 -25.486  0.00  0.00    +0.070 C 
ATOM     18  C   UNL     1      32.876 -13.440 -26.683  0.00  0.00    +0.021 C 
BRANCH  17  20
ATOM     19  O   UNL     1      35.106 -10.900 -25.914  0.00  0.00    -0.270 OA
ATOM     20  N   UNL     1      33.625 -12.226 -24.718  0.00  0.00    -0.303 N 
ATOM     21  C   UNL     1      34.295 -11.045 -25.003  0.00  0.00    +0.247 C 
ATOM     22  H   UNL     1      32.992 -12.241 -23.965  0.00  0.00    +0.150 HD
BRANCH  21  24
ATOM     23  N   UNL     1      32.597  -8.942 -22.424  0.00  0.00    -0.242 NA
ATOM     24  C   UNL     1      34.003  -9.901 -24.104  0.00  0.00    +0.072 C 
ATOM     25  C   UNL     1      34.821  -8.797 -24.112  0.00  0.00    +0.008 C 
ATOM     26  C   UNL     1      32.920  -9.950 -23.268  0.00  0.00    +0.103 C 
ATOM     27  C   UNL     1      34.521  -7.741 -23.259  0.00  0.00    +0.021 C 
ATOM     28  C   UNL     1      33.409  -7.862 -22.442  0.00  0.00    +0.099 C 
ENDBRANCH  21  24
ENDBRANCH  17  20
ENDBRANCH  16  17
ENDBRANCH  15  16
ENDBRANCH   1  15
TORSDOF 6
ENDMDL
MODEL 2
REMARK VINA RESULT:     -10.5      1.647      2.323
REMARK  Name = 71919
REMARK  6 active torsions:
REMARK  status: ('A' for Active; 'I' for Inactive)
REMARK    1  A    between atoms: N_1  and  C_15
REMARK    2  A    between atoms: N_2  and  C_9
REMARK    3  A    between atoms: C_15  and  C_16
REMARK    4  A    between atoms: C_16  and  C_17
REMARK    5  A    between atoms: C_17  and  N_20
REMARK    6  A    between atoms: C_21  and  C_24
REMARK                            x       y       z     vdW  Elec       q    Type
REMARK                         _______ _______ _______ _____ _____    ______ ____
ROOT
ATOM      1  N   UNL     1      34.309 -15.109 -23.572  0.00  0.00    +0.389 N 
ATOM      2  N   UNL     1      34.640 -17.540 -22.108  0.00  0.00    -0.312 N 
ATOM      3  C   UNL     1      33.787 -15.230 -22.204  0.00  0.00    -0.055 C 
ATOM      4  C   UNL     1      34.223 -16.406 -24.255  0.00  0.00    -0.055 C 
ATOM      5  C   UNL     1      34.590 -16.255 -21.399  0.00  0.00    +0.068 C 
ATOM      6  C   UNL     1      35.038 -17.472 -23.517  0.00  0.00    +0.068 C 
ATOM      7  H   UNL     1      35.288 -14.825 -23.527  0.00  0.00    -0.080 HD
ENDROOT
BRANCH   2   9
ATOM      8  F   UNL     1      35.753 -22.111 -19.151  0.00  0.00    -0.204 F 
ATOM      9  C   UNL     1      34.920 -18.690 -21.363  0.00  0.00    +0.048 C 
ATOM     10  C   UNL     1      36.246 -19.032 -21.025  0.00  0.00    +0.017 C 
ATOM     11  C   UNL     1      33.886 -19.543 -20.928  0.00  0.00    +0.017 C 
ATOM     12  C   UNL     1      36.525 -20.180 -20.283  0.00  0.00    +0.031 C 
ATOM     13  C   UNL     1      34.165 -20.691 -20.185  0.00  0.00    +0.031 C 
ATOM     14  C   UNL     1      35.485 -21.010 -19.863  0.00  0.00    +0.140 C 
ENDBRANCH   2   9
BRANCH   1  15
ATOM     15  C   UNL     1      33.571 -14.089 -24.315  0.00  0.00    -0.076 C 
BRANCH  15  16
ATOM     16  C   UNL     1      33.360 -12.848 -23.444  0.00  0.00    -0.003 C 
BRANCH  16  17
ATOM     17  C   UNL     1      33.893 -11.570 -24.106  0.00  0.00    +0.070 C 
ATOM     18  C   UNL     1      33.878 -11.699 -25.626  0.00  0.00    +0.021 C 
BRANCH  17  20
ATOM     19  O   UNL     1      34.902  -8.918 -23.661  0.00  0.00    -0.270 OA
ATOM     20  N   UNL     1      33.128 -10.411 -23.709  0.00  0.00    -0.303 N 
ATOM     21  C   UNL     1      33.708  -9.166 -23.518  0.00  0.00    +0.247 C 
ATOM     22  H   UNL     1      32.159 -10.509 -23.569  0.00  0.00    +0.150 HD
BRANCH  21  24
ATOM     23  N   UNL     1      30.826  -6.790 -23.512  0.00  0.00    -0.242 NA
ATOM     24  C   UNL     1      32.790  -8.083 -23.084  0.00  0.00    +0.072 C 
ATOM     25  C   UNL     1      33.036  -7.405 -21.915  0.00  0.00    +0.008 C 
ATOM     26  C   UNL     1      31.700  -7.765 -23.850  0.00  0.00    +0.103 C 
ATOM     27  C   UNL     1      32.158  -6.395 -21.535  0.00  0.00    +0.021 C 
ATOM     28  C   UNL     1      31.078  -6.130 -22.360  0.00  0.00    +0.099 C 
ENDBRANCH  21  24
ENDBRANCH  17  20
ENDBRANCH  16  17
ENDBRANCH  15  16
ENDBRANCH   1  15
TORSDOF 6
ENDMDL
MODEL 3
REMARK VINA RESULT:     -10.3      5.545     11.535
REMARK  Name = 71919
REMARK  6 active torsions:
REMARK  status: ('A' for Active; 'I' for Inactive)
REMARK    1  A    between atoms: N_1  and  C_15
REMARK    2  A    between atoms: N_2  and  C_9
REMARK    3  A    between atoms: C_15  and  C_16
REMARK    4  A    between atoms: C_16  and  C_17
REMARK    5  A    between atoms: C_17  and  N_20
REMARK    6  A    between atoms: C_21  and  C_24
REMARK                            x       y       z     vdW  Elec       q    Type
REMARK                         _______ _______ _______ _____ _____    ______ ____
ROOT
ATOM      1  N   UNL     1      35.414 -20.924 -20.334  0.00  0.00    +0.389 N 
ATOM      2  N   UNL     1      35.001 -18.235 -21.203  0.00  0.00    -0.312 N 
ATOM      3  C   UNL     1      34.094 -20.296 -20.202  0.00  0.00    -0.055 C 
ATOM      4  C   UNL     1      36.467 -19.915 -20.157  0.00  0.00    -0.055 C 
ATOM      5  C   UNL     1      33.898 -19.203 -21.256  0.00  0.00    +0.068 C 
ATOM      6  C   UNL     1      36.350 -18.808 -21.208  0.00  0.00    +0.068 C 
ATOM      7  H   UNL     1      35.497 -21.326 -21.269  0.00  0.00    -0.080 HD
ENDROOT
BRANCH   2   9
ATOM      8  F   UNL     1      34.140 -13.188 -23.364  0.00  0.00    -0.204 F 
ATOM      9  C   UNL     1      34.785 -16.964 -21.747  0.00  0.00    +0.048 C 
ATOM     10  C   UNL     1      34.539 -15.851 -20.917  0.00  0.00    +0.017 C 
ATOM     11  C   UNL     1      34.806 -16.757 -23.141  0.00  0.00    +0.017 C 
ATOM     12  C   UNL     1      34.322 -14.584 -21.459  0.00  0.00    +0.031 C 
ATOM     13  C   UNL     1      34.590 -15.490 -23.684  0.00  0.00    +0.031 C 
ATOM     14  C   UNL     1      34.348 -14.404 -22.843  0.00  0.00    +0.140 C 
ENDBRANCH   2   9
BRANCH   1  15
ATOM     15  C   UNL     1      35.570 -22.003 -19.359  0.00  0.00    -0.076 C 
BRANCH  15  16
ATOM     16  C   UNL     1      36.464 -21.547 -18.203  0.00  0.00    -0.003 C 
BRANCH  16  17
ATOM     17  C   UNL     1      36.446 -22.532 -17.025  0.00  0.00    +0.070 C 
ATOM     18  C   UNL     1      37.500 -22.157 -15.989  0.00  0.00    +0.021 C 
BRANCH  17  20
ATOM     19  O   UNL     1      35.276 -24.784 -15.681  0.00  0.00    -0.270 OA
ATOM     20  N   UNL     1      35.145 -22.582 -16.400  0.00  0.00    -0.303 N 
ATOM     21  C   UNL     1      34.665 -23.722 -15.772  0.00  0.00    +0.247 C 
ATOM     22  H   UNL     1      34.579 -21.778 -16.420  0.00  0.00    +0.150 HD
BRANCH  21  24
ATOM     23  N   UNL     1      31.872 -23.817 -13.293  0.00  0.00    -0.242 NA
ATOM     24  C   UNL     1      33.298 -23.620 -15.201  0.00  0.00    +0.072 C 
ATOM     25  C   UNL     1      32.247 -23.255 -16.006  0.00  0.00    +0.008 C 
ATOM     26  C   UNL     1      33.091 -23.890 -13.875  0.00  0.00    +0.103 C 
ATOM     27  C   UNL     1      30.978 -23.168 -15.443  0.00  0.00    +0.021 C 
ATOM     28  C   UNL     1      30.846 -23.456 -14.095  0.00  0.00    +0.099 C 
ENDBRANCH  21  24
ENDBRANCH  17  20
ENDBRANCH  16  17
ENDBRANCH  15  16
ENDBRANCH   1  15
TORSDOF 6
ENDMDL
MODEL 4
REMARK VINA RESULT:     -10.2      5.978     11.738
REMARK  Name = 71919
REMARK  6 active torsions:
REMARK  status: ('A' for Active; 'I' for Inactive)
REMARK    1  A    between atoms: N_1  and  C_15
REMARK    2  A    between atoms: N_2  and  C_9
REMARK    3  A    between atoms: C_15  and  C_16
REMARK    4  A    between atoms: C_16  and  C_17
REMARK    5  A    between atoms: C_17  and  N_20
REMARK    6  A    between atoms: C_21  and  C_24
REMARK                            x       y       z     vdW  Elec       q    Type
REMARK                         _______ _______ _______ _____ _____    ______ ____
ROOT
ATOM      1  N   UNL     1      35.273 -20.767 -19.454  0.00  0.00    +0.389 N 
ATOM      2  N   UNL     1      34.912 -19.161 -21.789  0.00  0.00    -0.312 N 
ATOM      3  C   UNL     1      36.417 -20.436 -20.313  0.00  0.00    -0.055 C 
ATOM      4  C   UNL     1      34.060 -20.904 -20.271  0.00  0.00    -0.055 C 
ATOM      5  C   UNL     1      36.183 -19.119 -21.056  0.00  0.00    +0.068 C 
ATOM      6  C   UNL     1      33.748 -19.603 -21.016  0.00  0.00    +0.068 C 
ATOM      7  H   UNL     1      35.134 -20.011 -18.784  0.00  0.00    -0.080 HD
ENDROOT
BRANCH   2   9
ATOM      8  F   UNL     1      34.230 -15.632 -26.027  0.00  0.00    -0.204 F 
ATOM      9  C   UNL     1      34.739 -18.273 -22.856  0.00  0.00    +0.048 C 
ATOM     10  C   UNL     1      34.568 -18.744 -24.174  0.00  0.00    +0.017 C 
ATOM     11  C   UNL     1      34.733 -16.879 -22.647  0.00  0.00    +0.017 C 
ATOM     12  C   UNL     1      34.397 -17.858 -25.238  0.00  0.00    +0.031 C 
ATOM     13  C   UNL     1      34.562 -15.993 -23.711  0.00  0.00    +0.031 C 
ATOM     14  C   UNL     1      34.394 -16.482 -25.006  0.00  0.00    +0.140 C 
ENDBRANCH   2   9
BRANCH   1  15
ATOM     15  C   UNL     1      35.529 -21.998 -18.708  0.00  0.00    -0.076 C 
BRANCH  15  16
ATOM     16  C   UNL     1      36.647 -21.774 -17.686  0.00  0.00    -0.003 C 
BRANCH  16  17
ATOM     17  C   UNL     1      36.565 -22.753 -16.505  0.00  0.00    +0.070 C 
ATOM     18  C   UNL     1      37.568 -22.377 -15.419  0.00  0.00    +0.021 C 
BRANCH  17  20
ATOM     19  O   UNL     1      35.189 -25.074 -15.525  0.00  0.00    -0.270 OA
ATOM     20  N   UNL     1      35.235 -22.794 -15.946  0.00  0.00    -0.303 N 
ATOM     21  C   UNL     1      34.652 -23.970 -15.497  0.00  0.00    +0.247 C 
ATOM     22  H   UNL     1      34.722 -21.956 -15.880  0.00  0.00    +0.150 HD
BRANCH  21  24
ATOM     23  N   UNL     1      31.716 -24.291 -13.211  0.00  0.00    -0.242 NA
ATOM     24  C   UNL     1      33.268 -23.849 -14.973  0.00  0.00    +0.072 C 
ATOM     25  C   UNL     1      32.306 -23.217 -15.723  0.00  0.00    +0.008 C 
ATOM     26  C   UNL     1      32.956 -24.367 -13.745  0.00  0.00    +0.103 C 
ATOM     27  C   UNL     1      31.019 -23.120 -15.207  0.00  0.00    +0.021 C 
ATOM     28  C   UNL     1      30.778 -23.667 -13.957  0.00  0.00    +0.099 C 
ENDBRANCH  21  24
ENDBRANCH  17  20
ENDBRANCH  16  17
ENDBRANCH  15  16
ENDBRANCH   1  15
TORSDOF 6
ENDMDL
MODEL 5
REMARK VINA RESULT:     -10.2      4.358     10.667
REMARK  Name = 71919
REMARK  6 active torsions:
REMARK  status: ('A' for Active; 'I' for Inactive)
REMARK    1  A    between atoms: N_1  and  C_15
REMARK    2  A    between atoms: N_2  and  C_9
REMARK    3  A    between atoms: C_15  and  C_16
REMARK    4  A    between atoms: C_16  and  C_17
REMARK    5  A    between atoms: C_17  and  N_20
REMARK    6  A    between atoms: C_21  and  C_24
REMARK                            x       y       z     vdW  Elec       q    Type
REMARK                         _______ _______ _______ _____ _____    ______ ____
ROOT
ATOM      1  N   UNL     1      33.507 -13.071 -23.374  0.00  0.00    +0.389 N 
ATOM      2  N   UNL     1      32.830 -10.300 -23.533  0.00  0.00    -0.312 N 
ATOM      3  C   UNL     1      33.853 -12.288 -24.568  0.00  0.00    -0.055 C 
ATOM      4  C   UNL     1      32.245 -12.580 -22.804  0.00  0.00    -0.055 C 
ATOM      5  C   UNL     1      34.023 -10.806 -24.223  0.00  0.00    +0.068 C 
ATOM      6  C   UNL     1      32.359 -11.107 -22.403  0.00  0.00    +0.068 C 
ATOM      7  H   UNL     1      34.246 -12.959 -22.680  0.00  0.00    -0.080 HD
ENDROOT
BRANCH   2   9
ATOM      8  F   UNL     1      31.930  -4.816 -23.564  0.00  0.00    -0.204 F 
ATOM      9  C   UNL     1      32.603  -8.919 -23.541  0.00  0.00    +0.048 C 
ATOM     10  C   UNL     1      33.662  -8.011 -23.743  0.00  0.00    +0.017 C 
ATOM     11  C   UNL     1      31.309  -8.395 -23.347  0.00  0.00    +0.017 C 
ATOM     12  C   UNL     1      33.436  -6.634 -23.750  0.00  0.00    +0.031 C 
ATOM     13  C   UNL     1      31.083  -7.018 -23.355  0.00  0.00    +0.031 C 
ATOM     14  C   UNL     1      32.146  -6.138 -23.556  0.00  0.00    +0.140 C 
ENDBRANCH   2   9
BRANCH   1  15
ATOM     15  C   UNL     1      33.401 -14.491 -23.704  0.00  0.00    -0.076 C 
BRANCH  15  16
ATOM     16  C   UNL     1      33.057 -15.302 -22.452  0.00  0.00    -0.003 C 
BRANCH  16  17
ATOM     17  C   UNL     1      34.308 -15.742 -21.677  0.00  0.00    +0.070 C 
ATOM     18  C   UNL     1      34.675 -14.715 -20.611  0.00  0.00    +0.021 C 
BRANCH  17  20
ATOM     19  O   UNL     1      35.140 -18.280 -22.731  0.00  0.00    -0.270 OA
ATOM     20  N   UNL     1      34.119 -17.035 -21.062  0.00  0.00    -0.303 N 
ATOM     21  C   UNL     1      34.558 -18.211 -21.652  0.00  0.00    +0.247 C 
ATOM     22  H   UNL     1      33.661 -17.083 -20.192  0.00  0.00    +0.150 HD
BRANCH  21  24
ATOM     23  N   UNL     1      32.630 -20.925 -19.959  0.00  0.00    -0.242 NA
ATOM     24  C   UNL     1      34.264 -19.460 -20.905  0.00  0.00    +0.072 C 
ATOM     25  C   UNL     1      35.295 -20.268 -20.490  0.00  0.00    +0.008 C 
ATOM     26  C   UNL     1      32.967 -19.802 -20.634  0.00  0.00    +0.103 C 
ATOM     27  C   UNL     1      34.987 -21.431 -19.793  0.00  0.00    +0.021 C 
ATOM     28  C   UNL     1      33.652 -21.712 -19.556  0.00  0.00    +0.099 C 
ENDBRANCH  21  24
ENDBRANCH  17  20
ENDBRANCH  16  17
ENDBRANCH  15  16
ENDBRANCH   1  15
TORSDOF 6
ENDMDL
MODEL 6
REMARK VINA RESULT:     -10.0      4.844     10.865
REMARK  Name = 71919
REMARK  6 active torsions:
REMARK  status: ('A' for Active; 'I' for Inactive)
REMARK    1  A    between atoms: N_1  and  C_15
REMARK    2  A    between atoms: N_2  and  C_9
REMARK    3  A    between atoms: C_15  and  C_16
REMARK    4  A    between atoms: C_16  and  C_17
REMARK    5  A    between atoms: C_17  and  N_20
REMARK    6  A    between atoms: C_21  and  C_24
REMARK                            x       y       z     vdW  Elec       q    Type
REMARK                         _______ _______ _______ _____ _____    ______ ____
ROOT
ATOM      1  N   UNL     1      35.098 -18.127 -21.951  0.00  0.00    +0.389 N 
ATOM      2  N   UNL     1      33.906 -15.567 -22.377  0.00  0.00    -0.312 N 
ATOM      3  C   UNL     1      34.910 -17.614 -23.313  0.00  0.00    -0.055 C 
ATOM      4  C   UNL     1      34.006 -17.663 -21.086  0.00  0.00    -0.055 C 
ATOM      5  C   UNL     1      34.900 -16.083 -23.326  0.00  0.00    +0.068 C 
ATOM      6  C   UNL     1      33.964 -16.134 -21.027  0.00  0.00    +0.068 C 
ATOM      7  H   UNL     1      35.982 -17.772 -21.583  0.00  0.00    -0.080 HD
ENDROOT
BRANCH   2   9
ATOM      8  F   UNL     1      32.039 -10.386 -23.117  0.00  0.00    -0.204 F 
ATOM      9  C   UNL     1      33.437 -14.262 -22.563  0.00  0.00    +0.048 C 
ATOM     10  C   UNL     1      32.438 -13.723 -21.726  0.00  0.00    +0.017 C 
ATOM     11  C   UNL     1      33.946 -13.447 -23.594  0.00  0.00    +0.017 C 
ATOM     12  C   UNL     1      31.969 -12.423 -21.912  0.00  0.00    +0.031 C 
ATOM     13  C   UNL     1      33.478 -12.146 -23.779  0.00  0.00    +0.031 C 
ATOM     14  C   UNL     1      32.489 -11.634 -22.939  0.00  0.00    +0.140 C 
ENDBRANCH   2   9
BRANCH   1  15
ATOM     15  C   UNL     1      35.161 -19.588 -21.957  0.00  0.00    -0.076 C 
BRANCH  15  16
ATOM     16  C   UNL     1      34.493 -20.152 -20.700  0.00  0.00    -0.003 C 
BRANCH  16  17
ATOM     17  C   UNL     1      35.331 -21.253 -20.035  0.00  0.00    +0.070 C 
ATOM     18  C   UNL     1      36.770 -20.791 -19.831  0.00  0.00    +0.021 C 
BRANCH  17  20
ATOM     19  O   UNL     1      33.811 -23.633 -19.513  0.00  0.00    -0.270 OA
ATOM     20  N   UNL     1      34.765 -21.654 -18.768  0.00  0.00    -0.303 N 
ATOM     21  C   UNL     1      34.042 -22.828 -18.615  0.00  0.00    +0.247 C 
ATOM     22  H   UNL     1      34.897 -21.073 -17.985  0.00  0.00    +0.150 HD
BRANCH  21  24
ATOM     23  N   UNL     1      33.937 -23.517 -14.945  0.00  0.00    -0.242 NA
ATOM     24  C   UNL     1      33.504 -23.084 -17.255  0.00  0.00    +0.072 C 
ATOM     25  C   UNL     1      32.145 -23.123 -17.054  0.00  0.00    +0.008 C 
ATOM     26  C   UNL     1      34.362 -23.279 -16.207  0.00  0.00    +0.103 C 
ATOM     27  C   UNL     1      31.670 -23.366 -15.769  0.00  0.00    +0.021 C 
ATOM     28  C   UNL     1      32.599 -23.553 -14.759  0.00  0.00    +0.099 C 
ENDBRANCH  21  24
ENDBRANCH  17  20
ENDBRANCH  16  17
ENDBRANCH  15  16
ENDBRANCH   1  15
TORSDOF 6
ENDMDL
MODEL 7
REMARK VINA RESULT:      -9.9      5.559     12.117
REMARK  Name = 71919
REMARK  6 active torsions:
REMARK  status: ('A' for Active; 'I' for Inactive)
REMARK    1  A    between atoms: N_1  and  C_15
REMARK    2  A    between atoms: N_2  and  C_9
REMARK    3  A    between atoms: C_15  and  C_16
REMARK    4  A    between atoms: C_16  and  C_17
REMARK    5  A    between atoms: C_17  and  N_20
REMARK    6  A    between atoms: C_21  and  C_24
REMARK                            x       y       z     vdW  Elec       q    Type
REMARK                         _______ _______ _______ _____ _____    ______ ____
ROOT
ATOM      1  N   UNL     1      34.861 -21.469 -19.946  0.00  0.00    +0.389 N 
ATOM      2  N   UNL     1      34.771 -18.821 -21.014  0.00  0.00    -0.312 N 
ATOM      3  C   UNL     1      33.627 -20.678 -19.867  0.00  0.00    -0.055 C 
ATOM      4  C   UNL     1      36.029 -20.584 -19.840  0.00  0.00    -0.055 C 
ATOM      5  C   UNL     1      33.560 -19.651 -21.000  0.00  0.00    +0.068 C 
ATOM      6  C   UNL     1      36.041 -19.552 -20.970  0.00  0.00    +0.068 C 
ATOM      7  H   UNL     1      34.891 -21.946 -20.848  0.00  0.00    -0.080 HD
ENDROOT
BRANCH   2   9
ATOM      8  F   UNL     1      34.523 -13.880 -23.545  0.00  0.00    -0.204 F 
ATOM      9  C   UNL     1      34.708 -17.577 -21.651  0.00  0.00    +0.048 C 
ATOM     10  C   UNL     1      34.893 -17.465 -23.045  0.00  0.00    +0.017 C 
ATOM     11  C   UNL     1      34.459 -16.398 -20.920  0.00  0.00    +0.017 C 
ATOM     12  C   UNL     1      34.831 -16.224 -23.680  0.00  0.00    +0.031 C 
ATOM     13  C   UNL     1      34.396 -15.158 -21.556  0.00  0.00    +0.031 C 
ATOM     14  C   UNL     1      34.583 -15.071 -22.935  0.00  0.00    +0.140 C 
ENDBRANCH   2   9
BRANCH   1  15
ATOM     15  C   UNL     1      34.890 -22.483 -18.893  0.00  0.00    -0.076 C 
BRANCH  15  16
ATOM     16  C   UNL     1      33.473 -22.759 -18.385  0.00  0.00    -0.003 C 
BRANCH  16  17
ATOM     17  C   UNL     1      33.419 -22.921 -16.859  0.00  0.00    +0.070 C 
ATOM     18  C   UNL     1      32.063 -23.464 -16.419  0.00  0.00    +0.021 C 
BRANCH  17  20
ATOM     19  O   UNL     1      35.570 -22.205 -15.097  0.00  0.00    -0.270 OA
ATOM     20  N   UNL     1      34.469 -23.790 -16.384  0.00  0.00    -0.303 N 
ATOM     21  C   UNL     1      35.470 -23.350 -15.530  0.00  0.00    +0.247 C 
ATOM     22  H   UNL     1      34.475 -24.730 -16.676  0.00  0.00    +0.150 HD
BRANCH  21  24
ATOM     23  N   UNL     1      38.727 -24.824 -14.447  0.00  0.00    -0.242 NA
ATOM     24  C   UNL     1      36.492 -24.359 -15.154  0.00  0.00    +0.072 C 
ATOM     25  C   UNL     1      36.169 -25.695 -15.162  0.00  0.00    +0.008 C 
ATOM     26  C   UNL     1      37.751 -23.956 -14.799  0.00  0.00    +0.103 C 
ATOM     27  C   UNL     1      37.147 -26.617 -14.805  0.00  0.00    +0.021 C 
ATOM     28  C   UNL     1      38.398 -26.134 -14.459  0.00  0.00    +0.099 C 
ENDBRANCH  21  24
ENDBRANCH  17  20
ENDBRANCH  16  17
ENDBRANCH  15  16
ENDBRANCH   1  15
TORSDOF 6
ENDMDL
MODEL 8
REMARK VINA RESULT:      -9.7      2.756      4.585
REMARK  Name = 71919
REMARK  6 active torsions:
REMARK  status: ('A' for Active; 'I' for Inactive)
REMARK    1  A    between atoms: N_1  and  C_15
REMARK    2  A    between atoms: N_2  and  C_9
REMARK    3  A    between atoms: C_15  and  C_16
REMARK    4  A    between atoms: C_16  and  C_17
REMARK    5  A    between atoms: C_17  and  N_20
REMARK    6  A    between atoms: C_21  and  C_24
REMARK                            x       y       z     vdW  Elec       q    Type
REMARK                         _______ _______ _______ _____ _____    ______ ____
ROOT
ATOM      1  N   UNL     1      34.740 -19.893 -21.661  0.00  0.00    +0.389 N 
ATOM      2  N   UNL     1      34.978 -21.271 -19.169  0.00  0.00    -0.312 N 
ATOM      3  C   UNL     1      36.018 -19.905 -20.937  0.00  0.00    -0.055 C 
ATOM      4  C   UNL     1      33.625 -19.899 -20.705  0.00  0.00    -0.055 C 
ATOM      5  C   UNL     1      36.141 -21.152 -20.058  0.00  0.00    +0.068 C 
ATOM      6  C   UNL     1      33.669 -21.145 -19.816  0.00  0.00    +0.068 C 
ATOM      7  H   UNL     1      34.681 -20.732 -22.239  0.00  0.00    -0.080 HD
ENDROOT
BRANCH   2   9
ATOM      8  F   UNL     1      35.503 -24.372 -14.588  0.00  0.00    -0.204 F 
ATOM      9  C   UNL     1      35.110 -22.052 -18.016  0.00  0.00    +0.048 C 
ATOM     10  C   UNL     1      34.034 -22.827 -17.537  0.00  0.00    +0.017 C 
ATOM     11  C   UNL     1      36.323 -22.088 -17.298  0.00  0.00    +0.017 C 
ATOM     12  C   UNL     1      34.166 -23.605 -16.386  0.00  0.00    +0.031 C 
ATOM     13  C   UNL     1      36.454 -22.867 -16.148  0.00  0.00    +0.031 C 
ATOM     14  C   UNL     1      35.376 -23.625 -15.692  0.00  0.00    +0.140 C 
ENDBRANCH   2   9
BRANCH   1  15
ATOM     15  C   UNL     1      34.657 -18.727 -22.538  0.00  0.00    -0.076 C 
BRANCH  15  16
ATOM     16  C   UNL     1      35.290 -17.508 -21.861  0.00  0.00    -0.003 C 
BRANCH  16  17
ATOM     17  C   UNL     1      34.297 -16.349 -21.694  0.00  0.00    +0.070 C 
ATOM     18  C   UNL     1      34.633 -15.520 -20.459  0.00  0.00    +0.021 C 
BRANCH  17  20
ATOM     19  O   UNL     1      32.241 -14.481 -22.423  0.00  0.00    -0.270 OA
ATOM     20  N   UNL     1      34.279 -15.498 -22.861  0.00  0.00    -0.303 N 
ATOM     21  C   UNL     1      33.236 -14.624 -23.128  0.00  0.00    +0.247 C 
ATOM     22  H   UNL     1      35.036 -15.540 -23.489  0.00  0.00    +0.150 HD
BRANCH  21  24
ATOM     23  N   UNL     1      33.164 -13.767 -26.763  0.00  0.00    -0.242 NA
ATOM     24  C   UNL     1      33.356 -13.837 -24.382  0.00  0.00    +0.072 C 
ATOM     25  C   UNL     1      33.745 -12.521 -24.329  0.00  0.00    +0.008 C 
ATOM     26  C   UNL     1      33.075 -14.426 -25.586  0.00  0.00    +0.103 C 
ATOM     27  C   UNL     1      33.849 -11.810 -25.520  0.00  0.00    +0.021 C 
ATOM     28  C   UNL     1      33.549 -12.473 -26.699  0.00  0.00    +0.099 C 
ENDBRANCH  21  24
ENDBRANCH  17  20
ENDBRANCH  16  17
ENDBRANCH  15  16
ENDBRANCH   1  15
TORSDOF 6
ENDMDL
MODEL 9
REMARK VINA RESULT:      -9.7      6.251     11.682
REMARK  Name = 71919
REMARK  6 active torsions:
REMARK  status: ('A' for Active; 'I' for Inactive)
REMARK    1  A    between atoms: N_1  and  C_15
REMARK    2  A    between atoms: N_2  and  C_9
REMARK    3  A    between atoms: C_15  and  C_16
REMARK    4  A    between atoms: C_16  and  C_17
REMARK    5  A    between atoms: C_17  and  N_20
REMARK    6  A    between atoms: C_21  and  C_24
REMARK                            x       y       z     vdW  Elec       q    Type
REMARK                         _______ _______ _______ _____ _____    ______ ____
ROOT
ATOM      1  N   UNL     1      34.626 -21.446 -19.181  0.00  0.00    +0.389 N 
ATOM      2  N   UNL     1      34.619 -19.738 -21.471  0.00  0.00    -0.312 N 
ATOM      3  C   UNL     1      35.802 -21.373 -20.057  0.00  0.00    -0.055 C 
ATOM      4  C   UNL     1      33.402 -21.269 -19.974  0.00  0.00    -0.055 C 
ATOM      5  C   UNL     1      35.876 -20.018 -20.766  0.00  0.00    +0.068 C 
ATOM      6  C   UNL     1      33.396 -19.912 -20.682  0.00  0.00    +0.068 C 
ATOM      7  H   UNL     1      34.681 -20.696 -18.491  0.00  0.00    -0.080 HD
ENDROOT
BRANCH   2   9
ATOM      8  F   UNL     1      34.727 -16.034 -25.612  0.00  0.00    -0.204 F 
ATOM      9  C   UNL     1      34.645 -18.805 -22.514  0.00  0.00    +0.048 C 
ATOM     10  C   UNL     1      34.657 -19.222 -23.861  0.00  0.00    +0.017 C 
ATOM     11  C   UNL     1      34.662 -17.421 -22.250  0.00  0.00    +0.017 C 
ATOM     12  C   UNL     1      34.685 -18.292 -24.901  0.00  0.00    +0.031 C 
ATOM     13  C   UNL     1      34.689 -16.491 -23.290  0.00  0.00    +0.031 C 
ATOM     14  C   UNL     1      34.701 -16.926 -24.615  0.00  0.00    +0.140 C 
ENDBRANCH   2   9
BRANCH   1  15
ATOM     15  C   UNL     1      34.594 -22.722 -18.468  0.00  0.00    -0.076 C 
BRANCH  15  16
ATOM     16  C   UNL     1      35.398 -22.623 -17.169  0.00  0.00    -0.003 C 
BRANCH  16  17
ATOM     17  C   UNL     1      34.677 -23.279 -15.983  0.00  0.00    +0.070 C 
ATOM     18  C   UNL     1      35.132 -22.663 -14.664  0.00  0.00    +0.021 C 
BRANCH  17  20
ATOM     19  O   UNL     1      32.702 -24.695 -14.454  0.00  0.00    -0.270 OA
ATOM     20  N   UNL     1      33.243 -23.160 -16.106  0.00  0.00    -0.303 N 
ATOM     21  C   UNL     1      32.366 -23.891 -15.318  0.00  0.00    +0.247 C 
ATOM     22  H   UNL     1      32.875 -22.538 -16.774  0.00  0.00    +0.150 HD
BRANCH  21  24
ATOM     23  N   UNL     1      29.234 -22.538 -16.840  0.00  0.00    -0.242 NA
ATOM     24  C   UNL     1      30.922 -23.675 -15.586  0.00  0.00    +0.072 C 
ATOM     25  C   UNL     1      29.981 -24.373 -14.868  0.00  0.00    +0.008 C 
ATOM     26  C   UNL     1      30.532 -22.782 -16.548  0.00  0.00    +0.103 C 
ATOM     27  C   UNL     1      28.636 -24.149 -15.141  0.00  0.00    +0.021 C 
ATOM     28  C   UNL     1      28.318 -23.231 -16.128  0.00  0.00    +0.099 C 
ENDBRANCH  21  24
ENDBRANCH  17  20
ENDBRANCH  16  17
ENDBRANCH  15  16
ENDBRANCH   1  15
TORSDOF 6
ENDMDL
