MODEL 1
REMARK VINA RESULT:      -7.5      0.000      0.000
REMARK  Name = 24239
REMARK  1 active torsions:
REMARK  status: ('A' for Active; 'I' for Inactive)
REMARK    1  A    between atoms: C_6  and  N_13
REMARK                            x       y       z     vdW  Elec       q    Type
REMARK                         _______ _______ _______ _____ _____    ______ ____
ROOT
ATOM      1  N   UNL     1      36.303 -18.874 -21.371  0.00  0.00    -0.236 N 
ATOM      2  N   UNL     1      35.772 -17.832 -22.033  0.00  0.00    -0.180 NA
ATOM      3  C   UNL     1      35.379 -19.702 -20.792  0.00  0.00    +0.068 C 
ATOM      4  C   UNL     1      34.144 -19.147 -21.106  0.00  0.00    +0.036 C 
ATOM      5  C   UNL     1      35.522 -20.866 -20.035  0.00  0.00    +0.040 C 
ATOM      6  C   UNL     1      34.346 -21.478 -19.586  0.00  0.00    +0.144 C 
ATOM      7  C   UNL     1      32.972 -19.774 -20.649  0.00  0.00    +0.005 C 
ATOM      8  C   UNL     1      33.092 -20.943 -19.887  0.00  0.00    +0.024 C 
ATOM      9  C   UNL     1      34.457 -18.002 -21.869  0.00  0.00    +0.119 C 
ATOM     10  H   UNL     1      37.273 -19.029 -21.309  0.00  0.00    +0.174 HD
ENDROOT
BRANCH   6  13
ATOM     11  O   UNL     1      35.069 -22.646 -17.734  0.00  0.00    -0.126 OA
ATOM     12  O   UNL     1      33.867 -23.706 -19.235  0.00  0.00    -0.126 OA
ATOM     13  N   UNL     1      34.431 -22.668 -18.814  0.00  0.00    +0.058 N 
ENDBRANCH   6  13
TORSDOF 1
ENDMDL
MODEL 2
REMARK VINA RESULT:      -7.3      3.116      4.798
REMARK  Name = 24239
REMARK  1 active torsions:
REMARK  status: ('A' for Active; 'I' for Inactive)
REMARK    1  A    between atoms: C_6  and  N_13
REMARK                            x       y       z     vdW  Elec       q    Type
REMARK                         _______ _______ _______ _____ _____    ______ ____
ROOT
ATOM      1  N   UNL     1      32.772 -21.394 -19.760  0.00  0.00    -0.236 N 
ATOM      2  N   UNL     1      33.186 -22.466 -19.063  0.00  0.00    -0.180 NA
ATOM      3  C   UNL     1      33.785 -20.591 -20.209  0.00  0.00    +0.068 C 
ATOM      4  C   UNL     1      34.955 -21.194 -19.763  0.00  0.00    +0.036 C 
ATOM      5  C   UNL     1      33.772 -19.409 -20.952  0.00  0.00    +0.040 C 
ATOM      6  C   UNL     1      35.013 -18.831 -21.245  0.00  0.00    +0.144 C 
ATOM      7  C   UNL     1      36.193 -20.603 -20.066  0.00  0.00    +0.005 C 
ATOM      8  C   UNL     1      36.204 -19.417 -20.810  0.00  0.00    +0.024 C 
ATOM      9  C   UNL     1      34.515 -22.341 -19.067  0.00  0.00    +0.119 C 
ATOM     10  H   UNL     1      31.822 -21.204 -19.933  0.00  0.00    +0.174 HD
ENDROOT
BRANCH   6  13
ATOM     11  O   UNL     1      35.095 -16.532 -21.395  0.00  0.00    -0.126 OA
ATOM     12  O   UNL     1      35.064 -17.700 -23.253  0.00  0.00    -0.126 OA
ATOM     13  N   UNL     1      35.060 -17.629 -22.001  0.00  0.00    +0.058 N 
ENDBRANCH   6  13
TORSDOF 1
ENDMDL
MODEL 3
REMARK VINA RESULT:      -7.3      7.156      8.426
REMARK  Name = 24239
REMARK  1 active torsions:
REMARK  status: ('A' for Active; 'I' for Inactive)
REMARK    1  A    between atoms: C_6  and  N_13
REMARK                            x       y       z     vdW  Elec       q    Type
REMARK                         _______ _______ _______ _____ _____    ______ ____
ROOT
ATOM      1  N   UNL     1      30.584 -25.114 -13.428  0.00  0.00    -0.236 N 
ATOM      2  N   UNL     1      31.879 -25.182 -13.073  0.00  0.00    -0.180 NA
ATOM      3  C   UNL     1      30.346 -24.347 -14.537  0.00  0.00    +0.068 C 
ATOM      4  C   UNL     1      31.593 -23.879 -14.933  0.00  0.00    +0.036 C 
ATOM      5  C   UNL     1      29.164 -24.032 -15.210  0.00  0.00    +0.040 C 
ATOM      6  C   UNL     1      29.276 -23.203 -16.332  0.00  0.00    +0.144 C 
ATOM      7  C   UNL     1      31.690 -23.048 -16.062  0.00  0.00    +0.005 C 
ATOM      8  C   UNL     1      30.517 -22.719 -16.753  0.00  0.00    +0.024 C 
ATOM      9  C   UNL     1      32.489 -24.429 -13.991  0.00  0.00    +0.119 C 
ATOM     10  H   UNL     1      29.870 -25.575 -12.933  0.00  0.00    +0.174 HD
ENDROOT
BRANCH   6  13
ATOM     11  O   UNL     1      27.683 -21.673 -16.993  0.00  0.00    -0.126 OA
ATOM     12  O   UNL     1      27.531 -23.731 -17.744  0.00  0.00    -0.126 OA
ATOM     13  N   UNL     1      28.106 -22.852 -17.058  0.00  0.00    +0.058 N 
ENDBRANCH   6  13
TORSDOF 1
ENDMDL
MODEL 4
REMARK VINA RESULT:      -7.3      1.147      1.995
REMARK  Name = 24239
REMARK  1 active torsions:
REMARK  status: ('A' for Active; 'I' for Inactive)
REMARK    1  A    between atoms: C_6  and  N_13
REMARK                            x       y       z     vdW  Elec       q    Type
REMARK                         _______ _______ _______ _____ _____    ______ ____
ROOT
ATOM      1  N   UNL     1      34.277 -18.621 -21.768  0.00  0.00    -0.236 N 
ATOM      2  N   UNL     1      35.376 -17.962 -22.174  0.00  0.00    -0.180 NA
ATOM      3  C   UNL     1      34.533 -19.684 -20.944  0.00  0.00    +0.068 C 
ATOM      4  C   UNL     1      35.916 -19.715 -20.806  0.00  0.00    +0.036 C 
ATOM      5  C   UNL     1      33.684 -20.602 -20.323  0.00  0.00    +0.040 C 
ATOM      6  C   UNL     1      34.286 -21.586 -19.531  0.00  0.00    +0.144 C 
ATOM      7  C   UNL     1      36.505 -20.709 -20.006  0.00  0.00    +0.005 C 
ATOM      8  C   UNL     1      35.672 -21.640 -19.374  0.00  0.00    +0.024 C 
ATOM      9  C   UNL     1      36.371 -18.630 -21.586  0.00  0.00    +0.119 C 
ATOM     10  H   UNL     1      33.368 -18.362 -22.040  0.00  0.00    +0.174 HD
ENDROOT
BRANCH   6  13
ATOM     11  O   UNL     1      33.856 -23.737 -18.820  0.00  0.00    -0.126 OA
ATOM     12  O   UNL     1      32.387 -22.171 -18.361  0.00  0.00    -0.126 OA
ATOM     13  N   UNL     1      33.470 -22.545 -18.872  0.00  0.00    +0.058 N 
ENDBRANCH   6  13
TORSDOF 1
ENDMDL
MODEL 5
REMARK VINA RESULT:      -7.1      5.125      6.489
REMARK  Name = 24239
REMARK  1 active torsions:
REMARK  status: ('A' for Active; 'I' for Inactive)
REMARK    1  A    between atoms: C_6  and  N_13
REMARK                            x       y       z     vdW  Elec       q    Type
REMARK                         _______ _______ _______ _____ _____    ______ ____
ROOT
ATOM      1  N   UNL     1      35.222 -17.163 -20.990  0.00  0.00    -0.236 N 
ATOM      2  N   UNL     1      35.667 -18.365 -20.587  0.00  0.00    -0.180 NA
ATOM      3  C   UNL     1      34.905 -17.098 -22.320  0.00  0.00    +0.068 C 
ATOM      4  C   UNL     1      35.169 -18.369 -22.820  0.00  0.00    +0.036 C 
ATOM      5  C   UNL     1      34.420 -16.054 -23.110  0.00  0.00    +0.040 C 
ATOM      6  C   UNL     1      34.201 -16.332 -24.463  0.00  0.00    +0.144 C 
ATOM      7  C   UNL     1      34.943 -18.633 -24.182  0.00  0.00    +0.005 C 
ATOM      8  C   UNL     1      34.456 -17.599 -24.992  0.00  0.00    +0.024 C 
ATOM      9  C   UNL     1      35.634 -19.095 -21.703  0.00  0.00    +0.119 C 
ATOM     10  H   UNL     1      35.131 -16.395 -20.381  0.00  0.00    +0.174 HD
ENDROOT
BRANCH   6  13
ATOM     11  O   UNL     1      33.438 -14.186 -24.819  0.00  0.00    -0.126 OA
ATOM     12  O   UNL     1      33.548 -15.553 -26.533  0.00  0.00    -0.126 OA
ATOM     13  N   UNL     1      33.705 -15.307 -25.313  0.00  0.00    +0.058 N 
ENDBRANCH   6  13
TORSDOF 1
ENDMDL
MODEL 6
REMARK VINA RESULT:      -7.0      9.470      9.970
REMARK  Name = 24239
REMARK  1 active torsions:
REMARK  status: ('A' for Active; 'I' for Inactive)
REMARK    1  A    between atoms: C_6  and  N_13
REMARK                            x       y       z     vdW  Elec       q    Type
REMARK                         _______ _______ _______ _____ _____    ______ ____
ROOT
ATOM      1  N   UNL     1      37.766 -23.880 -11.249  0.00  0.00    -0.236 N 
ATOM      2  N   UNL     1      36.469 -23.879 -10.894  0.00  0.00    -0.180 NA
ATOM      3  C   UNL     1      38.056 -24.690 -12.314  0.00  0.00    +0.068 C 
ATOM      4  C   UNL     1      36.842 -25.263 -12.679  0.00  0.00    +0.036 C 
ATOM      5  C   UNL     1      39.255 -24.963 -12.974  0.00  0.00    +0.040 C 
ATOM      6  C   UNL     1      39.200 -25.859 -14.047  0.00  0.00    +0.144 C 
ATOM      7  C   UNL     1      36.802 -26.160 -13.760  0.00  0.00    +0.005 C 
ATOM      8  C   UNL     1      37.994 -26.448 -14.435  0.00  0.00    +0.024 C 
ATOM      9  C   UNL     1      35.911 -24.722 -11.767  0.00  0.00    +0.119 C 
ATOM     10  H   UNL     1      38.447 -23.344 -10.784  0.00  0.00    +0.174 HD
ENDROOT
BRANCH   6  13
ATOM     11  O   UNL     1      41.310 -26.780 -14.160  0.00  0.00    -0.126 OA
ATOM     12  O   UNL     1      40.488 -25.827 -15.959  0.00  0.00    -0.126 OA
ATOM     13  N   UNL     1      40.391 -26.170 -14.757  0.00  0.00    +0.058 N 
ENDBRANCH   6  13
TORSDOF 1
ENDMDL
MODEL 7
REMARK VINA RESULT:      -6.9      2.692      3.862
REMARK  Name = 24239
REMARK  1 active torsions:
REMARK  status: ('A' for Active; 'I' for Inactive)
REMARK    1  A    between atoms: C_6  and  N_13
REMARK                            x       y       z     vdW  Elec       q    Type
REMARK                         _______ _______ _______ _____ _____    ______ ____
ROOT
ATOM      1  N   UNL     1      34.603 -18.067 -25.208  0.00  0.00    -0.236 N 
ATOM      2  N   UNL     1      34.397 -16.853 -25.746  0.00  0.00    -0.180 NA
ATOM      3  C   UNL     1      34.795 -18.055 -23.853  0.00  0.00    +0.068 C 
ATOM      4  C   UNL     1      34.705 -16.718 -23.482  0.00  0.00    +0.036 C 
ATOM      5  C   UNL     1      35.035 -19.084 -22.940  0.00  0.00    +0.040 C 
ATOM      6  C   UNL     1      35.187 -18.719 -21.598  0.00  0.00    +0.144 C 
ATOM      7  C   UNL     1      34.859 -16.367 -22.130  0.00  0.00    +0.005 C 
ATOM      8  C   UNL     1      35.101 -17.384 -21.198  0.00  0.00    +0.024 C 
ATOM      9  C   UNL     1      34.459 -16.035 -24.692  0.00  0.00    +0.119 C 
ATOM     10  H   UNL     1      34.616 -18.893 -25.743  0.00  0.00    +0.174 HD
ENDROOT
BRANCH   6  13
ATOM     11  O   UNL     1      34.517 -20.542 -20.356  0.00  0.00    -0.126 OA
ATOM     12  O   UNL     1      36.552 -19.770 -20.065  0.00  0.00    -0.126 OA
ATOM     13  N   UNL     1      35.431 -19.726 -20.626  0.00  0.00    +0.058 N 
ENDBRANCH   6  13
TORSDOF 1
ENDMDL
MODEL 8
REMARK VINA RESULT:      -6.9      4.625      6.101
REMARK  Name = 24239
REMARK  1 active torsions:
REMARK  status: ('A' for Active; 'I' for Inactive)
REMARK    1  A    between atoms: C_6  and  N_13
REMARK                            x       y       z     vdW  Elec       q    Type
REMARK                         _______ _______ _______ _____ _____    ______ ____
ROOT
ATOM      1  N   UNL     1      32.886 -13.956 -24.660  0.00  0.00    -0.236 N 
ATOM      2  N   UNL     1      32.733 -14.153 -25.980  0.00  0.00    -0.180 NA
ATOM      3  C   UNL     1      33.561 -14.959 -24.017  0.00  0.00    +0.068 C 
ATOM      4  C   UNL     1      33.871 -15.884 -25.007  0.00  0.00    +0.036 C 
ATOM      5  C   UNL     1      33.917 -15.128 -22.677  0.00  0.00    +0.040 C 
ATOM      6  C   UNL     1      34.618 -16.294 -22.350  0.00  0.00    +0.144 C 
ATOM      7  C   UNL     1      34.576 -17.049 -24.663  0.00  0.00    +0.005 C 
ATOM      8  C   UNL     1      34.943 -17.239 -23.325  0.00  0.00    +0.024 C 
ATOM      9  C   UNL     1      33.334 -15.327 -26.187  0.00  0.00    +0.119 C 
ATOM     10  H   UNL     1      32.542 -13.160 -24.195  0.00  0.00    +0.174 HD
ENDROOT
BRANCH   6  13
ATOM     11  O   UNL     1      34.900 -15.579 -20.177  0.00  0.00    -0.126 OA
ATOM     12  O   UNL     1      35.450 -17.644 -20.677  0.00  0.00    -0.126 OA
ATOM     13  N   UNL     1      35.009 -16.516 -21.002  0.00  0.00    +0.058 N 
ENDBRANCH   6  13
TORSDOF 1
ENDMDL
MODEL 9
REMARK VINA RESULT:      -6.8      9.606      9.894
REMARK  Name = 24239
REMARK  1 active torsions:
REMARK  status: ('A' for Active; 'I' for Inactive)
REMARK    1  A    between atoms: C_6  and  N_13
REMARK                            x       y       z     vdW  Elec       q    Type
REMARK                         _______ _______ _______ _____ _____    ______ ____
ROOT
ATOM      1  N   UNL     1      38.517 -26.851 -14.438  0.00  0.00    -0.236 N 
ATOM      2  N   UNL     1      39.792 -26.639 -14.805  0.00  0.00    -0.180 NA
ATOM      3  C   UNL     1      38.036 -25.945 -13.532  0.00  0.00    +0.068 C 
ATOM      4  C   UNL     1      39.091 -25.072 -13.292  0.00  0.00    +0.036 C 
ATOM      5  C   UNL     1      36.789 -25.821 -12.915  0.00  0.00    +0.040 C 
ATOM      6  C   UNL     1      36.628 -24.759 -12.019  0.00  0.00    +0.144 C 
ATOM      7  C   UNL     1      38.913 -24.009 -12.390  0.00  0.00    +0.005 C 
ATOM      8  C   UNL     1      37.671 -23.867 -11.761  0.00  0.00    +0.024 C 
ATOM      9  C   UNL     1      40.138 -25.556 -14.106  0.00  0.00    +0.119 C 
ATOM     10  H   UNL     1      37.976 -27.594 -14.790  0.00  0.00    +0.174 HD
ENDROOT
BRANCH   6  13
ATOM     11  O   UNL     1      35.209 -25.097 -10.234  0.00  0.00    -0.126 OA
ATOM     12  O   UNL     1      34.482 -23.919 -11.938  0.00  0.00    -0.126 OA
ATOM     13  N   UNL     1      35.379 -24.583 -11.365  0.00  0.00    +0.058 N 
ENDBRANCH   6  13
TORSDOF 1
ENDMDL
