MODEL 1
REMARK VINA RESULT:     -10.2      0.000      0.000
REMARK  Name = 4487
REMARK  3 active torsions:
REMARK  status: ('A' for Active; 'I' for Inactive)
REMARK    1  A    between atoms: N_3  and  C_9
REMARK    2  A    between atoms: C_5  and  N_16
REMARK    3  A    between atoms: C_17  and  C_20
REMARK                            x       y       z     vdW  Elec       q    Type
REMARK                         _______ _______ _______ _____ _____    ______ ____
ROOT
ATOM      1  O   UNL     1      34.156 -16.121 -20.765  0.00  0.00    -0.264 OA
ATOM      2  N   UNL     1      34.885 -17.977 -23.600  0.00  0.00    -0.265 N 
ATOM      3  N   UNL     1      34.686 -17.930 -22.212  0.00  0.00    -0.213 N 
ATOM      4  C   UNL     1      34.829 -16.667 -24.069  0.00  0.00    +0.073 A 
ATOM      5  C   UNL     1      34.526 -15.789 -23.102  0.00  0.00    +0.122 A 
ATOM      6  C   UNL     1      34.395 -16.609 -21.858  0.00  0.00    +0.293 A 
ATOM      7  C   UNL     1      34.278 -19.070 -24.353  0.00  0.00    +0.152 C 
ATOM      8  C   UNL     1      35.042 -16.353 -25.513  0.00  0.00    +0.053 C 
ENDROOT
BRANCH   3   9
ATOM      9  C   UNL     1      35.060 -18.978 -21.335  0.00  0.00    +0.084 C 
ATOM     10  C   UNL     1      34.089 -19.840 -20.815  0.00  0.00    +0.019 C 
ATOM     11  C   UNL     1      36.401 -19.158 -20.982  0.00  0.00    +0.019 C 
ATOM     12  C   UNL     1      34.456 -20.873 -19.951  0.00  0.00    +0.002 C 
ATOM     13  C   UNL     1      36.768 -20.190 -20.118  0.00  0.00    +0.002 C 
ATOM     14  C   UNL     1      35.796 -21.047 -19.603  0.00  0.00    +0.000 C 
ENDBRANCH   3   9
BRANCH   5  16
ATOM     15  O   UNL     1      32.511 -14.340 -24.512  0.00  0.00    -0.270 OA
ATOM     16  N   UNL     1      34.342 -14.452 -23.078  0.00  0.00    -0.276 N 
ATOM     17  C   UNL     1      33.339 -13.791 -23.788  0.00  0.00    +0.251 C 
ATOM     18  H   UNL     1      34.952 -13.911 -22.527  0.00  0.00    +0.155 HD
BRANCH  17  20
ATOM     19  N   UNL     1      32.302 -10.435 -22.516  0.00  0.00    -0.242 NA
ATOM     20  C   UNL     1      33.279 -12.316 -23.619  0.00  0.00    +0.073 C 
ATOM     21  C   UNL     1      34.099 -11.508 -24.369  0.00  0.00    +0.008 C 
ATOM     22  C   UNL     1      32.406 -11.768 -22.718  0.00  0.00    +0.103 C 
ATOM     23  C   UNL     1      34.021 -10.131 -24.189  0.00  0.00    +0.021 C 
ATOM     24  C   UNL     1      33.114  -9.650 -23.259  0.00  0.00    +0.099 C 
ENDBRANCH  17  20
ENDBRANCH   5  16
TORSDOF 3
ENDMDL
MODEL 2
REMARK VINA RESULT:      -9.7      3.633      6.050
REMARK  Name = 4487
REMARK  3 active torsions:
REMARK  status: ('A' for Active; 'I' for Inactive)
REMARK    1  A    between atoms: N_3  and  C_9
REMARK    2  A    between atoms: C_5  and  N_16
REMARK    3  A    between atoms: C_17  and  C_20
REMARK                            x       y       z     vdW  Elec       q    Type
REMARK                         _______ _______ _______ _____ _____    ______ ____
ROOT
ATOM      1  O   UNL     1      33.845 -11.173 -24.537  0.00  0.00    -0.264 OA
ATOM      2  N   UNL     1      32.205 -12.917 -22.030  0.00  0.00    -0.265 N 
ATOM      3  N   UNL     1      33.115 -12.918 -23.098  0.00  0.00    -0.213 N 
ATOM      4  C   UNL     1      31.638 -11.647 -21.972  0.00  0.00    +0.073 A 
ATOM      5  C   UNL     1      32.175 -10.805 -22.868  0.00  0.00    +0.122 A 
ATOM      6  C   UNL     1      33.185 -11.619 -23.612  0.00  0.00    +0.293 A 
ATOM      7  C   UNL     1      32.564 -13.635 -20.810  0.00  0.00    +0.152 C 
ATOM      8  C   UNL     1      30.590 -11.313 -20.963  0.00  0.00    +0.053 C 
ENDROOT
BRANCH   3   9
ATOM      9  C   UNL     1      33.586 -14.101 -23.721  0.00  0.00    +0.084 C 
ATOM     10  C   UNL     1      33.110 -14.468 -24.983  0.00  0.00    +0.019 C 
ATOM     11  C   UNL     1      34.529 -14.908 -23.078  0.00  0.00    +0.019 C 
ATOM     12  C   UNL     1      33.574 -15.631 -25.598  0.00  0.00    +0.002 C 
ATOM     13  C   UNL     1      34.992 -16.072 -23.692  0.00  0.00    +0.002 C 
ATOM     14  C   UNL     1      34.515 -16.434 -24.951  0.00  0.00    +0.000 C 
ENDBRANCH   3   9
BRANCH   5  16
ATOM     15  O   UNL     1      32.845  -8.577 -21.213  0.00  0.00    -0.270 OA
ATOM     16  N   UNL     1      31.974  -9.503 -23.164  0.00  0.00    -0.276 N 
ATOM     17  C   UNL     1      32.320  -8.449 -22.318  0.00  0.00    +0.251 C 
ATOM     18  H   UNL     1      31.557  -9.285 -24.029  0.00  0.00    +0.155 HD
BRANCH  17  20
ATOM     19  N   UNL     1      31.011  -4.954 -22.478  0.00  0.00    -0.242 NA
ATOM     20  C   UNL     1      32.042  -7.081 -22.826  0.00  0.00    +0.073 C 
ATOM     21  C   UNL     1      32.531  -6.695 -24.051  0.00  0.00    +0.008 C 
ATOM     22  C   UNL     1      31.300  -6.211 -22.074  0.00  0.00    +0.103 C 
ATOM     23  C   UNL     1      32.254  -5.409 -24.501  0.00  0.00    +0.021 C 
ATOM     24  C   UNL     1      31.498  -4.585 -23.685  0.00  0.00    +0.099 C 
ENDBRANCH  17  20
ENDBRANCH   5  16
TORSDOF 3
ENDMDL
MODEL 3
REMARK VINA RESULT:      -9.6      2.288      8.553
REMARK  Name = 4487
REMARK  3 active torsions:
REMARK  status: ('A' for Active; 'I' for Inactive)
REMARK    1  A    between atoms: N_3  and  C_9
REMARK    2  A    between atoms: C_5  and  N_16
REMARK    3  A    between atoms: C_17  and  C_20
REMARK                            x       y       z     vdW  Elec       q    Type
REMARK                         _______ _______ _______ _____ _____    ______ ____
ROOT
ATOM      1  O   UNL     1      33.663 -11.859 -25.213  0.00  0.00    -0.264 OA
ATOM      2  N   UNL     1      32.213 -11.144 -22.147  0.00  0.00    -0.265 N 
ATOM      3  N   UNL     1      32.739 -10.686 -23.364  0.00  0.00    -0.213 N 
ATOM      4  C   UNL     1      32.412 -12.521 -22.104  0.00  0.00    +0.073 A 
ATOM      5  C   UNL     1      32.951 -12.997 -23.236  0.00  0.00    +0.122 A 
ATOM      6  C   UNL     1      33.151 -11.797 -24.107  0.00  0.00    +0.293 A 
ATOM      7  C   UNL     1      30.971 -10.550 -21.659  0.00  0.00    +0.152 C 
ATOM      8  C   UNL     1      31.999 -13.326 -20.916  0.00  0.00    +0.053 C 
ENDROOT
BRANCH   3   9
ATOM      9  C   UNL     1      33.084  -9.332 -23.604  0.00  0.00    +0.084 C 
ATOM     10  C   UNL     1      34.428  -8.948 -23.660  0.00  0.00    +0.019 C 
ATOM     11  C   UNL     1      32.085  -8.372 -23.788  0.00  0.00    +0.019 C 
ATOM     12  C   UNL     1      34.769  -7.617 -23.897  0.00  0.00    +0.002 C 
ATOM     13  C   UNL     1      32.425  -7.040 -24.024  0.00  0.00    +0.002 C 
ATOM     14  C   UNL     1      33.767  -6.662 -24.079  0.00  0.00    +0.000 C 
ENDBRANCH   3   9
BRANCH   5  16
ATOM     15  O   UNL     1      35.018 -14.637 -22.147  0.00  0.00    -0.270 OA
ATOM     16  N   UNL     1      33.295 -14.231 -23.661  0.00  0.00    -0.276 N 
ATOM     17  C   UNL     1      34.317 -14.993 -23.093  0.00  0.00    +0.251 C 
ATOM     18  H   UNL     1      32.797 -14.616 -24.417  0.00  0.00    +0.155 HD
BRANCH  17  20
ATOM     19  N   UNL     1      34.345 -17.786 -25.574  0.00  0.00    -0.242 NA
ATOM     20  C   UNL     1      34.536 -16.339 -23.682  0.00  0.00    +0.073 C 
ATOM     21  C   UNL     1      35.101 -17.335 -22.921  0.00  0.00    +0.008 C 
ATOM     22  C   UNL     1      34.174 -16.584 -24.978  0.00  0.00    +0.103 C 
ATOM     23  C   UNL     1      35.294 -18.585 -23.499  0.00  0.00    +0.021 C 
ATOM     24  C   UNL     1      34.903 -18.757 -24.816  0.00  0.00    +0.099 C 
ENDBRANCH  17  20
ENDBRANCH   5  16
TORSDOF 3
ENDMDL
MODEL 4
REMARK VINA RESULT:      -9.5      1.984      7.771
REMARK  Name = 4487
REMARK  3 active torsions:
REMARK  status: ('A' for Active; 'I' for Inactive)
REMARK    1  A    between atoms: N_3  and  C_9
REMARK    2  A    between atoms: C_5  and  N_16
REMARK    3  A    between atoms: C_17  and  C_20
REMARK                            x       y       z     vdW  Elec       q    Type
REMARK                         _______ _______ _______ _____ _____    ______ ____
ROOT
ATOM      1  O   UNL     1      34.862 -16.121 -20.536  0.00  0.00    -0.264 OA
ATOM      2  N   UNL     1      34.306 -16.742 -23.901  0.00  0.00    -0.265 N 
ATOM      3  N   UNL     1      34.323 -15.832 -22.833  0.00  0.00    -0.213 N 
ATOM      4  C   UNL     1      34.576 -18.002 -23.374  0.00  0.00    +0.073 A 
ATOM      5  C   UNL     1      34.847 -17.961 -22.061  0.00  0.00    +0.122 A 
ATOM      6  C   UNL     1      34.716 -16.521 -21.680  0.00  0.00    +0.293 A 
ATOM      7  C   UNL     1      34.877 -16.325 -25.178  0.00  0.00    +0.152 C 
ATOM      8  C   UNL     1      34.595 -19.216 -24.242  0.00  0.00    +0.053 C 
ENDROOT
BRANCH   3   9
ATOM      9  C   UNL     1      33.717 -14.552 -22.888  0.00  0.00    +0.084 C 
ATOM     10  C   UNL     1      32.670 -14.232 -22.018  0.00  0.00    +0.019 C 
ATOM     11  C   UNL     1      34.161 -13.602 -23.812  0.00  0.00    +0.019 C 
ATOM     12  C   UNL     1      32.073 -12.972 -22.072  0.00  0.00    +0.002 C 
ATOM     13  C   UNL     1      33.564 -12.342 -23.866  0.00  0.00    +0.002 C 
ATOM     14  C   UNL     1      32.520 -12.027 -22.996  0.00  0.00    +0.000 C 
ENDBRANCH   3   9
BRANCH   5  16
ATOM     15  O   UNL     1      33.155 -20.043 -21.087  0.00  0.00    -0.270 OA
ATOM     16  N   UNL     1      35.181 -18.896 -21.146  0.00  0.00    -0.276 N 
ATOM     17  C   UNL     1      34.313 -19.895 -20.701  0.00  0.00    +0.251 C 
ATOM     18  H   UNL     1      36.089 -18.871 -20.769  0.00  0.00    +0.155 HD
BRANCH  17  20
ATOM     19  N   UNL     1      34.489 -22.679 -18.217  0.00  0.00    -0.242 NA
ATOM     20  C   UNL     1      34.866 -20.849 -19.706  0.00  0.00    +0.073 C 
ATOM     21  C   UNL     1      36.197 -20.789 -19.369  0.00  0.00    +0.008 C 
ATOM     22  C   UNL     1      34.050 -21.783 -19.129  0.00  0.00    +0.103 C 
ATOM     23  C   UNL     1      36.687 -21.695 -18.434  0.00  0.00    +0.021 C 
ATOM     24  C   UNL     1      35.800 -22.611 -17.893  0.00  0.00    +0.099 C 
ENDBRANCH  17  20
ENDBRANCH   5  16
TORSDOF 3
ENDMDL
MODEL 5
REMARK VINA RESULT:      -9.4      1.563      7.540
REMARK  Name = 4487
REMARK  3 active torsions:
REMARK  status: ('A' for Active; 'I' for Inactive)
REMARK    1  A    between atoms: N_3  and  C_9
REMARK    2  A    between atoms: C_5  and  N_16
REMARK    3  A    between atoms: C_17  and  C_20
REMARK                            x       y       z     vdW  Elec       q    Type
REMARK                         _______ _______ _______ _____ _____    ______ ____
ROOT
ATOM      1  O   UNL     1      34.572 -14.319 -21.319  0.00  0.00    -0.264 OA
ATOM      2  N   UNL     1      33.427 -14.296 -24.591  0.00  0.00    -0.265 N 
ATOM      3  N   UNL     1      33.609 -13.619 -23.376  0.00  0.00    -0.213 N 
ATOM      4  C   UNL     1      33.833 -15.613 -24.394  0.00  0.00    +0.073 A 
ATOM      5  C   UNL     1      34.341 -15.815 -23.169  0.00  0.00    +0.122 A 
ATOM      6  C   UNL     1      34.232 -14.492 -22.479  0.00  0.00    +0.293 A 
ATOM      7  C   UNL     1      33.738 -13.593 -25.833  0.00  0.00    +0.152 C 
ATOM      8  C   UNL     1      33.734 -16.625 -25.486  0.00  0.00    +0.053 C 
ENDROOT
BRANCH   3   9
ATOM      9  C   UNL     1      32.958 -12.400 -23.057  0.00  0.00    +0.084 C 
ATOM     10  C   UNL     1      31.885 -12.390 -22.161  0.00  0.00    +0.019 C 
ATOM     11  C   UNL     1      33.384 -11.201 -23.636  0.00  0.00    +0.019 C 
ATOM     12  C   UNL     1      31.245 -11.191 -21.845  0.00  0.00    +0.002 C 
ATOM     13  C   UNL     1      32.744 -10.003 -23.322  0.00  0.00    +0.002 C 
ATOM     14  C   UNL     1      31.674  -9.997 -22.426  0.00  0.00    +0.000 C 
ENDBRANCH   3   9
BRANCH   5  16
ATOM     15  O   UNL     1      33.055 -17.403 -21.176  0.00  0.00    -0.270 OA
ATOM     16  N   UNL     1      34.870 -16.887 -22.541  0.00  0.00    -0.276 N 
ATOM     17  C   UNL     1      34.197 -17.631 -21.570  0.00  0.00    +0.251 C 
ATOM     18  H   UNL     1      35.784 -17.159 -22.782  0.00  0.00    +0.155 HD
BRANCH  17  20
ATOM     19  N   UNL     1      37.030 -19.779 -20.422  0.00  0.00    -0.242 NA
ATOM     20  C   UNL     1      34.934 -18.791 -21.007  0.00  0.00    +0.073 C 
ATOM     21  C   UNL     1      34.240 -19.895 -20.572  0.00  0.00    +0.008 C 
ATOM     22  C   UNL     1      36.299 -18.757 -20.924  0.00  0.00    +0.103 C 
ATOM     23  C   UNL     1      34.957 -20.966 -20.049  0.00  0.00    +0.021 C 
ATOM     24  C   UNL     1      36.337 -20.859 -19.997  0.00  0.00    +0.099 C 
ENDBRANCH  17  20
ENDBRANCH   5  16
TORSDOF 3
ENDMDL
MODEL 6
REMARK VINA RESULT:      -9.1      5.687      9.281
REMARK  Name = 4487
REMARK  3 active torsions:
REMARK  status: ('A' for Active; 'I' for Inactive)
REMARK    1  A    between atoms: N_3  and  C_9
REMARK    2  A    between atoms: C_5  and  N_16
REMARK    3  A    between atoms: C_17  and  C_20
REMARK                            x       y       z     vdW  Elec       q    Type
REMARK                         _______ _______ _______ _____ _____    ______ ____
ROOT
ATOM      1  O   UNL     1      37.558 -21.833 -16.234  0.00  0.00    -0.264 OA
ATOM      2  N   UNL     1      34.818 -23.850 -15.571  0.00  0.00    -0.265 N 
ATOM      3  N   UNL     1      36.139 -23.482 -15.276  0.00  0.00    -0.213 N 
ATOM      4  C   UNL     1      34.425 -23.119 -16.690  0.00  0.00    +0.073 A 
ATOM      5  C   UNL     1      35.364 -22.247 -17.086  0.00  0.00    +0.122 A 
ATOM      6  C   UNL     1      36.506 -22.446 -16.142  0.00  0.00    +0.293 A 
ATOM      7  C   UNL     1      33.895 -24.079 -14.463  0.00  0.00    +0.152 C 
ATOM      8  C   UNL     1      33.074 -23.300 -17.297  0.00  0.00    +0.053 C 
ENDROOT
BRANCH   3   9
ATOM      9  C   UNL     1      37.009 -24.268 -14.481  0.00  0.00    +0.084 C 
ATOM     10  C   UNL     1      37.386 -23.832 -13.207  0.00  0.00    +0.019 C 
ATOM     11  C   UNL     1      37.498 -25.486 -14.964  0.00  0.00    +0.019 C 
ATOM     12  C   UNL     1      38.242 -24.605 -12.423  0.00  0.00    +0.002 C 
ATOM     13  C   UNL     1      38.355 -26.260 -14.181  0.00  0.00    +0.002 C 
ATOM     14  C   UNL     1      38.727 -25.820 -12.911  0.00  0.00    +0.000 C 
ENDBRANCH   3   9
BRANCH   5  16
ATOM     15  O   UNL     1      35.152 -22.775 -19.884  0.00  0.00    -0.270 OA
ATOM     16  N   UNL     1      35.430 -21.332 -18.077  0.00  0.00    -0.276 N 
ATOM     17  C   UNL     1      35.322 -21.643 -19.433  0.00  0.00    +0.251 C 
ATOM     18  H   UNL     1      35.565 -20.390 -17.828  0.00  0.00    +0.155 HD
BRANCH  17  20
ATOM     19  N   UNL     1      36.721 -18.797 -21.406  0.00  0.00    -0.242 NA
ATOM     20  C   UNL     1      35.397 -20.499 -20.377  0.00  0.00    +0.073 C 
ATOM     21  C   UNL     1      34.272 -20.100 -21.059  0.00  0.00    +0.008 C 
ATOM     22  C   UNL     1      36.584 -19.845 -20.563  0.00  0.00    +0.103 C 
ATOM     23  C   UNL     1      34.373 -19.025 -21.936  0.00  0.00    +0.021 C 
ATOM     24  C   UNL     1      35.608 -18.414 -22.072  0.00  0.00    +0.099 C 
ENDBRANCH  17  20
ENDBRANCH   5  16
TORSDOF 3
ENDMDL
MODEL 7
REMARK VINA RESULT:      -8.9      2.037      3.408
REMARK  Name = 4487
REMARK  3 active torsions:
REMARK  status: ('A' for Active; 'I' for Inactive)
REMARK    1  A    between atoms: N_3  and  C_9
REMARK    2  A    between atoms: C_5  and  N_16
REMARK    3  A    between atoms: C_17  and  C_20
REMARK                            x       y       z     vdW  Elec       q    Type
REMARK                         _______ _______ _______ _____ _____    ______ ____
ROOT
ATOM      1  O   UNL     1      33.625 -13.738 -22.022  0.00  0.00    -0.264 OA
ATOM      2  N   UNL     1      33.662 -15.047 -25.231  0.00  0.00    -0.265 N 
ATOM      3  N   UNL     1      33.810 -15.245 -23.850  0.00  0.00    -0.213 N 
ATOM      4  C   UNL     1      33.472 -13.683 -25.435  0.00  0.00    +0.073 A 
ATOM      5  C   UNL     1      33.402 -12.998 -24.284  0.00  0.00    +0.122 A 
ATOM      6  C   UNL     1      33.594 -14.021 -23.209  0.00  0.00    +0.293 A 
ATOM      7  C   UNL     1      32.905 -16.033 -25.998  0.00  0.00    +0.152 C 
ATOM      8  C   UNL     1      33.317 -13.120 -26.808  0.00  0.00    +0.053 C 
ENDROOT
BRANCH   3   9
ATOM      9  C   UNL     1      34.405 -16.401 -23.287  0.00  0.00    +0.084 C 
ATOM     10  C   UNL     1      34.890 -17.418 -24.116  0.00  0.00    +0.019 C 
ATOM     11  C   UNL     1      34.511 -16.535 -21.900  0.00  0.00    +0.019 C 
ATOM     12  C   UNL     1      35.477 -18.556 -23.563  0.00  0.00    +0.002 C 
ATOM     13  C   UNL     1      35.096 -17.674 -21.346  0.00  0.00    +0.002 C 
ATOM     14  C   UNL     1      35.579 -18.684 -22.177  0.00  0.00    +0.000 C 
ENDBRANCH   3   9
BRANCH   5  16
ATOM     15  O   UNL     1      35.143 -10.836 -24.950  0.00  0.00    -0.270 OA
ATOM     16  N   UNL     1      33.209 -11.697 -23.981  0.00  0.00    -0.276 N 
ATOM     17  C   UNL     1      34.094 -10.676 -24.330  0.00  0.00    +0.251 C 
ATOM     18  H   UNL     1      32.395 -11.454 -23.483  0.00  0.00    +0.155 HD
BRANCH  17  20
ATOM     19  N   UNL     1      32.004  -7.830 -23.110  0.00  0.00    -0.242 NA
ATOM     20  C   UNL     1      33.700  -9.301 -23.929  0.00  0.00    +0.073 C 
ATOM     21  C   UNL     1      34.616  -8.279 -24.001  0.00  0.00    +0.008 C 
ATOM     22  C   UNL     1      32.427  -9.057 -23.489  0.00  0.00    +0.103 C 
ATOM     23  C   UNL     1      34.218  -7.002 -23.619  0.00  0.00    +0.021 C 
ATOM     24  C   UNL     1      32.914  -6.832 -23.184  0.00  0.00    +0.099 C 
ENDBRANCH  17  20
ENDBRANCH   5  16
TORSDOF 3
ENDMDL
MODEL 8
REMARK VINA RESULT:      -8.9      3.393      9.169
REMARK  Name = 4487
REMARK  3 active torsions:
REMARK  status: ('A' for Active; 'I' for Inactive)
REMARK    1  A    between atoms: N_3  and  C_9
REMARK    2  A    between atoms: C_5  and  N_16
REMARK    3  A    between atoms: C_17  and  C_20
REMARK                            x       y       z     vdW  Elec       q    Type
REMARK                         _______ _______ _______ _____ _____    ______ ____
ROOT
ATOM      1  O   UNL     1      32.194 -10.693 -22.201  0.00  0.00    -0.264 OA
ATOM      2  N   UNL     1      34.197  -8.543 -24.040  0.00  0.00    -0.265 N 
ATOM      3  N   UNL     1      33.153  -8.722 -23.121  0.00  0.00    -0.213 N 
ATOM      4  C   UNL     1      34.582  -9.807 -24.478  0.00  0.00    +0.073 A 
ATOM      5  C   UNL     1      33.923 -10.791 -23.849  0.00  0.00    +0.122 A 
ATOM      6  C   UNL     1      32.984 -10.095 -22.915  0.00  0.00    +0.293 A 
ATOM      7  C   UNL     1      35.191  -7.508 -23.771  0.00  0.00    +0.152 C 
ATOM      8  C   UNL     1      35.655  -9.978 -25.502  0.00  0.00    +0.053 C 
ENDROOT
BRANCH   3   9
ATOM      9  C   UNL     1      32.245  -7.695 -22.761  0.00  0.00    +0.084 C 
ATOM     10  C   UNL     1      32.260  -7.163 -21.468  0.00  0.00    +0.019 C 
ATOM     11  C   UNL     1      31.328  -7.207 -23.696  0.00  0.00    +0.019 C 
ATOM     12  C   UNL     1      31.368  -6.151 -21.114  0.00  0.00    +0.002 C 
ATOM     13  C   UNL     1      30.434  -6.195 -23.342  0.00  0.00    +0.002 C 
ATOM     14  C   UNL     1      30.454  -5.668 -22.052  0.00  0.00    +0.000 C 
ENDBRANCH   3   9
BRANCH   5  16
ATOM     15  O   UNL     1      33.280 -12.388 -26.126  0.00  0.00    -0.270 OA
ATOM     16  N   UNL     1      33.968 -12.139 -23.915  0.00  0.00    -0.276 N 
ATOM     17  C   UNL     1      33.642 -12.874 -25.056  0.00  0.00    +0.251 C 
ATOM     18  H   UNL     1      34.246 -12.632 -23.111  0.00  0.00    +0.155 HD
BRANCH  17  20
ATOM     19  N   UNL     1      33.525 -16.494 -25.968  0.00  0.00    -0.242 NA
ATOM     20  C   UNL     1      33.773 -14.349 -24.946  0.00  0.00    +0.073 C 
ATOM     21  C   UNL     1      34.241 -14.908 -23.780  0.00  0.00    +0.008 C 
ATOM     22  C   UNL     1      33.429 -15.146 -26.003  0.00  0.00    +0.103 C 
ATOM     23  C   UNL     1      34.354 -16.292 -23.706  0.00  0.00    +0.021 C 
ATOM     24  C   UNL     1      33.986 -17.033 -24.817  0.00  0.00    +0.099 C 
ENDBRANCH  17  20
ENDBRANCH   5  16
TORSDOF 3
ENDMDL
MODEL 9
REMARK VINA RESULT:      -8.8      2.270      3.887
REMARK  Name = 4487
REMARK  3 active torsions:
REMARK  status: ('A' for Active; 'I' for Inactive)
REMARK    1  A    between atoms: N_3  and  C_9
REMARK    2  A    between atoms: C_5  and  N_16
REMARK    3  A    between atoms: C_17  and  C_20
REMARK                            x       y       z     vdW  Elec       q    Type
REMARK                         _______ _______ _______ _____ _____    ______ ____
ROOT
ATOM      1  O   UNL     1      33.571 -13.989 -21.767  0.00  0.00    -0.264 OA
ATOM      2  N   UNL     1      33.666 -14.266 -25.221  0.00  0.00    -0.265 N 
ATOM      3  N   UNL     1      33.737 -14.882 -23.963  0.00  0.00    -0.213 N 
ATOM      4  C   UNL     1      33.578 -12.893 -25.003  0.00  0.00    +0.073 A 
ATOM      5  C   UNL     1      33.503 -12.585 -23.700  0.00  0.00    +0.122 A 
ATOM      6  C   UNL     1      33.576 -13.896 -22.984  0.00  0.00    +0.293 A 
ATOM      7  C   UNL     1      32.880 -14.911 -26.268  0.00  0.00    +0.152 C 
ATOM      8  C   UNL     1      33.526 -11.930 -26.142  0.00  0.00    +0.053 C 
ENDROOT
BRANCH   3   9
ATOM      9  C   UNL     1      34.226 -16.198 -23.765  0.00  0.00    +0.084 C 
ATOM     10  C   UNL     1      34.659 -16.605 -22.500  0.00  0.00    +0.019 C 
ATOM     11  C   UNL     1      34.279 -17.098 -24.834  0.00  0.00    +0.019 C 
ATOM     12  C   UNL     1      35.139 -17.900 -22.304  0.00  0.00    +0.002 C 
ATOM     13  C   UNL     1      34.760 -18.393 -24.639  0.00  0.00    +0.002 C 
ATOM     14  C   UNL     1      35.190 -18.794 -23.375  0.00  0.00    +0.000 C 
ENDBRANCH   3   9
BRANCH   5  16
ATOM     15  O   UNL     1      31.138 -11.609 -22.434  0.00  0.00    -0.270 OA
ATOM     16  N   UNL     1      33.384 -11.425 -23.019  0.00  0.00    -0.276 N 
ATOM     17  C   UNL     1      32.201 -10.993 -22.417  0.00  0.00    +0.251 C 
ATOM     18  H   UNL     1      34.179 -10.850 -22.943  0.00  0.00    +0.155 HD
BRANCH  17  20
ATOM     19  N   UNL     1      32.017  -8.504 -19.638  0.00  0.00    -0.242 NA
ATOM     20  C   UNL     1      32.270  -9.699 -21.692  0.00  0.00    +0.073 C 
ATOM     21  C   UNL     1      32.631  -8.556 -22.365  0.00  0.00    +0.008 C 
ATOM     22  C   UNL     1      31.974  -9.649 -20.357  0.00  0.00    +0.103 C 
ATOM     23  C   UNL     1      32.686  -7.359 -21.659  0.00  0.00    +0.021 C 
ATOM     24  C   UNL     1      32.373  -7.386 -20.310  0.00  0.00    +0.099 C 
ENDBRANCH  17  20
ENDBRANCH   5  16
TORSDOF 3
ENDMDL
