MODEL 1
REMARK VINA RESULT:      -9.8      0.000      0.000
REMARK  Name = 766948
REMARK  3 active torsions:
REMARK  status: ('A' for Active; 'I' for Inactive)
REMARK    1  A    between atoms: N_2  and  C_13
REMARK    2  A    between atoms: C_3  and  C_17
REMARK    3  A    between atoms: C_12  and  C_15
REMARK                            x       y       z     vdW  Elec       q    Type
REMARK                         _______ _______ _______ _____ _____    ______ ____
ROOT
ATOM      1  O   UNL     1      31.896 -12.991 -23.157  0.00  0.00    -0.270 OA
ATOM      2  N   UNL     1      34.218 -13.350 -23.351  0.00  0.00    -0.275 N 
ATOM      3  C   UNL     1      33.040 -12.566 -23.281  0.00  0.00    +0.252 C 
ATOM      4  H   UNL     1      35.058 -12.848 -23.451  0.00  0.00    +0.156 HD
ENDROOT
BRANCH   2  13
ATOM      5  S   UNL     1      34.786 -15.378 -21.781  0.00  0.00    -0.076 S 
ATOM      6  C   UNL     1      35.000 -19.440 -23.769  0.00  0.00    +0.005 C 
ATOM      7  C   UNL     1      34.641 -19.448 -22.276  0.00  0.00    +0.006 C 
ATOM      8  C   UNL     1      34.315 -18.281 -24.510  0.00  0.00    +0.027 C 
ATOM      9  C   UNL     1      35.089 -18.156 -21.575  0.00  0.00    +0.033 C 
ATOM     10  C   UNL     1      34.421 -16.996 -23.750  0.00  0.00    -0.009 A 
ATOM     11  C   UNL     1      34.752 -16.960 -22.408  0.00  0.00    +0.005 A 
ATOM     12  C   UNL     1      34.182 -15.685 -24.261  0.00  0.00    +0.084 A 
ATOM     13  C   UNL     1      34.346 -14.714 -23.297  0.00  0.00    +0.090 A 
BRANCH  12  15
ATOM     14  N   UNL     1      33.506 -15.138 -26.701  0.00  0.00    -0.191 NA
ATOM     15  C   UNL     1      33.808 -15.383 -25.609  0.00  0.00    +0.102 C 
ENDBRANCH  12  15
ENDBRANCH   2  13
BRANCH   3  17
ATOM     16  F   UNL     1      31.328 -10.738 -22.010  0.00  0.00    -0.204 F 
ATOM     17  C   UNL     1      33.223 -11.095 -23.396  0.00  0.00    +0.081 C 
ATOM     18  C   UNL     1      32.343 -10.258 -22.744  0.00  0.00    +0.144 C 
ATOM     19  C   UNL     1      34.272 -10.615 -24.154  0.00  0.00    +0.007 C 
ATOM     20  C   UNL     1      32.518  -8.879 -22.852  0.00  0.00    +0.030 C 
ATOM     21  C   UNL     1      34.447  -9.236 -24.262  0.00  0.00    +0.000 C 
ATOM     22  C   UNL     1      33.571  -8.368 -23.612  0.00  0.00    +0.002 C 
ENDBRANCH   3  17
TORSDOF 3
ENDMDL
MODEL 2
REMARK VINA RESULT:      -9.7      8.608     11.621
REMARK  Name = 766948
REMARK  3 active torsions:
REMARK  status: ('A' for Active; 'I' for Inactive)
REMARK    1  A    between atoms: N_2  and  C_13
REMARK    2  A    between atoms: C_3  and  C_17
REMARK    3  A    between atoms: C_12  and  C_15
REMARK                            x       y       z     vdW  Elec       q    Type
REMARK                         _______ _______ _______ _____ _____    ______ ____
ROOT
ATOM      1  O   UNL     1      34.230 -23.473 -18.635  0.00  0.00    -0.270 OA
ATOM      2  N   UNL     1      35.488 -21.940 -17.360  0.00  0.00    -0.275 N 
ATOM      3  C   UNL     1      34.700 -22.353 -18.464  0.00  0.00    +0.252 C 
ATOM      4  H   UNL     1      35.786 -21.003 -17.378  0.00  0.00    +0.156 HD
ENDROOT
BRANCH   2  13
ATOM      5  S   UNL     1      37.577 -22.880 -16.076  0.00  0.00    -0.076 S 
ATOM      6  C   UNL     1      36.701 -25.570 -12.541  0.00  0.00    +0.005 C 
ATOM      7  C   UNL     1      38.040 -24.819 -12.490  0.00  0.00    +0.006 C 
ATOM      8  C   UNL     1      35.577 -24.685 -13.104  0.00  0.00    +0.027 C 
ATOM      9  C   UNL     1      38.495 -24.371 -13.888  0.00  0.00    +0.033 C 
ATOM     10  C   UNL     1      36.016 -23.938 -14.324  0.00  0.00    -0.009 A 
ATOM     11  C   UNL     1      37.350 -23.786 -14.653  0.00  0.00    +0.005 A 
ATOM     12  C   UNL     1      35.170 -23.282 -15.268  0.00  0.00    +0.084 A 
ATOM     13  C   UNL     1      35.889 -22.668 -16.271  0.00  0.00    +0.090 A 
BRANCH  12  15
ATOM     14  N   UNL     1      32.583 -23.212 -15.153  0.00  0.00    -0.191 NA
ATOM     15  C   UNL     1      33.741 -23.243 -15.204  0.00  0.00    +0.102 C 
ENDBRANCH  12  15
ENDBRANCH   2  13
BRANCH   3  17
ATOM     16  F   UNL     1      36.775 -21.258 -20.008  0.00  0.00    -0.204 F 
ATOM     17  C   UNL     1      34.453 -21.330 -19.513  0.00  0.00    +0.081 C 
ATOM     18  C   UNL     1      35.521 -20.838 -20.232  0.00  0.00    +0.144 C 
ATOM     19  C   UNL     1      33.158 -20.907 -19.733  0.00  0.00    +0.007 C 
ATOM     20  C   UNL     1      35.285 -19.879 -21.217  0.00  0.00    +0.030 C 
ATOM     21  C   UNL     1      32.922 -19.948 -20.718  0.00  0.00    +0.000 C 
ATOM     22  C   UNL     1      33.985 -19.434 -21.460  0.00  0.00    +0.002 C 
ENDBRANCH   3  17
TORSDOF 3
ENDMDL
MODEL 3
REMARK VINA RESULT:      -9.4      3.516      7.747
REMARK  Name = 766948
REMARK  3 active torsions:
REMARK  status: ('A' for Active; 'I' for Inactive)
REMARK    1  A    between atoms: N_2  and  C_13
REMARK    2  A    between atoms: C_3  and  C_17
REMARK    3  A    between atoms: C_12  and  C_15
REMARK                            x       y       z     vdW  Elec       q    Type
REMARK                         _______ _______ _______ _____ _____    ______ ____
ROOT
ATOM      1  O   UNL     1      36.369 -18.282 -22.567  0.00  0.00    -0.270 OA
ATOM      2  N   UNL     1      34.274 -17.423 -21.911  0.00  0.00    -0.275 N 
ATOM      3  C   UNL     1      35.353 -18.342 -21.883  0.00  0.00    +0.252 C 
ATOM      4  H   UNL     1      33.533 -17.619 -21.296  0.00  0.00    +0.156 HD
ENDROOT
BRANCH   2  13
ATOM      5  S   UNL     1      33.945 -14.818 -21.836  0.00  0.00    -0.076 S 
ATOM      6  C   UNL     1      33.283 -12.777 -25.822  0.00  0.00    +0.005 C 
ATOM      7  C   UNL     1      33.901 -11.902 -24.721  0.00  0.00    +0.006 C 
ATOM      8  C   UNL     1      33.853 -14.203 -25.799  0.00  0.00    +0.027 C 
ATOM      9  C   UNL     1      33.616 -12.464 -23.320  0.00  0.00    +0.033 C 
ATOM     10  C   UNL     1      33.916 -14.755 -24.409  0.00  0.00    -0.009 A 
ATOM     11  C   UNL     1      33.828 -13.944 -23.292  0.00  0.00    +0.005 A 
ATOM     12  C   UNL     1      34.092 -16.123 -24.046  0.00  0.00    +0.084 A 
ATOM     13  C   UNL     1      34.125 -16.298 -22.679  0.00  0.00    +0.090 A 
BRANCH  12  15
ATOM     14  N   UNL     1      34.338 -18.088 -25.716  0.00  0.00    -0.191 NA
ATOM     15  C   UNL     1      34.228 -17.208 -24.969  0.00  0.00    +0.102 C 
ENDBRANCH  12  15
ENDBRANCH   2  13
BRANCH   3  17
ATOM     16  F   UNL     1      37.563 -19.529 -20.621  0.00  0.00    -0.204 F 
ATOM     17  C   UNL     1      35.211 -19.492 -20.952  0.00  0.00    +0.081 C 
ATOM     18  C   UNL     1      36.342 -20.023 -20.369  0.00  0.00    +0.144 C 
ATOM     19  C   UNL     1      33.949 -19.989 -20.701  0.00  0.00    +0.007 C 
ATOM     20  C   UNL     1      36.205 -21.101 -19.494  0.00  0.00    +0.030 C 
ATOM     21  C   UNL     1      33.813 -21.067 -19.826  0.00  0.00    +0.000 C 
ATOM     22  C   UNL     1      34.940 -21.623 -19.223  0.00  0.00    +0.002 C 
ENDBRANCH   3  17
TORSDOF 3
ENDMDL
MODEL 4
REMARK VINA RESULT:      -9.4      1.704      2.108
REMARK  Name = 766948
REMARK  3 active torsions:
REMARK  status: ('A' for Active; 'I' for Inactive)
REMARK    1  A    between atoms: N_2  and  C_13
REMARK    2  A    between atoms: C_3  and  C_17
REMARK    3  A    between atoms: C_12  and  C_15
REMARK                            x       y       z     vdW  Elec       q    Type
REMARK                         _______ _______ _______ _____ _____    ______ ____
ROOT
ATOM      1  O   UNL     1      34.624 -11.309 -25.017  0.00  0.00    -0.270 OA
ATOM      2  N   UNL     1      33.375 -12.388 -23.332  0.00  0.00    -0.275 N 
ATOM      3  C   UNL     1      33.833 -11.273 -24.080  0.00  0.00    +0.252 C 
ATOM      4  H   UNL     1      32.740 -12.183 -22.611  0.00  0.00    +0.156 HD
ENDROOT
BRANCH   2  13
ATOM      5  S   UNL     1      34.367 -14.489 -22.110  0.00  0.00    -0.076 S 
ATOM      6  C   UNL     1      34.961 -18.184 -24.659  0.00  0.00    +0.005 C 
ATOM      7  C   UNL     1      34.749 -18.438 -23.158  0.00  0.00    +0.006 C 
ATOM      8  C   UNL     1      34.053 -17.057 -25.176  0.00  0.00    +0.027 C 
ATOM      9  C   UNL     1      35.076 -17.193 -22.318  0.00  0.00    +0.033 C 
ATOM     10  C   UNL     1      34.049 -15.879 -24.253  0.00  0.00    -0.009 A 
ATOM     11  C   UNL     1      34.497 -15.965 -22.948  0.00  0.00    +0.005 A 
ATOM     12  C   UNL     1      33.581 -14.565 -24.556  0.00  0.00    +0.084 A 
ATOM     13  C   UNL     1      33.698 -13.711 -23.480  0.00  0.00    +0.090 A 
BRANCH  12  15
ATOM     14  N   UNL     1      32.608 -13.819 -26.838  0.00  0.00    -0.191 NA
ATOM     15  C   UNL     1      33.043 -14.153 -25.816  0.00  0.00    +0.102 C 
ENDBRANCH  12  15
ENDBRANCH   2  13
BRANCH   3  17
ATOM     16  F   UNL     1      35.443  -8.972 -24.078  0.00  0.00    -0.204 F 
ATOM     17  C   UNL     1      33.317  -9.945 -23.659  0.00  0.00    +0.081 C 
ATOM     18  C   UNL     1      34.166  -8.859 -23.685  0.00  0.00    +0.144 C 
ATOM     19  C   UNL     1      32.001  -9.842 -23.257  0.00  0.00    +0.007 C 
ATOM     20  C   UNL     1      33.677  -7.613 -23.291  0.00  0.00    +0.030 C 
ATOM     21  C   UNL     1      31.513  -8.596 -22.864  0.00  0.00    +0.000 C 
ATOM     22  C   UNL     1      32.351  -7.482 -22.881  0.00  0.00    +0.002 C 
ENDBRANCH   3  17
TORSDOF 3
ENDMDL
MODEL 5
REMARK VINA RESULT:      -9.4      1.260      2.291
REMARK  Name = 766948
REMARK  3 active torsions:
REMARK  status: ('A' for Active; 'I' for Inactive)
REMARK    1  A    between atoms: N_2  and  C_13
REMARK    2  A    between atoms: C_3  and  C_17
REMARK    3  A    between atoms: C_12  and  C_15
REMARK                            x       y       z     vdW  Elec       q    Type
REMARK                         _______ _______ _______ _____ _____    ______ ____
ROOT
ATOM      1  O   UNL     1      31.935 -12.937 -22.908  0.00  0.00    -0.270 OA
ATOM      2  N   UNL     1      34.167 -13.303 -23.573  0.00  0.00    -0.275 N 
ATOM      3  C   UNL     1      33.032 -12.514 -23.257  0.00  0.00    +0.252 C 
ATOM      4  H   UNL     1      34.972 -12.803 -23.836  0.00  0.00    +0.156 HD
ENDROOT
BRANCH   2  13
ATOM      5  S   UNL     1      34.110 -15.462 -25.066  0.00  0.00    -0.076 S 
ATOM      6  C   UNL     1      34.476 -19.409 -22.880  0.00  0.00    +0.005 C 
ATOM      7  C   UNL     1      34.953 -19.411 -24.340  0.00  0.00    +0.006 C 
ATOM      8  C   UNL     1      34.875 -18.114 -22.155  0.00  0.00    +0.027 C 
ATOM      9  C   UNL     1      34.336 -18.254 -25.142  0.00  0.00    +0.033 C 
ATOM     10  C   UNL     1      34.600 -16.903 -22.990  0.00  0.00    -0.009 A 
ATOM     11  C   UNL     1      34.380 -16.984 -24.353  0.00  0.00    +0.005 A 
ATOM     12  C   UNL     1      34.553 -15.551 -22.536  0.00  0.00    +0.084 A 
ATOM     13  C   UNL     1      34.294 -14.667 -23.561  0.00  0.00    +0.090 A 
BRANCH  12  15
ATOM     14  N   UNL     1      34.914 -14.790 -20.086  0.00  0.00    -0.191 NA
ATOM     15  C   UNL     1      34.753 -15.131 -21.183  0.00  0.00    +0.102 C 
ENDBRANCH  12  15
ENDBRANCH   2  13
BRANCH   3  17
ATOM     16  F   UNL     1      31.251 -10.693 -22.075  0.00  0.00    -0.204 F 
ATOM     17  C   UNL     1      33.198 -11.043 -23.390  0.00  0.00    +0.081 C 
ATOM     18  C   UNL     1      32.284 -10.209 -22.781  0.00  0.00    +0.144 C 
ATOM     19  C   UNL     1      34.265 -10.560 -24.119  0.00  0.00    +0.007 C 
ATOM     20  C   UNL     1      32.443  -8.829 -22.906  0.00  0.00    +0.030 C 
ATOM     21  C   UNL     1      34.424  -9.180 -24.244  0.00  0.00    +0.000 C 
ATOM     22  C   UNL     1      33.514  -8.315 -23.638  0.00  0.00    +0.002 C 
ENDBRANCH   3  17
TORSDOF 3
ENDMDL
MODEL 6
REMARK VINA RESULT:      -9.2      3.721      5.651
REMARK  Name = 766948
REMARK  3 active torsions:
REMARK  status: ('A' for Active; 'I' for Inactive)
REMARK    1  A    between atoms: N_2  and  C_13
REMARK    2  A    between atoms: C_3  and  C_17
REMARK    3  A    between atoms: C_12  and  C_15
REMARK                            x       y       z     vdW  Elec       q    Type
REMARK                         _______ _______ _______ _____ _____    ______ ____
ROOT
ATOM      1  O   UNL     1      34.931 -16.070 -21.392  0.00  0.00    -0.270 OA
ATOM      2  N   UNL     1      34.097 -18.012 -22.435  0.00  0.00    -0.275 N 
ATOM      3  C   UNL     1      34.389 -16.628 -22.340  0.00  0.00    +0.252 C 
ATOM      4  H   UNL     1      33.658 -18.297 -23.268  0.00  0.00    +0.156 HD
ENDROOT
BRANCH   2  13
ATOM      5  S   UNL     1      32.972 -19.765 -20.835  0.00  0.00    -0.076 S 
ATOM      6  C   UNL     1      35.776 -22.124 -18.176  0.00  0.00    +0.005 C 
ATOM      7  C   UNL     1      34.445 -22.812 -18.517  0.00  0.00    +0.006 C 
ATOM      8  C   UNL     1      36.350 -21.373 -19.387  0.00  0.00    +0.027 C 
ATOM      9  C   UNL     1      33.374 -21.799 -18.950  0.00  0.00    +0.033 C 
ATOM     10  C   UNL     1      35.301 -20.572 -20.094  0.00  0.00    -0.009 A 
ATOM     11  C   UNL     1      33.951 -20.796 -19.899  0.00  0.00    +0.005 A 
ATOM     12  C   UNL     1      35.524 -19.532 -21.044  0.00  0.00    +0.084 A 
ATOM     13  C   UNL     1      34.343 -19.006 -21.525  0.00  0.00    +0.090 A 
BRANCH  12  15
ATOM     14  N   UNL     1      37.850 -18.696 -21.820  0.00  0.00    -0.191 NA
ATOM     15  C   UNL     1      36.808 -19.070 -21.473  0.00  0.00    +0.102 C 
ENDBRANCH  12  15
ENDBRANCH   2  13
BRANCH   3  17
ATOM     16  F   UNL     1      34.643 -17.499 -24.997  0.00  0.00    -0.204 F 
ATOM     17  C   UNL     1      33.972 -15.788 -23.493  0.00  0.00    +0.081 C 
ATOM     18  C   UNL     1      34.127 -16.282 -24.771  0.00  0.00    +0.144 C 
ATOM     19  C   UNL     1      33.441 -14.540 -23.245  0.00  0.00    +0.007 C 
ATOM     20  C   UNL     1      33.732 -15.492 -25.850  0.00  0.00    +0.030 C 
ATOM     21  C   UNL     1      33.047 -13.749 -24.324  0.00  0.00    +0.000 C 
ATOM     22  C   UNL     1      33.192 -14.226 -25.627  0.00  0.00    +0.002 C 
ENDBRANCH   3  17
TORSDOF 3
ENDMDL
MODEL 7
REMARK VINA RESULT:      -9.1      2.415      7.620
REMARK  Name = 766948
REMARK  3 active torsions:
REMARK  status: ('A' for Active; 'I' for Inactive)
REMARK    1  A    between atoms: N_2  and  C_13
REMARK    2  A    between atoms: C_3  and  C_17
REMARK    3  A    between atoms: C_12  and  C_15
REMARK                            x       y       z     vdW  Elec       q    Type
REMARK                         _______ _______ _______ _____ _____    ______ ____
ROOT
ATOM      1  O   UNL     1      32.189 -13.511 -24.639  0.00  0.00    -0.270 OA
ATOM      2  N   UNL     1      34.131 -12.540 -23.721  0.00  0.00    -0.275 N 
ATOM      3  C   UNL     1      33.329 -13.607 -24.196  0.00  0.00    +0.252 C 
ATOM      4  H   UNL     1      35.025 -12.791 -23.398  0.00  0.00    +0.156 HD
ENDROOT
BRANCH   2  13
ATOM      5  S   UNL     1      34.855 -10.146 -24.522  0.00  0.00    -0.076 S 
ATOM      6  C   UNL     1      32.543  -6.671 -22.767  0.00  0.00    +0.005 C 
ATOM      7  C   UNL     1      33.174  -6.422 -24.145  0.00  0.00    +0.006 C 
ATOM      8  C   UNL     1      31.958  -8.088 -22.659  0.00  0.00    +0.027 C 
ATOM      9  C   UNL     1      34.330  -7.395 -24.427  0.00  0.00    +0.033 C 
ATOM     10  C   UNL     1      32.896  -9.120 -23.205  0.00  0.00    -0.009 A 
ATOM     11  C   UNL     1      33.957  -8.787 -24.027  0.00  0.00    +0.005 A 
ATOM     12  C   UNL     1      32.825 -10.529 -22.993  0.00  0.00    +0.084 A 
ATOM     13  C   UNL     1      33.830 -11.205 -23.651  0.00  0.00    +0.090 A 
BRANCH  12  15
ATOM     14  N   UNL     1      31.033 -11.730 -21.559  0.00  0.00    -0.191 NA
ATOM     15  C   UNL     1      31.835 -11.193 -22.201  0.00  0.00    +0.102 C 
ENDBRANCH  12  15
ENDBRANCH   2  13
BRANCH   3  17
ATOM     16  F   UNL     1      33.284 -15.391 -26.364  0.00  0.00    -0.204 F 
ATOM     17  C   UNL     1      33.930 -14.965 -24.119  0.00  0.00    +0.081 C 
ATOM     18  C   UNL     1      33.870 -15.786 -25.225  0.00  0.00    +0.144 C 
ATOM     19  C   UNL     1      34.530 -15.357 -22.940  0.00  0.00    +0.007 C 
ATOM     20  C   UNL     1      34.437 -17.058 -25.149  0.00  0.00    +0.030 C 
ATOM     21  C   UNL     1      35.097 -16.630 -22.865  0.00  0.00    +0.000 C 
ATOM     22  C   UNL     1      35.050 -17.480 -23.970  0.00  0.00    +0.002 C 
ENDBRANCH   3  17
TORSDOF 3
ENDMDL
MODEL 8
REMARK VINA RESULT:      -9.1      2.326      7.375
REMARK  Name = 766948
REMARK  3 active torsions:
REMARK  status: ('A' for Active; 'I' for Inactive)
REMARK    1  A    between atoms: N_2  and  C_13
REMARK    2  A    between atoms: C_3  and  C_17
REMARK    3  A    between atoms: C_12  and  C_15
REMARK                            x       y       z     vdW  Elec       q    Type
REMARK                         _______ _______ _______ _____ _____    ______ ____
ROOT
ATOM      1  O   UNL     1      34.219 -13.883 -22.018  0.00  0.00    -0.270 OA
ATOM      2  N   UNL     1      33.661 -12.867 -24.071  0.00  0.00    -0.275 N 
ATOM      3  C   UNL     1      34.012 -13.949 -23.226  0.00  0.00    +0.252 C 
ATOM      4  H   UNL     1      33.530 -13.094 -25.019  0.00  0.00    +0.156 HD
ENDROOT
BRANCH   2  13
ATOM      5  S   UNL     1      32.332 -11.218 -22.519  0.00  0.00    -0.076 S 
ATOM      6  C   UNL     1      32.985  -6.803 -23.279  0.00  0.00    +0.005 C 
ATOM      7  C   UNL     1      32.567  -7.177 -21.849  0.00  0.00    +0.006 C 
ATOM      8  C   UNL     1      33.982  -7.816 -23.861  0.00  0.00    +0.027 C 
ATOM      9  C   UNL     1      31.875  -8.549 -21.798  0.00  0.00    +0.033 C 
ATOM     10  C   UNL     1      33.560  -9.227 -23.594  0.00  0.00    -0.009 A 
ATOM     11  C   UNL     1      32.616  -9.543 -22.635  0.00  0.00    +0.005 A 
ATOM     12  C   UNL     1      34.062 -10.399 -24.236  0.00  0.00    +0.084 A 
ATOM     13  C   UNL     1      33.478 -11.549 -23.747  0.00  0.00    +0.090 A 
BRANCH  12  15
ATOM     14  N   UNL     1      35.863 -10.424 -26.098  0.00  0.00    -0.191 NA
ATOM     15  C   UNL     1      35.056 -10.413 -25.264  0.00  0.00    +0.102 C 
ENDBRANCH  12  15
ENDBRANCH   2  13
BRANCH   3  17
ATOM     16  F   UNL     1      35.303 -16.106 -21.972  0.00  0.00    -0.204 F 
ATOM     17  C   UNL     1      34.164 -15.274 -23.883  0.00  0.00    +0.081 C 
ATOM     18  C   UNL     1      34.810 -16.287 -23.206  0.00  0.00    +0.144 C 
ATOM     19  C   UNL     1      33.651 -15.446 -25.152  0.00  0.00    +0.007 C 
ATOM     20  C   UNL     1      34.949 -17.529 -23.825  0.00  0.00    +0.030 C 
ATOM     21  C   UNL     1      33.790 -16.688 -25.771  0.00  0.00    +0.000 C 
ATOM     22  C   UNL     1      34.439 -17.729 -25.108  0.00  0.00    +0.002 C 
ENDBRANCH   3  17
TORSDOF 3
ENDMDL
MODEL 9
REMARK VINA RESULT:      -9.0      3.810      7.968
REMARK  Name = 766948
REMARK  3 active torsions:
REMARK  status: ('A' for Active; 'I' for Inactive)
REMARK    1  A    between atoms: N_2  and  C_13
REMARK    2  A    between atoms: C_3  and  C_17
REMARK    3  A    between atoms: C_12  and  C_15
REMARK                            x       y       z     vdW  Elec       q    Type
REMARK                         _______ _______ _______ _____ _____    ______ ____
ROOT
ATOM      1  O   UNL     1      36.506 -18.249 -22.582  0.00  0.00    -0.270 OA
ATOM      2  N   UNL     1      34.263 -17.639 -22.188  0.00  0.00    -0.275 N 
ATOM      3  C   UNL     1      35.436 -18.412 -22.003  0.00  0.00    +0.252 C 
ATOM      4  H   UNL     1      33.489 -17.904 -21.642  0.00  0.00    +0.156 HD
ENDROOT
BRANCH   2  13
ATOM      5  S   UNL     1      34.088 -16.902 -24.702  0.00  0.00    -0.076 S 
ATOM      6  C   UNL     1      33.665 -12.457 -25.453  0.00  0.00    +0.005 C 
ATOM      7  C   UNL     1      33.082 -13.374 -26.539  0.00  0.00    +0.006 C 
ATOM      8  C   UNL     1      33.394 -13.006 -24.044  0.00  0.00    +0.027 C 
ATOM      9  C   UNL     1      33.701 -14.780 -26.491  0.00  0.00    +0.033 C 
ATOM     10  C   UNL     1      33.674 -14.474 -23.955  0.00  0.00    -0.009 A 
ATOM     11  C   UNL     1      33.787 -15.269 -25.080  0.00  0.00    +0.005 A 
ATOM     12  C   UNL     1      33.830 -15.238 -22.760  0.00  0.00    +0.084 A 
ATOM     13  C   UNL     1      34.061 -16.572 -23.023  0.00  0.00    +0.090 A 
BRANCH  12  15
ATOM     14  N   UNL     1      33.694 -14.286 -20.355  0.00  0.00    -0.191 NA
ATOM     15  C   UNL     1      33.755 -14.712 -21.432  0.00  0.00    +0.102 C 
ENDBRANCH  12  15
ENDBRANCH   2  13
BRANCH   3  17
ATOM     16  F   UNL     1      37.691 -19.493 -20.725  0.00  0.00    -0.204 F 
ATOM     17  C   UNL     1      35.337 -19.535 -21.034  0.00  0.00    +0.081 C 
ATOM     18  C   UNL     1      36.488 -20.014 -20.446  0.00  0.00    +0.144 C 
ATOM     19  C   UNL     1      34.092 -20.061 -20.755  0.00  0.00    +0.007 C 
ATOM     20  C   UNL     1      36.390 -21.067 -19.536  0.00  0.00    +0.030 C 
ATOM     21  C   UNL     1      33.995 -21.113 -19.845  0.00  0.00    +0.000 C 
ATOM     22  C   UNL     1      35.144 -21.616 -19.236  0.00  0.00    +0.002 C 
ENDBRANCH   3  17
TORSDOF 3
ENDMDL
