MODEL 1
REMARK VINA RESULT:      -8.5      0.000      0.000
REMARK  Name = 442343
REMARK  5 active torsions:
REMARK  status: ('A' for Active; 'I' for Inactive)
REMARK    1  A    between atoms: C_1  and  C_3
REMARK    2  A    between atoms: C_1  and  O_10
REMARK    3  A    between atoms: C_1  and  C_12
REMARK    4  A    between atoms: C_12  and  C_13
REMARK    5  A    between atoms: C_13  and  C_14
REMARK                            x       y       z     vdW  Elec       q    Type
REMARK                         _______ _______ _______ _____ _____    ______ ____
ROOT
ATOM      1  C   UNL     1      35.257 -18.373 -22.154  0.00  0.00    +0.089 C 
ATOM      2  C   UNL     1      34.993 -17.217 -21.187  0.00  0.00    +0.029 C 
ENDROOT
BRANCH   1   3
ATOM      3  C   UNL     1      34.875 -19.694 -21.490  0.00  0.00    +0.029 C 
ATOM      4  C   UNL     1      35.906 -20.100 -20.432  0.00  0.00    +0.007 C 
ATOM      5  C   UNL     1      33.476 -19.605 -20.862  0.00  0.00    +0.028 C 
ATOM      6  C   UNL     1      35.553 -21.452 -19.804  0.00  0.00    +0.022 C 
ATOM      7  C   UNL     1      34.089 -21.606 -19.478  0.00  0.00    -0.048 C 
ATOM      8  C   UNL     1      33.162 -20.755 -19.951  0.00  0.00    -0.035 C 
ATOM      9  C   UNL     1      33.726 -22.765 -18.596  0.00  0.00    +0.026 C 
ENDBRANCH   1   3
BRANCH   1  10
ATOM     10  O   UNL     1      36.662 -18.402 -22.412  0.00  0.00    -0.387 OA
ATOM     11  H   UNL     1      36.828 -18.138 -23.330  0.00  0.00    +0.210 HD
ENDBRANCH   1  10
BRANCH   1  12
ATOM     12  C   UNL     1      34.494 -18.213 -23.486  0.00  0.00    +0.032 C 
BRANCH  12  13
ATOM     13  C   UNL     1      35.178 -17.288 -24.500  0.00  0.00    +0.028 C 
BRANCH  13  14
ATOM     14  C   UNL     1      34.167 -16.451 -25.235  0.00  0.00    -0.035 C 
ATOM     15  C   UNL     1      33.704 -15.234 -24.892  0.00  0.00    -0.048 C 
ATOM     16  C   UNL     1      32.690 -14.446 -25.673  0.00  0.00    +0.026 C 
ATOM     17  C   UNL     1      34.186 -14.559 -23.636  0.00  0.00    +0.026 C 
ENDBRANCH  13  14
ENDBRANCH  12  13
ENDBRANCH   1  12
TORSDOF 5
ENDMDL
MODEL 2
REMARK VINA RESULT:      -8.4      1.723      2.434
REMARK  Name = 442343
REMARK  5 active torsions:
REMARK  status: ('A' for Active; 'I' for Inactive)
REMARK    1  A    between atoms: C_1  and  C_3
REMARK    2  A    between atoms: C_1  and  O_10
REMARK    3  A    between atoms: C_1  and  C_12
REMARK    4  A    between atoms: C_12  and  C_13
REMARK    5  A    between atoms: C_13  and  C_14
REMARK                            x       y       z     vdW  Elec       q    Type
REMARK                         _______ _______ _______ _____ _____    ______ ____
ROOT
ATOM      1  C   UNL     1      34.932 -18.788 -21.923  0.00  0.00    +0.089 C 
ATOM      2  C   UNL     1      36.434 -18.521 -21.807  0.00  0.00    +0.029 C 
ENDROOT
BRANCH   1   3
ATOM      3  C   UNL     1      34.585 -20.089 -21.202  0.00  0.00    +0.029 C 
ATOM      4  C   UNL     1      35.670 -20.466 -20.189  0.00  0.00    +0.007 C 
ATOM      5  C   UNL     1      33.221 -19.978 -20.503  0.00  0.00    +0.028 C 
ATOM      6  C   UNL     1      35.350 -21.799 -19.505  0.00  0.00    +0.022 C 
ATOM      7  C   UNL     1      33.905 -21.940 -19.097  0.00  0.00    -0.048 C 
ATOM      8  C   UNL     1      32.955 -21.101 -19.544  0.00  0.00    -0.035 C 
ATOM      9  C   UNL     1      33.588 -23.072 -18.164  0.00  0.00    +0.026 C 
ENDBRANCH   1   3
BRANCH   1  10
ATOM     10  O   UNL     1      34.634 -18.962 -23.310  0.00  0.00    -0.387 OA
ATOM     11  H   UNL     1      33.751 -18.609 -23.498  0.00  0.00    +0.210 HD
ENDBRANCH   1  10
BRANCH   1  12
ATOM     12  C   UNL     1      34.083 -17.630 -21.358  0.00  0.00    +0.032 C 
BRANCH  12  13
ATOM     13  C   UNL     1      34.855 -16.323 -21.144  0.00  0.00    +0.028 C 
BRANCH  13  14
ATOM     14  C   UNL     1      33.960 -15.251 -20.586  0.00  0.00    -0.035 C 
ATOM     15  C   UNL     1      33.178 -14.395 -21.270  0.00  0.00    -0.048 C 
ATOM     16  C   UNL     1      32.303 -13.342 -20.649  0.00  0.00    +0.026 C 
ATOM     17  C   UNL     1      33.139 -14.432 -22.774  0.00  0.00    +0.026 C 
ENDBRANCH  13  14
ENDBRANCH  12  13
ENDBRANCH   1  12
TORSDOF 5
ENDMDL
MODEL 3
REMARK VINA RESULT:      -8.4      1.164      6.463
REMARK  Name = 442343
REMARK  5 active torsions:
REMARK  status: ('A' for Active; 'I' for Inactive)
REMARK    1  A    between atoms: C_1  and  C_3
REMARK    2  A    between atoms: C_1  and  O_10
REMARK    3  A    between atoms: C_1  and  C_12
REMARK    4  A    between atoms: C_12  and  C_13
REMARK    5  A    between atoms: C_13  and  C_14
REMARK                            x       y       z     vdW  Elec       q    Type
REMARK                         _______ _______ _______ _____ _____    ______ ____
ROOT
ATOM      1  C   UNL     1      35.121 -17.592 -21.364  0.00  0.00    +0.089 C 
ATOM      2  C   UNL     1      36.330 -18.518 -21.505  0.00  0.00    +0.029 C 
ENDROOT
BRANCH   1   3
ATOM      3  C   UNL     1      34.957 -16.764 -22.637  0.00  0.00    +0.029 C 
ATOM      4  C   UNL     1      34.669 -17.661 -23.846  0.00  0.00    +0.007 C 
ATOM      5  C   UNL     1      33.841 -15.722 -22.470  0.00  0.00    +0.028 C 
ATOM      6  C   UNL     1      34.559 -16.836 -25.133  0.00  0.00    +0.022 C 
ATOM      7  C   UNL     1      33.763 -15.566 -24.973  0.00  0.00    -0.048 C 
ATOM      8  C   UNL     1      33.432 -15.081 -23.764  0.00  0.00    -0.035 C 
ATOM      9  C   UNL     1      33.362 -14.873 -26.243  0.00  0.00    +0.026 C 
ENDBRANCH   1   3
BRANCH   1  10
ATOM     10  O   UNL     1      35.395 -16.692 -20.289  0.00  0.00    -0.387 OA
ATOM     11  H   UNL     1      34.581 -16.227 -20.040  0.00  0.00    +0.210 HD
ENDBRANCH   1  10
BRANCH   1  12
ATOM     12  C   UNL     1      33.818 -18.364 -21.067  0.00  0.00    +0.032 C 
BRANCH  12  13
ATOM     13  C   UNL     1      33.879 -19.860 -21.397  0.00  0.00    +0.028 C 
BRANCH  13  14
ATOM     14  C   UNL     1      33.279 -20.683 -20.290  0.00  0.00    -0.035 C 
ATOM     15  C   UNL     1      33.911 -21.545 -19.471  0.00  0.00    -0.048 C 
ATOM     16  C   UNL     1      33.250 -22.339 -18.380  0.00  0.00    +0.026 C 
ATOM     17  C   UNL     1      35.389 -21.789 -19.614  0.00  0.00    +0.026 C 
ENDBRANCH  13  14
ENDBRANCH  12  13
ENDBRANCH   1  12
TORSDOF 5
ENDMDL
MODEL 4
REMARK VINA RESULT:      -8.4      1.013      1.975
REMARK  Name = 442343
REMARK  5 active torsions:
REMARK  status: ('A' for Active; 'I' for Inactive)
REMARK    1  A    between atoms: C_1  and  C_3
REMARK    2  A    between atoms: C_1  and  O_10
REMARK    3  A    between atoms: C_1  and  C_12
REMARK    4  A    between atoms: C_12  and  C_13
REMARK    5  A    between atoms: C_13  and  C_14
REMARK                            x       y       z     vdW  Elec       q    Type
REMARK                         _______ _______ _______ _____ _____    ______ ____
ROOT
ATOM      1  C   UNL     1      34.843 -18.569 -21.892  0.00  0.00    +0.089 C 
ATOM      2  C   UNL     1      36.359 -18.463 -22.073  0.00  0.00    +0.029 C 
ENDROOT
BRANCH   1   3
ATOM      3  C   UNL     1      34.530 -19.465 -20.696  0.00  0.00    +0.029 C 
ATOM      4  C   UNL     1      33.135 -20.087 -20.821  0.00  0.00    +0.007 C 
ATOM      5  C   UNL     1      35.592 -20.566 -20.547  0.00  0.00    +0.028 C 
ATOM      6  C   UNL     1      32.799 -20.942 -19.595  0.00  0.00    +0.022 C 
ATOM      7  C   UNL     1      33.937 -21.817 -19.134  0.00  0.00    -0.048 C 
ATOM      8  C   UNL     1      35.192 -21.646 -19.583  0.00  0.00    -0.035 C 
ATOM      9  C   UNL     1      33.588 -22.888 -18.143  0.00  0.00    +0.026 C 
ENDBRANCH   1   3
BRANCH   1  10
ATOM     10  O   UNL     1      34.316 -19.199 -23.062  0.00  0.00    -0.387 OA
ATOM     11  H   UNL     1      34.818 -18.910 -23.840  0.00  0.00    +0.210 HD
ENDBRANCH   1  10
BRANCH   1  12
ATOM     12  C   UNL     1      34.175 -17.191 -21.707  0.00  0.00    +0.032 C 
BRANCH  12  13
ATOM     13  C   UNL     1      34.910 -16.032 -22.391  0.00  0.00    +0.028 C 
BRANCH  13  14
ATOM     14  C   UNL     1      34.048 -15.390 -23.443  0.00  0.00    -0.035 C 
ATOM     15  C   UNL     1      33.974 -15.706 -24.750  0.00  0.00    -0.048 C 
ATOM     16  C   UNL     1      33.087 -15.022 -25.753  0.00  0.00    +0.026 C 
ATOM     17  C   UNL     1      34.827 -16.807 -25.318  0.00  0.00    +0.026 C 
ENDBRANCH  13  14
ENDBRANCH  12  13
ENDBRANCH   1  12
TORSDOF 5
ENDMDL
MODEL 5
REMARK VINA RESULT:      -8.2      1.977      6.456
REMARK  Name = 442343
REMARK  5 active torsions:
REMARK  status: ('A' for Active; 'I' for Inactive)
REMARK    1  A    between atoms: C_1  and  C_3
REMARK    2  A    between atoms: C_1  and  O_10
REMARK    3  A    between atoms: C_1  and  C_12
REMARK    4  A    between atoms: C_12  and  C_13
REMARK    5  A    between atoms: C_13  and  C_14
REMARK                            x       y       z     vdW  Elec       q    Type
REMARK                         _______ _______ _______ _____ _____    ______ ____
ROOT
ATOM      1  C   UNL     1      34.746 -16.738 -23.197  0.00  0.00    +0.089 C 
ATOM      2  C   UNL     1      34.224 -17.499 -24.416  0.00  0.00    +0.029 C 
ENDROOT
BRANCH   1   3
ATOM      3  C   UNL     1      33.681 -15.757 -22.709  0.00  0.00    +0.029 C 
ATOM      4  C   UNL     1      33.912 -15.373 -21.244  0.00  0.00    +0.007 C 
ATOM      5  C   UNL     1      33.653 -14.499 -23.591  0.00  0.00    +0.028 C 
ATOM      6  C   UNL     1      32.814 -14.433 -20.738  0.00  0.00    +0.022 C 
ATOM      7  C   UNL     1      32.446 -13.346 -21.718  0.00  0.00    -0.048 C 
ATOM      8  C   UNL     1      32.845 -13.381 -23.001  0.00  0.00    -0.035 C 
ATOM      9  C   UNL     1      31.609 -12.225 -21.177  0.00  0.00    +0.026 C 
ENDBRANCH   1   3
BRANCH   1  10
ATOM     10  O   UNL     1      35.880 -15.978 -23.620  0.00  0.00    -0.387 OA
ATOM     11  H   UNL     1      35.788 -15.062 -23.316  0.00  0.00    +0.210 HD
ENDBRANCH   1  10
BRANCH   1  12
ATOM     12  C   UNL     1      35.160 -17.680 -22.047  0.00  0.00    +0.032 C 
BRANCH  12  13
ATOM     13  C   UNL     1      34.702 -19.133 -22.222  0.00  0.00    +0.028 C 
BRANCH  13  14
ATOM     14  C   UNL     1      35.305 -20.020 -21.168  0.00  0.00    -0.035 C 
ATOM     15  C   UNL     1      34.662 -20.697 -20.197  0.00  0.00    -0.048 C 
ATOM     16  C   UNL     1      35.326 -21.571 -19.171  0.00  0.00    +0.026 C 
ATOM     17  C   UNL     1      33.166 -20.604 -20.065  0.00  0.00    +0.026 C 
ENDBRANCH  13  14
ENDBRANCH  12  13
ENDBRANCH   1  12
TORSDOF 5
ENDMDL
MODEL 6
REMARK VINA RESULT:      -8.1      1.579      6.446
REMARK  Name = 442343
REMARK  5 active torsions:
REMARK  status: ('A' for Active; 'I' for Inactive)
REMARK    1  A    between atoms: C_1  and  C_3
REMARK    2  A    between atoms: C_1  and  O_10
REMARK    3  A    between atoms: C_1  and  C_12
REMARK    4  A    between atoms: C_12  and  C_13
REMARK    5  A    between atoms: C_13  and  C_14
REMARK                            x       y       z     vdW  Elec       q    Type
REMARK                         _______ _______ _______ _____ _____    ______ ____
ROOT
ATOM      1  C   UNL     1      35.043 -17.661 -22.883  0.00  0.00    +0.089 C 
ATOM      2  C   UNL     1      34.906 -17.838 -24.397  0.00  0.00    +0.029 C 
ENDROOT
BRANCH   1   3
ATOM      3  C   UNL     1      34.548 -16.273 -22.482  0.00  0.00    +0.029 C 
ATOM      4  C   UNL     1      33.846 -15.577 -23.653  0.00  0.00    +0.007 C 
ATOM      5  C   UNL     1      33.605 -16.359 -21.272  0.00  0.00    +0.028 C 
ATOM      6  C   UNL     1      33.397 -14.163 -23.268  0.00  0.00    +0.022 C 
ATOM      7  C   UNL     1      32.770 -14.077 -21.899  0.00  0.00    -0.048 C 
ATOM      8  C   UNL     1      32.859 -15.083 -21.012  0.00  0.00    -0.035 C 
ATOM      9  C   UNL     1      32.042 -12.803 -21.584  0.00  0.00    +0.026 C 
ENDBRANCH   1   3
BRANCH   1  10
ATOM     10  O   UNL     1      36.435 -17.737 -22.569  0.00  0.00    -0.387 OA
ATOM     11  H   UNL     1      36.848 -18.441 -23.094  0.00  0.00    +0.210 HD
ENDBRANCH   1  10
BRANCH   1  12
ATOM     12  C   UNL     1      34.278 -18.742 -22.092  0.00  0.00    +0.032 C 
BRANCH  12  13
ATOM     13  C   UNL     1      35.147 -19.550 -21.121  0.00  0.00    +0.028 C 
BRANCH  13  14
ATOM     14  C   UNL     1      34.321 -20.552 -20.362  0.00  0.00    -0.035 C 
ATOM     15  C   UNL     1      34.748 -21.450 -19.454  0.00  0.00    -0.048 C 
ATOM     16  C   UNL     1      33.867 -22.428 -18.728  0.00  0.00    +0.026 C 
ATOM     17  C   UNL     1      36.209 -21.545 -19.103  0.00  0.00    +0.026 C 
ENDBRANCH  13  14
ENDBRANCH  12  13
ENDBRANCH   1  12
TORSDOF 5
ENDMDL
MODEL 7
REMARK VINA RESULT:      -7.8      3.321      8.637
REMARK  Name = 442343
REMARK  5 active torsions:
REMARK  status: ('A' for Active; 'I' for Inactive)
REMARK    1  A    between atoms: C_1  and  C_3
REMARK    2  A    between atoms: C_1  and  O_10
REMARK    3  A    between atoms: C_1  and  C_12
REMARK    4  A    between atoms: C_12  and  C_13
REMARK    5  A    between atoms: C_13  and  C_14
REMARK                            x       y       z     vdW  Elec       q    Type
REMARK                         _______ _______ _______ _____ _____    ______ ____
ROOT
ATOM      1  C   UNL     1      33.762 -22.891 -18.225  0.00  0.00    +0.089 C 
ATOM      2  C   UNL     1      32.429 -22.569 -17.547  0.00  0.00    +0.029 C 
ENDROOT
BRANCH   1   3
ATOM      3  C   UNL     1      33.940 -22.003 -19.454  0.00  0.00    +0.029 C 
ATOM      4  C   UNL     1      32.865 -20.912 -19.509  0.00  0.00    +0.007 C 
ATOM      5  C   UNL     1      35.340 -21.370 -19.474  0.00  0.00    +0.028 C 
ATOM      6  C   UNL     1      33.009 -20.055 -20.770  0.00  0.00    +0.022 C 
ATOM      7  C   UNL     1      34.434 -19.677 -21.088  0.00  0.00    -0.048 C 
ATOM      8  C   UNL     1      35.478 -20.269 -20.484  0.00  0.00    -0.035 C 
ATOM      9  C   UNL     1      34.618 -18.603 -22.119  0.00  0.00    +0.026 C 
ENDBRANCH   1   3
BRANCH   1  10
ATOM     10  O   UNL     1      33.701 -24.247 -18.669  0.00  0.00    -0.387 OA
ATOM     11  H   UNL     1      33.869 -24.841 -17.920  0.00  0.00    +0.210 HD
ENDBRANCH   1  10
BRANCH   1  12
ATOM     12  C   UNL     1      34.965 -22.717 -17.272  0.00  0.00    +0.032 C 
BRANCH  12  13
ATOM     13  C   UNL     1      34.664 -23.049 -15.806  0.00  0.00    +0.028 C 
BRANCH  13  14
ATOM     14  C   UNL     1      35.144 -24.431 -15.455  0.00  0.00    -0.035 C 
ATOM     15  C   UNL     1      36.385 -24.802 -15.090  0.00  0.00    -0.048 C 
ATOM     16  C   UNL     1      36.801 -26.206 -14.751  0.00  0.00    +0.026 C 
ATOM     17  C   UNL     1      37.493 -23.786 -15.010  0.00  0.00    +0.026 C 
ENDBRANCH  13  14
ENDBRANCH  12  13
ENDBRANCH   1  12
TORSDOF 5
ENDMDL
MODEL 8
REMARK VINA RESULT:      -7.8      3.163      5.060
REMARK  Name = 442343
REMARK  5 active torsions:
REMARK  status: ('A' for Active; 'I' for Inactive)
REMARK    1  A    between atoms: C_1  and  C_3
REMARK    2  A    between atoms: C_1  and  O_10
REMARK    3  A    between atoms: C_1  and  C_12
REMARK    4  A    between atoms: C_12  and  C_13
REMARK    5  A    between atoms: C_13  and  C_14
REMARK                            x       y       z     vdW  Elec       q    Type
REMARK                         _______ _______ _______ _____ _____    ______ ____
ROOT
ATOM      1  C   UNL     1      34.277 -15.117 -21.903  0.00  0.00    +0.089 C 
ATOM      2  C   UNL     1      34.696 -15.225 -20.436  0.00  0.00    +0.029 C 
ENDROOT
BRANCH   1   3
ATOM      3  C   UNL     1      34.766 -16.345 -22.669  0.00  0.00    +0.029 C 
ATOM      4  C   UNL     1      34.319 -17.639 -21.981  0.00  0.00    +0.007 C 
ATOM      5  C   UNL     1      34.268 -16.316 -24.122  0.00  0.00    +0.028 C 
ATOM      6  C   UNL     1      34.855 -18.871 -22.718  0.00  0.00    +0.022 C 
ATOM      7  C   UNL     1      34.742 -18.778 -24.219  0.00  0.00    -0.048 C 
ATOM      8  C   UNL     1      34.461 -17.619 -24.840  0.00  0.00    -0.035 C 
ATOM      9  C   UNL     1      34.962 -20.053 -24.979  0.00  0.00    +0.026 C 
ENDBRANCH   1   3
BRANCH   1  10
ATOM     10  O   UNL     1      34.930 -13.970 -22.451  0.00  0.00    -0.387 OA
ATOM     11  H   UNL     1      34.767 -13.930 -23.407  0.00  0.00    +0.210 HD
ENDBRANCH   1  10
BRANCH   1  12
ATOM     12  C   UNL     1      32.750 -14.966 -22.071  0.00  0.00    +0.032 C 
BRANCH  12  13
ATOM     13  C   UNL     1      32.276 -13.524 -22.289  0.00  0.00    +0.028 C 
BRANCH  13  14
ATOM     14  C   UNL     1      32.030 -12.831 -20.977  0.00  0.00    -0.035 C 
ATOM     15  C   UNL     1      31.509 -11.606 -20.780  0.00  0.00    -0.048 C 
ATOM     16  C   UNL     1      31.288 -10.968 -19.437  0.00  0.00    +0.026 C 
ATOM     17  C   UNL     1      31.108 -10.749 -21.951  0.00  0.00    +0.026 C 
ENDBRANCH  13  14
ENDBRANCH  12  13
ENDBRANCH   1  12
TORSDOF 5
ENDMDL
MODEL 9
REMARK VINA RESULT:      -7.6      3.617      5.851
REMARK  Name = 442343
REMARK  5 active torsions:
REMARK  status: ('A' for Active; 'I' for Inactive)
REMARK    1  A    between atoms: C_1  and  C_3
REMARK    2  A    between atoms: C_1  and  O_10
REMARK    3  A    between atoms: C_1  and  C_12
REMARK    4  A    between atoms: C_12  and  C_13
REMARK    5  A    between atoms: C_13  and  C_14
REMARK                            x       y       z     vdW  Elec       q    Type
REMARK                         _______ _______ _______ _____ _____    ______ ____
ROOT
ATOM      1  C   UNL     1      33.241 -13.668 -23.694  0.00  0.00    +0.089 C 
ATOM      2  C   UNL     1      33.123 -13.965 -25.190  0.00  0.00    +0.029 C 
ENDROOT
BRANCH   1   3
ATOM      3  C   UNL     1      34.168 -14.690 -23.040  0.00  0.00    +0.029 C 
ATOM      4  C   UNL     1      33.630 -15.131 -21.674  0.00  0.00    +0.007 C 
ATOM      5  C   UNL     1      34.366 -15.911 -23.952  0.00  0.00    +0.028 C 
ATOM      6  C   UNL     1      34.587 -16.114 -20.993  0.00  0.00    +0.022 C 
ATOM      7  C   UNL     1      35.140 -17.166 -21.922  0.00  0.00    -0.048 C 
ATOM      8  C   UNL     1      35.019 -17.069 -23.257  0.00  0.00    -0.035 C 
ATOM      9  C   UNL     1      35.832 -18.327 -21.270  0.00  0.00    +0.026 C 
ENDBRANCH   1   3
BRANCH   1  10
ATOM     10  O   UNL     1      31.941 -13.827 -23.122  0.00  0.00    -0.387 OA
ATOM     11  H   UNL     1      31.929 -13.439 -22.233  0.00  0.00    +0.210 HD
ENDBRANCH   1  10
BRANCH   1  12
ATOM     12  C   UNL     1      33.753 -12.239 -23.416  0.00  0.00    +0.032 C 
BRANCH  12  13
ATOM     13  C   UNL     1      33.893 -11.362 -24.665  0.00  0.00    +0.028 C 
BRANCH  13  14
ATOM     14  C   UNL     1      34.598 -10.073 -24.344  0.00  0.00    -0.035 C 
ATOM     15  C   UNL     1      34.062  -8.947 -23.838  0.00  0.00    -0.048 C 
ATOM     16  C   UNL     1      34.825  -7.687 -23.539  0.00  0.00    +0.026 C 
ATOM     17  C   UNL     1      32.589  -8.871 -23.539  0.00  0.00    +0.026 C 
ENDBRANCH  13  14
ENDBRANCH  12  13
ENDBRANCH   1  12
TORSDOF 5
ENDMDL
