MODEL 1
REMARK VINA RESULT:      -9.0      0.000      0.000
REMARK  Name = 869249
REMARK  2 active torsions:
REMARK  status: ('A' for Active; 'I' for Inactive)
REMARK    1  A    between atoms: C_9  and  C_16
REMARK    2  A    between atoms: N_15  and  N_18
REMARK                            x       y       z     vdW  Elec       q    Type
REMARK                         _______ _______ _______ _____ _____    ______ ____
ROOT
ATOM      1  N   UNL     1      34.294 -23.441 -16.398  0.00  0.00    -0.254 N 
ATOM      2  N   UNL     1      36.492 -23.195 -16.074  0.00  0.00    -0.385 NA
ATOM      3  C   UNL     1      35.480 -22.889 -16.859  0.00  0.00    +0.187 C 
ATOM      4  C   UNL     1      35.456 -22.089 -18.085  0.00  0.00    +0.044 C 
ATOM      5  C   UNL     1      34.209 -21.918 -18.739  0.00  0.00    +0.005 C 
ATOM      6  C   UNL     1      33.075 -23.269 -17.044  0.00  0.00    +0.068 C 
ATOM      7  C   UNL     1      34.594 -24.131 -15.252  0.00  0.00    +0.162 C 
ATOM      8  C   UNL     1      32.992 -22.544 -18.174  0.00  0.00    +0.016 C 
ATOM      9  C   UNL     1      35.948 -23.964 -15.076  0.00  0.00    +0.185 C 
ATOM     10  C   UNL     1      36.609 -21.502 -18.610  0.00  0.00    +0.004 C 
ATOM     11  C   UNL     1      34.145 -21.161 -19.912  0.00  0.00    +0.000 C 
ATOM     12  C   UNL     1      36.529 -20.749 -19.782  0.00  0.00    +0.000 C 
ATOM     13  C   UNL     1      35.303 -20.578 -20.429  0.00  0.00    +0.000 C 
ENDROOT
BRANCH   9  16
ATOM     14  O   UNL     1      37.877 -24.050 -13.746  0.00  0.00    -0.266 OA
ATOM     15  N   UNL     1      36.175 -25.546 -13.246  0.00  0.00    -0.248 N 
ATOM     16  C   UNL     1      36.734 -24.503 -14.007  0.00  0.00    +0.286 C 
ATOM     17  H   UNL     1      35.279 -25.885 -13.469  0.00  0.00    +0.169 HD
BRANCH  15  18
ATOM     18  N   UNL     1      36.871 -26.100 -12.188  0.00  0.00    -0.254 NA
ATOM     19  H   UNL     1      37.849 -26.225 -12.453  0.00  0.00    +0.140 HD
ATOM     20  H   UNL     1      36.465 -27.004 -11.950  0.00  0.00    +0.140 HD
ENDBRANCH  15  18
ENDBRANCH   9  16
TORSDOF 2
ENDMDL
MODEL 2
REMARK VINA RESULT:      -8.8      5.979      8.776
REMARK  Name = 869249
REMARK  2 active torsions:
REMARK  status: ('A' for Active; 'I' for Inactive)
REMARK    1  A    between atoms: C_9  and  C_16
REMARK    2  A    between atoms: N_15  and  N_18
REMARK                            x       y       z     vdW  Elec       q    Type
REMARK                         _______ _______ _______ _____ _____    ______ ____
ROOT
ATOM      1  N   UNL     1      36.275 -18.988 -21.454  0.00  0.00    -0.254 N 
ATOM      2  N   UNL     1      34.237 -18.368 -22.127  0.00  0.00    -0.385 NA
ATOM      3  C   UNL     1      34.907 -19.190 -21.348  0.00  0.00    +0.187 C 
ATOM      4  C   UNL     1      34.416 -20.228 -20.441  0.00  0.00    +0.044 C 
ATOM      5  C   UNL     1      35.373 -20.978 -19.712  0.00  0.00    +0.005 C 
ATOM      6  C   UNL     1      37.209 -19.727 -20.736  0.00  0.00    +0.068 C 
ATOM      7  C   UNL     1      36.460 -17.974 -22.357  0.00  0.00    +0.162 C 
ATOM      8  C   UNL     1      36.816 -20.694 -19.888  0.00  0.00    +0.016 C 
ATOM      9  C   UNL     1      35.195 -17.611 -22.755  0.00  0.00    +0.185 C 
ATOM     10  C   UNL     1      33.053 -20.489 -20.281  0.00  0.00    +0.004 C 
ATOM     11  C   UNL     1      34.944 -21.978 -18.836  0.00  0.00    +0.000 C 
ATOM     12  C   UNL     1      32.639 -21.491 -19.403  0.00  0.00    +0.000 C 
ATOM     13  C   UNL     1      33.579 -22.231 -18.683  0.00  0.00    +0.000 C 
ENDROOT
BRANCH   9  16
ATOM     14  O   UNL     1      35.045 -15.370 -23.428  0.00  0.00    -0.266 OA
ATOM     15  N   UNL     1      34.353 -16.983 -24.946  0.00  0.00    -0.248 N 
ATOM     16  C   UNL     1      34.866 -16.584 -23.697  0.00  0.00    +0.286 C 
ATOM     17  H   UNL     1      34.221 -17.940 -25.134  0.00  0.00    +0.169 HD
BRANCH  15  18
ATOM     18  N   UNL     1      34.032 -16.046 -25.910  0.00  0.00    -0.254 NA
ATOM     19  H   UNL     1      33.301 -16.419 -26.516  0.00  0.00    +0.140 HD
ATOM     20  H   UNL     1      34.859 -15.832 -26.465  0.00  0.00    +0.140 HD
ENDBRANCH  15  18
ENDBRANCH   9  16
TORSDOF 2
ENDMDL
MODEL 3
REMARK VINA RESULT:      -8.8      6.533      8.871
REMARK  Name = 869249
REMARK  2 active torsions:
REMARK  status: ('A' for Active; 'I' for Inactive)
REMARK    1  A    between atoms: C_9  and  C_16
REMARK    2  A    between atoms: N_15  and  N_18
REMARK                            x       y       z     vdW  Elec       q    Type
REMARK                         _______ _______ _______ _____ _____    ______ ____
ROOT
ATOM      1  N   UNL     1      34.877 -16.816 -23.245  0.00  0.00    -0.254 N 
ATOM      2  N   UNL     1      35.015 -17.072 -21.030  0.00  0.00    -0.385 NA
ATOM      3  C   UNL     1      34.509 -16.337 -21.997  0.00  0.00    +0.187 C 
ATOM      4  C   UNL     1      33.661 -15.146 -21.920  0.00  0.00    +0.044 C 
ATOM      5  C   UNL     1      33.255 -14.544 -23.138  0.00  0.00    +0.005 C 
ATOM      6  C   UNL     1      34.475 -16.220 -24.436  0.00  0.00    +0.068 C 
ATOM      7  C   UNL     1      35.659 -17.921 -23.034  0.00  0.00    +0.162 C 
ATOM      8  C   UNL     1      33.695 -15.124 -24.427  0.00  0.00    +0.016 C 
ATOM      9  C   UNL     1      35.729 -18.057 -21.667  0.00  0.00    +0.185 C 
ATOM     10  C   UNL     1      33.250 -14.605 -20.700  0.00  0.00    +0.004 C 
ATOM     11  C   UNL     1      32.444 -13.406 -23.107  0.00  0.00    +0.000 C 
ATOM     12  C   UNL     1      32.441 -13.469 -20.684  0.00  0.00    +0.000 C 
ATOM     13  C   UNL     1      32.039 -12.873 -21.882  0.00  0.00    +0.000 C 
ENDROOT
BRANCH   9  16
ATOM     14  O   UNL     1      37.684 -19.201 -21.064  0.00  0.00    -0.266 OA
ATOM     15  N   UNL     1      35.697 -19.918 -20.106  0.00  0.00    -0.248 N 
ATOM     16  C   UNL     1      36.439 -19.074 -20.953  0.00  0.00    +0.286 C 
ATOM     17  H   UNL     1      34.722 -19.801 -20.035  0.00  0.00    +0.169 HD
BRANCH  15  18
ATOM     18  N   UNL     1      36.320 -20.910 -19.373  0.00  0.00    -0.254 NA
ATOM     19  H   UNL     1      36.579 -20.544 -18.457  0.00  0.00    +0.140 HD
ATOM     20  H   UNL     1      37.158 -21.220 -19.864  0.00  0.00    +0.140 HD
ENDBRANCH  15  18
ENDBRANCH   9  16
TORSDOF 2
ENDMDL
MODEL 4
REMARK VINA RESULT:      -8.7      4.794      6.928
REMARK  Name = 869249
REMARK  2 active torsions:
REMARK  status: ('A' for Active; 'I' for Inactive)
REMARK    1  A    between atoms: C_9  and  C_16
REMARK    2  A    between atoms: N_15  and  N_18
REMARK                            x       y       z     vdW  Elec       q    Type
REMARK                         _______ _______ _______ _____ _____    ______ ____
ROOT
ATOM      1  N   UNL     1      30.482 -24.005 -14.779  0.00  0.00    -0.254 N 
ATOM      2  N   UNL     1      30.272 -22.934 -16.729  0.00  0.00    -0.385 NA
ATOM      3  C   UNL     1      31.130 -23.427 -15.860  0.00  0.00    +0.187 C 
ATOM      4  C   UNL     1      32.593 -23.438 -15.893  0.00  0.00    +0.044 C 
ATOM      5  C   UNL     1      33.275 -24.046 -14.809  0.00  0.00    +0.005 C 
ATOM      6  C   UNL     1      31.157 -24.600 -13.719  0.00  0.00    +0.068 C 
ATOM      7  C   UNL     1      29.136 -23.860 -14.996  0.00  0.00    +0.162 C 
ATOM      8  C   UNL     1      32.501 -24.639 -13.695  0.00  0.00    +0.016 C 
ATOM      9  C   UNL     1      29.035 -23.200 -16.198  0.00  0.00    +0.185 C 
ATOM     10  C   UNL     1      33.315 -22.876 -16.948  0.00  0.00    +0.004 C 
ATOM     11  C   UNL     1      34.672 -24.076 -14.804  0.00  0.00    +0.000 C 
ATOM     12  C   UNL     1      34.710 -22.913 -16.930  0.00  0.00    +0.000 C 
ATOM     13  C   UNL     1      35.385 -23.511 -15.863  0.00  0.00    +0.000 C 
ENDROOT
BRANCH   9  16
ATOM     14  O   UNL     1      27.596 -23.133 -18.048  0.00  0.00    -0.266 OA
ATOM     15  N   UNL     1      26.876 -22.089 -16.105  0.00  0.00    -0.248 N 
ATOM     16  C   UNL     1      27.820 -22.817 -16.853  0.00  0.00    +0.286 C 
ATOM     17  H   UNL     1      27.073 -21.852 -15.171  0.00  0.00    +0.169 HD
BRANCH  15  18
ATOM     18  N   UNL     1      25.674 -21.703 -16.669  0.00  0.00    -0.254 NA
ATOM     19  H   UNL     1      25.642 -22.008 -17.641  0.00  0.00    +0.140 HD
ATOM     20  H   UNL     1      25.590 -20.687 -16.627  0.00  0.00    +0.140 HD
ENDBRANCH  15  18
ENDBRANCH   9  16
TORSDOF 2
ENDMDL
MODEL 5
REMARK VINA RESULT:      -8.7      9.236     11.883
REMARK  Name = 869249
REMARK  2 active torsions:
REMARK  status: ('A' for Active; 'I' for Inactive)
REMARK    1  A    between atoms: C_9  and  C_16
REMARK    2  A    between atoms: N_15  and  N_18
REMARK                            x       y       z     vdW  Elec       q    Type
REMARK                         _______ _______ _______ _____ _____    ______ ____
ROOT
ATOM      1  N   UNL     1      33.881 -15.280 -24.751  0.00  0.00    -0.254 N 
ATOM      2  N   UNL     1      34.149 -14.159 -22.836  0.00  0.00    -0.385 NA
ATOM      3  C   UNL     1      34.244 -15.339 -23.413  0.00  0.00    +0.187 C 
ATOM      4  C   UNL     1      34.658 -16.625 -22.850  0.00  0.00    +0.044 C 
ATOM      5  C   UNL     1      34.668 -17.752 -23.711  0.00  0.00    +0.005 C 
ATOM      6  C   UNL     1      33.893 -16.390 -25.589  0.00  0.00    +0.068 C 
ATOM      7  C   UNL     1      33.542 -13.979 -25.016  0.00  0.00    +0.162 C 
ATOM      8  C   UNL     1      34.265 -17.597 -25.127  0.00  0.00    +0.016 C 
ATOM      9  C   UNL     1      33.714 -13.313 -23.825  0.00  0.00    +0.185 C 
ATOM     10  C   UNL     1      35.038 -16.761 -21.513  0.00  0.00    +0.004 C 
ATOM     11  C   UNL     1      35.058 -18.997 -23.211  0.00  0.00    +0.000 C 
ATOM     12  C   UNL     1      35.424 -18.011 -21.027  0.00  0.00    +0.000 C 
ATOM     13  C   UNL     1      35.435 -19.123 -21.872  0.00  0.00    +0.000 C 
ENDROOT
BRANCH   9  16
ATOM     14  O   UNL     1      32.504 -11.522 -22.917  0.00  0.00    -0.266 OA
ATOM     15  N   UNL     1      34.406 -11.005 -24.142  0.00  0.00    -0.248 N 
ATOM     16  C   UNL     1      33.484 -11.918 -23.596  0.00  0.00    +0.286 C 
ATOM     17  H   UNL     1      35.166 -11.339 -24.670  0.00  0.00    +0.169 HD
BRANCH  15  18
ATOM     18  N   UNL     1      34.255  -9.646 -23.944  0.00  0.00    -0.254 NA
ATOM     19  H   UNL     1      34.506  -9.412 -22.984  0.00  0.00    +0.140 HD
ATOM     20  H   UNL     1      33.286  -9.382 -24.118  0.00  0.00    +0.140 HD
ENDBRANCH  15  18
ENDBRANCH   9  16
TORSDOF 2
ENDMDL
MODEL 6
REMARK VINA RESULT:      -8.7      2.384      3.791
REMARK  Name = 869249
REMARK  2 active torsions:
REMARK  status: ('A' for Active; 'I' for Inactive)
REMARK    1  A    between atoms: C_9  and  C_16
REMARK    2  A    between atoms: N_15  and  N_18
REMARK                            x       y       z     vdW  Elec       q    Type
REMARK                         _______ _______ _______ _____ _____    ______ ____
ROOT
ATOM      1  N   UNL     1      35.621 -24.473 -13.695  0.00  0.00    -0.254 N 
ATOM      2  N   UNL     1      36.801 -24.281 -15.584  0.00  0.00    -0.385 NA
ATOM      3  C   UNL     1      35.607 -24.149 -15.044  0.00  0.00    +0.187 C 
ATOM      4  C   UNL     1      34.346 -23.730 -15.655  0.00  0.00    +0.044 C 
ATOM      5  C   UNL     1      33.195 -23.675 -14.828  0.00  0.00    +0.005 C 
ATOM      6  C   UNL     1      34.489 -24.417 -12.890  0.00  0.00    +0.068 C 
ATOM      7  C   UNL     1      36.908 -24.827 -13.383  0.00  0.00    +0.162 C 
ATOM      8  C   UNL     1      33.302 -24.039 -13.397  0.00  0.00    +0.016 C 
ATOM      9  C   UNL     1      37.611 -24.700 -14.558  0.00  0.00    +0.185 C 
ATOM     10  C   UNL     1      34.253 -23.388 -17.006  0.00  0.00    +0.004 C 
ATOM     11  C   UNL     1      31.971 -23.280 -15.375  0.00  0.00    +0.000 C 
ATOM     12  C   UNL     1      33.025 -22.995 -17.538  0.00  0.00    +0.000 C 
ATOM     13  C   UNL     1      31.890 -22.940 -16.726  0.00  0.00    +0.000 C 
ENDROOT
BRANCH   9  16
ATOM     14  O   UNL     1      39.749 -24.146 -15.345  0.00  0.00    -0.266 OA
ATOM     15  N   UNL     1      39.526 -26.153 -14.203  0.00  0.00    -0.248 N 
ATOM     16  C   UNL     1      39.007 -24.961 -14.741  0.00  0.00    +0.286 C 
ATOM     17  H   UNL     1      38.926 -26.777 -13.734  0.00  0.00    +0.169 HD
BRANCH  15  18
ATOM     18  N   UNL     1      40.868 -26.460 -14.326  0.00  0.00    -0.254 NA
ATOM     19  H   UNL     1      41.383 -25.623 -14.600  0.00  0.00    +0.140 HD
ATOM     20  H   UNL     1      40.988 -27.182 -15.036  0.00  0.00    +0.140 HD
ENDBRANCH  15  18
ENDBRANCH   9  16
TORSDOF 2
ENDMDL
MODEL 7
REMARK VINA RESULT:      -8.7      1.594      2.982
REMARK  Name = 869249
REMARK  2 active torsions:
REMARK  status: ('A' for Active; 'I' for Inactive)
REMARK    1  A    between atoms: C_9  and  C_16
REMARK    2  A    between atoms: N_15  and  N_18
REMARK                            x       y       z     vdW  Elec       q    Type
REMARK                         _______ _______ _______ _____ _____    ______ ____
ROOT
ATOM      1  N   UNL     1      37.002 -23.008 -15.253  0.00  0.00    -0.254 N 
ATOM      2  N   UNL     1      35.279 -23.997 -14.230  0.00  0.00    -0.385 NA
ATOM      3  C   UNL     1      35.660 -23.353 -15.313  0.00  0.00    +0.187 C 
ATOM      4  C   UNL     1      34.888 -22.978 -16.498  0.00  0.00    +0.044 C 
ATOM      5  C   UNL     1      35.560 -22.278 -17.532  0.00  0.00    +0.005 C 
ATOM      6  C   UNL     1      37.655 -22.321 -16.271  0.00  0.00    +0.068 C 
ATOM      7  C   UNL     1      37.480 -23.471 -14.055  0.00  0.00    +0.162 C 
ATOM      8  C   UNL     1      36.996 -21.951 -17.383  0.00  0.00    +0.016 C 
ATOM      9  C   UNL     1      36.404 -24.073 -13.447  0.00  0.00    +0.185 C 
ATOM     10  C   UNL     1      33.533 -23.291 -16.631  0.00  0.00    +0.004 C 
ATOM     11  C   UNL     1      34.857 -21.902 -18.680  0.00  0.00    +0.000 C 
ATOM     12  C   UNL     1      32.844 -22.910 -17.782  0.00  0.00    +0.000 C 
ATOM     13  C   UNL     1      33.504 -22.220 -18.803  0.00  0.00    +0.000 C 
ENDROOT
BRANCH   9  16
ATOM     14  O   UNL     1      37.260 -25.582 -11.869  0.00  0.00    -0.266 OA
ATOM     15  N   UNL     1      35.423 -24.313 -11.236  0.00  0.00    -0.248 N 
ATOM     16  C   UNL     1      36.404 -24.710 -12.164  0.00  0.00    +0.286 C 
ATOM     17  H   UNL     1      34.763 -23.629 -11.490  0.00  0.00    +0.169 HD
BRANCH  15  18
ATOM     18  N   UNL     1      35.376 -24.873  -9.974  0.00  0.00    -0.254 NA
ATOM     19  H   UNL     1      34.425 -24.815  -9.611  0.00  0.00    +0.140 HD
ATOM     20  H   UNL     1      36.009 -24.368  -9.354  0.00  0.00    +0.140 HD
ENDBRANCH  15  18
ENDBRANCH   9  16
TORSDOF 2
ENDMDL
MODEL 8
REMARK VINA RESULT:      -8.6      2.232      4.136
REMARK  Name = 869249
REMARK  2 active torsions:
REMARK  status: ('A' for Active; 'I' for Inactive)
REMARK    1  A    between atoms: C_9  and  C_16
REMARK    2  A    between atoms: N_15  and  N_18
REMARK                            x       y       z     vdW  Elec       q    Type
REMARK                         _______ _______ _______ _____ _____    ______ ____
ROOT
ATOM      1  N   UNL     1      34.791 -23.145 -16.217  0.00  0.00    -0.254 N 
ATOM      2  N   UNL     1      34.912 -23.508 -14.015  0.00  0.00    -0.385 NA
ATOM      3  C   UNL     1      34.094 -23.340 -15.033  0.00  0.00    +0.187 C 
ATOM      4  C   UNL     1      32.631 -23.332 -15.066  0.00  0.00    +0.044 C 
ATOM      5  C   UNL     1      31.998 -23.126 -16.318  0.00  0.00    +0.005 C 
ATOM      6  C   UNL     1      34.163 -22.943 -17.442  0.00  0.00    +0.068 C 
ATOM      7  C   UNL     1      36.125 -23.198 -15.908  0.00  0.00    +0.162 C 
ATOM      8  C   UNL     1      32.822 -22.926 -17.533  0.00  0.00    +0.016 C 
ATOM      9  C   UNL     1      36.172 -23.421 -14.552  0.00  0.00    +0.185 C 
ATOM     10  C   UNL     1      31.862 -23.522 -13.916  0.00  0.00    +0.004 C 
ATOM     11  C   UNL     1      30.603 -23.111 -16.391  0.00  0.00    +0.000 C 
ATOM     12  C   UNL     1      30.470 -23.505 -14.004  0.00  0.00    +0.000 C 
ATOM     13  C   UNL     1      29.843 -23.302 -15.236  0.00  0.00    +0.000 C 
ENDROOT
BRANCH   9  16
ATOM     14  O   UNL     1      38.393 -24.094 -14.218  0.00  0.00    -0.266 OA
ATOM     15  N   UNL     1      37.324 -23.040 -12.448  0.00  0.00    -0.248 N 
ATOM     16  C   UNL     1      37.356 -23.554 -13.758  0.00  0.00    +0.286 C 
ATOM     17  H   UNL     1      36.501 -22.622 -12.109  0.00  0.00    +0.169 HD
BRANCH  15  18
ATOM     18  N   UNL     1      38.437 -23.118 -11.631  0.00  0.00    -0.254 NA
ATOM     19  H   UNL     1      38.747 -24.088 -11.572  0.00  0.00    +0.140 HD
ATOM     20  H   UNL     1      38.200 -22.778 -10.700  0.00  0.00    +0.140 HD
ENDBRANCH  15  18
ENDBRANCH   9  16
TORSDOF 2
ENDMDL
MODEL 9
REMARK VINA RESULT:      -8.5      3.189      4.513
REMARK  Name = 869249
REMARK  2 active torsions:
REMARK  status: ('A' for Active; 'I' for Inactive)
REMARK    1  A    between atoms: C_9  and  C_16
REMARK    2  A    between atoms: N_15  and  N_18
REMARK                            x       y       z     vdW  Elec       q    Type
REMARK                         _______ _______ _______ _____ _____    ______ ____
ROOT
ATOM      1  N   UNL     1      34.443 -22.476 -17.725  0.00  0.00    -0.254 N 
ATOM      2  N   UNL     1      32.275 -22.166 -18.172  0.00  0.00    -0.385 NA
ATOM      3  C   UNL     1      33.503 -21.873 -18.547  0.00  0.00    +0.187 C 
ATOM      4  C   UNL     1      33.967 -21.038 -19.656  0.00  0.00    +0.044 C 
ATOM      5  C   UNL     1      35.367 -20.891 -19.833  0.00  0.00    +0.005 C 
ATOM      6  C   UNL     1      35.814 -22.327 -17.904  0.00  0.00    +0.068 C 
ATOM      7  C   UNL     1      33.749 -23.189 -16.782  0.00  0.00    +0.162 C 
ATOM      8  C   UNL     1      36.299 -21.572 -18.906  0.00  0.00    +0.016 C 
ATOM      9  C   UNL     1      32.423 -22.982 -17.079  0.00  0.00    +0.185 C 
ATOM     10  C   UNL     1      33.081 -20.399 -20.526  0.00  0.00    +0.004 C 
ATOM     11  C   UNL     1      35.850 -20.102 -20.880  0.00  0.00    +0.000 C 
ATOM     12  C   UNL     1      33.578 -19.614 -21.567  0.00  0.00    +0.000 C 
ATOM     13  C   UNL     1      34.956 -19.467 -21.744  0.00  0.00    +0.000 C 
ENDROOT
BRANCH   9  16
ATOM     14  O   UNL     1      31.460 -24.365 -15.449  0.00  0.00    -0.266 OA
ATOM     15  N   UNL     1      30.020 -23.070 -16.727  0.00  0.00    -0.248 N 
ATOM     16  C   UNL     1      31.303 -23.525 -16.370  0.00  0.00    +0.286 C 
ATOM     17  H   UNL     1      29.922 -22.412 -17.452  0.00  0.00    +0.169 HD
BRANCH  15  18
ATOM     18  N   UNL     1      28.897 -23.538 -16.073  0.00  0.00    -0.254 NA
ATOM     19  H   UNL     1      28.460 -22.774 -15.558  0.00  0.00    +0.140 HD
ATOM     20  H   UNL     1      29.165 -24.278 -15.423  0.00  0.00    +0.140 HD
ENDBRANCH  15  18
ENDBRANCH   9  16
TORSDOF 2
ENDMDL
