MODEL 1
REMARK VINA RESULT:      -9.2      0.000      0.000
REMARK  Name = 667476
REMARK  5 active torsions:
REMARK  status: ('A' for Active; 'I' for Inactive)
REMARK    1  A    between atoms: C_1  and  C_4
REMARK    2  A    between atoms: C_1  and  C_12
REMARK    3  A    between atoms: C_9  and  O_10
REMARK    4  A    between atoms: C_12  and  C_15
REMARK    5  A    between atoms: C_20  and  O_21
REMARK                            x       y       z     vdW  Elec       q    Type
REMARK                         _______ _______ _______ _____ _____    ______ ____
ROOT
ATOM      1  C   UNL     1      33.538 -10.832 -23.954  0.00  0.00    -0.005 C 
ATOM      2  C   UNL     1      34.510  -9.980 -24.347  0.00  0.00    -0.026 C 
ATOM      3  C   UNL     1      35.554 -10.206 -25.395  0.00  0.00    +0.031 C 
ENDROOT
BRANCH   1   4
ATOM      4  C   UNL     1      33.495 -12.147 -24.638  0.00  0.00    -0.000 C 
ATOM      5  C   UNL     1      33.243 -12.189 -25.994  0.00  0.00    +0.003 C 
ATOM      6  C   UNL     1      33.707 -13.294 -23.897  0.00  0.00    +0.003 C 
ATOM      7  C   UNL     1      33.201 -13.426 -26.637  0.00  0.00    +0.037 C 
ATOM      8  C   UNL     1      33.667 -14.531 -24.539  0.00  0.00    +0.037 C 
ATOM      9  C   UNL     1      33.412 -14.597 -25.909  0.00  0.00    +0.134 C 
BRANCH   9  10
ATOM     10  O   UNL     1      33.372 -15.804 -26.536  0.00  0.00    -0.506 OA
ATOM     11  H   UNL     1      33.609 -15.871 -27.440  0.00  0.00    +0.292 HD
ENDBRANCH   9  10
ENDBRANCH   1   4
BRANCH   1  12
ATOM     12  C   UNL     1      32.532 -10.503 -22.937  0.00  0.00    -0.005 C 
ATOM     13  C   UNL     1      31.836 -11.433 -22.248  0.00  0.00    -0.026 C 
ATOM     14  C   UNL     1      30.768 -11.200 -21.223  0.00  0.00    +0.031 C 
BRANCH  12  15
ATOM     15  C   UNL     1      32.207  -9.085 -22.651  0.00  0.00    -0.000 C 
ATOM     16  C   UNL     1      32.791  -8.470 -21.562  0.00  0.00    +0.003 C 
ATOM     17  C   UNL     1      31.327  -8.420 -23.482  0.00  0.00    +0.003 C 
ATOM     18  C   UNL     1      32.484  -7.137 -21.293  0.00  0.00    +0.037 C 
ATOM     19  C   UNL     1      31.020  -7.086 -23.214  0.00  0.00    +0.037 C 
ATOM     20  C   UNL     1      31.599  -6.444 -22.118  0.00  0.00    +0.134 C 
BRANCH  20  21
ATOM     21  O   UNL     1      31.299  -5.143 -21.856  0.00  0.00    -0.506 OA
ATOM     22  H   UNL     1      30.416  -4.841 -21.933  0.00  0.00    +0.292 HD
ENDBRANCH  20  21
ENDBRANCH  12  15
ENDBRANCH   1  12
TORSDOF 5
ENDMDL
MODEL 2
REMARK VINA RESULT:      -9.1      0.269      6.969
REMARK  Name = 667476
REMARK  5 active torsions:
REMARK  status: ('A' for Active; 'I' for Inactive)
REMARK    1  A    between atoms: C_1  and  C_4
REMARK    2  A    between atoms: C_1  and  C_12
REMARK    3  A    between atoms: C_9  and  O_10
REMARK    4  A    between atoms: C_12  and  C_15
REMARK    5  A    between atoms: C_20  and  O_21
REMARK                            x       y       z     vdW  Elec       q    Type
REMARK                         _______ _______ _______ _____ _____    ______ ____
ROOT
ATOM      1  C   UNL     1      32.488 -10.578 -22.851  0.00  0.00    -0.005 C 
ATOM      2  C   UNL     1      31.773 -11.486 -22.152  0.00  0.00    -0.026 C 
ATOM      3  C   UNL     1      30.708 -11.222 -21.133  0.00  0.00    +0.031 C 
ENDROOT
BRANCH   1   4
ATOM      4  C   UNL     1      32.188  -9.151 -22.582  0.00  0.00    -0.000 C 
ATOM      5  C   UNL     1      31.346  -8.470 -23.439  0.00  0.00    +0.003 C 
ATOM      6  C   UNL     1      32.762  -8.542 -21.483  0.00  0.00    +0.003 C 
ATOM      7  C   UNL     1      31.066  -7.127 -23.186  0.00  0.00    +0.037 C 
ATOM      8  C   UNL     1      32.481  -7.200 -21.230  0.00  0.00    +0.037 C 
ATOM      9  C   UNL     1      31.634  -6.492 -22.082  0.00  0.00    +0.134 C 
BRANCH   9  10
ATOM     10  O   UNL     1      31.360  -5.182 -21.836  0.00  0.00    -0.506 OA
ATOM     11  H   UNL     1      31.022  -4.638 -22.519  0.00  0.00    +0.292 HD
ENDBRANCH   9  10
ENDBRANCH   1   4
BRANCH   1  12
ATOM     12  C   UNL     1      33.490 -10.937 -23.861  0.00  0.00    -0.005 C 
ATOM     13  C   UNL     1      34.410 -10.073 -24.340  0.00  0.00    -0.026 C 
ATOM     14  C   UNL     1      35.445 -10.330 -25.392  0.00  0.00    +0.031 C 
BRANCH  12  15
ATOM     15  C   UNL     1      33.500 -12.303 -24.439  0.00  0.00    -0.000 C 
ATOM     16  C   UNL     1      33.153 -12.472 -25.764  0.00  0.00    +0.003 C 
ATOM     17  C   UNL     1      33.856 -13.367 -23.634  0.00  0.00    +0.003 C 
ATOM     18  C   UNL     1      33.161 -13.757 -26.307  0.00  0.00    +0.037 C 
ATOM     19  C   UNL     1      33.865 -14.652 -24.176  0.00  0.00    +0.037 C 
ATOM     20  C   UNL     1      33.516 -14.847 -25.513  0.00  0.00    +0.134 C 
BRANCH  20  21
ATOM     21  O   UNL     1      33.525 -16.101 -26.043  0.00  0.00    -0.506 OA
ATOM     22  H   UNL     1      33.657 -16.219 -26.962  0.00  0.00    +0.292 HD
ENDBRANCH  20  21
ENDBRANCH  12  15
ENDBRANCH   1  12
TORSDOF 5
ENDMDL
MODEL 3
REMARK VINA RESULT:      -8.6      5.076      9.265
REMARK  Name = 667476
REMARK  5 active torsions:
REMARK  status: ('A' for Active; 'I' for Inactive)
REMARK    1  A    between atoms: C_1  and  C_4
REMARK    2  A    between atoms: C_1  and  C_12
REMARK    3  A    between atoms: C_9  and  O_10
REMARK    4  A    between atoms: C_12  and  C_15
REMARK    5  A    between atoms: C_20  and  O_21
REMARK                            x       y       z     vdW  Elec       q    Type
REMARK                         _______ _______ _______ _____ _____    ______ ____
ROOT
ATOM      1  C   UNL     1      34.527 -16.626 -22.248  0.00  0.00    -0.005 C 
ATOM      2  C   UNL     1      34.644 -16.199 -20.972  0.00  0.00    -0.026 C 
ATOM      3  C   UNL     1      34.458 -14.807 -20.454  0.00  0.00    +0.031 C 
ENDROOT
BRANCH   1   4
ATOM      4  C   UNL     1      34.174 -15.600 -23.260  0.00  0.00    -0.000 C 
ATOM      5  C   UNL     1      34.248 -14.266 -22.914  0.00  0.00    +0.003 C 
ATOM      6  C   UNL     1      33.779 -16.009 -24.518  0.00  0.00    +0.003 C 
ATOM      7  C   UNL     1      33.915 -13.301 -23.865  0.00  0.00    +0.037 C 
ATOM      8  C   UNL     1      33.447 -15.046 -25.470  0.00  0.00    +0.037 C 
ATOM      9  C   UNL     1      33.513 -13.691 -25.143  0.00  0.00    +0.134 C 
BRANCH   9  10
ATOM     10  O   UNL     1      33.189 -12.750 -26.071  0.00  0.00    -0.506 OA
ATOM     11  H   UNL     1      33.863 -12.258 -26.495  0.00  0.00    +0.292 HD
ENDBRANCH   9  10
ENDBRANCH   1   4
BRANCH   1  12
ATOM     12  C   UNL     1      34.692 -18.026 -22.655  0.00  0.00    -0.005 C 
ATOM     13  C   UNL     1      34.867 -18.416 -23.936  0.00  0.00    -0.026 C 
ATOM     14  C   UNL     1      35.007 -19.815 -24.454  0.00  0.00    +0.031 C 
BRANCH  12  15
ATOM     15  C   UNL     1      34.632 -19.103 -21.637  0.00  0.00    -0.000 C 
ATOM     16  C   UNL     1      35.810 -19.614 -21.131  0.00  0.00    +0.003 C 
ATOM     17  C   UNL     1      33.397 -19.565 -21.225  0.00  0.00    +0.003 C 
ATOM     18  C   UNL     1      35.752 -20.627 -20.175  0.00  0.00    +0.037 C 
ATOM     19  C   UNL     1      33.339 -20.578 -20.268  0.00  0.00    +0.037 C 
ATOM     20  C   UNL     1      34.517 -21.110 -19.743  0.00  0.00    +0.134 C 
BRANCH  20  21
ATOM     21  O   UNL     1      34.461 -22.098 -18.810  0.00  0.00    -0.506 OA
ATOM     22  H   UNL     1      33.731 -22.149 -18.225  0.00  0.00    +0.292 HD
ENDBRANCH  20  21
ENDBRANCH  12  15
ENDBRANCH   1  12
TORSDOF 5
ENDMDL
MODEL 4
REMARK VINA RESULT:      -8.5      5.072      7.941
REMARK  Name = 667476
REMARK  5 active torsions:
REMARK  status: ('A' for Active; 'I' for Inactive)
REMARK    1  A    between atoms: C_1  and  C_4
REMARK    2  A    between atoms: C_1  and  C_12
REMARK    3  A    between atoms: C_9  and  O_10
REMARK    4  A    between atoms: C_12  and  C_15
REMARK    5  A    between atoms: C_20  and  O_21
REMARK                            x       y       z     vdW  Elec       q    Type
REMARK                         _______ _______ _______ _____ _____    ______ ____
ROOT
ATOM      1  C   UNL     1      34.696 -18.018 -22.658  0.00  0.00    -0.005 C 
ATOM      2  C   UNL     1      34.864 -18.407 -23.940  0.00  0.00    -0.026 C 
ATOM      3  C   UNL     1      35.005 -19.804 -24.460  0.00  0.00    +0.031 C 
ENDROOT
BRANCH   1   4
ATOM      4  C   UNL     1      34.644 -19.096 -21.641  0.00  0.00    -0.000 C 
ATOM      5  C   UNL     1      35.827 -19.598 -21.136  0.00  0.00    +0.003 C 
ATOM      6  C   UNL     1      33.413 -19.567 -21.228  0.00  0.00    +0.003 C 
ATOM      7  C   UNL     1      35.777 -20.612 -20.181  0.00  0.00    +0.037 C 
ATOM      8  C   UNL     1      33.363 -20.580 -20.271  0.00  0.00    +0.037 C 
ATOM      9  C   UNL     1      34.546 -21.104 -19.748  0.00  0.00    +0.134 C 
BRANCH   9  10
ATOM     10  O   UNL     1      34.498 -22.094 -18.815  0.00  0.00    -0.506 OA
ATOM     11  H   UNL     1      35.255 -22.286 -18.297  0.00  0.00    +0.292 HD
ENDBRANCH   9  10
ENDBRANCH   1   4
BRANCH   1  12
ATOM     12  C   UNL     1      34.529 -16.618 -22.249  0.00  0.00    -0.005 C 
ATOM     13  C   UNL     1      34.643 -16.195 -20.973  0.00  0.00    -0.026 C 
ATOM     14  C   UNL     1      34.455 -14.803 -20.452  0.00  0.00    +0.031 C 
BRANCH  12  15
ATOM     15  C   UNL     1      34.177 -15.591 -23.259  0.00  0.00    -0.000 C 
ATOM     16  C   UNL     1      34.249 -14.257 -22.911  0.00  0.00    +0.003 C 
ATOM     17  C   UNL     1      33.786 -15.998 -24.520  0.00  0.00    +0.003 C 
ATOM     18  C   UNL     1      33.917 -13.291 -23.861  0.00  0.00    +0.037 C 
ATOM     19  C   UNL     1      33.455 -15.033 -25.470  0.00  0.00    +0.037 C 
ATOM     20  C   UNL     1      33.520 -13.679 -25.141  0.00  0.00    +0.134 C 
BRANCH  20  21
ATOM     21  O   UNL     1      33.196 -12.736 -26.068  0.00  0.00    -0.506 OA
ATOM     22  H   UNL     1      32.813 -11.926 -25.797  0.00  0.00    +0.292 HD
ENDBRANCH  20  21
ENDBRANCH  12  15
ENDBRANCH   1  12
TORSDOF 5
ENDMDL
MODEL 5
REMARK VINA RESULT:      -8.5      1.446      3.102
REMARK  Name = 667476
REMARK  5 active torsions:
REMARK  status: ('A' for Active; 'I' for Inactive)
REMARK    1  A    between atoms: C_1  and  C_4
REMARK    2  A    between atoms: C_1  and  C_12
REMARK    3  A    between atoms: C_9  and  O_10
REMARK    4  A    between atoms: C_12  and  C_15
REMARK    5  A    between atoms: C_20  and  O_21
REMARK                            x       y       z     vdW  Elec       q    Type
REMARK                         _______ _______ _______ _____ _____    ______ ____
ROOT
ATOM      1  C   UNL     1      33.343 -12.303 -23.657  0.00  0.00    -0.005 C 
ATOM      2  C   UNL     1      32.624 -12.211 -22.517  0.00  0.00    -0.026 C 
ATOM      3  C   UNL     1      32.044 -13.331 -21.711  0.00  0.00    +0.031 C 
ENDROOT
BRANCH   1   4
ATOM      4  C   UNL     1      33.589 -13.670 -24.176  0.00  0.00    -0.000 C 
ATOM      5  C   UNL     1      34.418 -14.516 -23.467  0.00  0.00    +0.003 C 
ATOM      6  C   UNL     1      32.982 -14.057 -25.355  0.00  0.00    +0.003 C 
ATOM      7  C   UNL     1      34.650 -15.801 -23.957  0.00  0.00    +0.037 C 
ATOM      8  C   UNL     1      33.213 -15.342 -25.844  0.00  0.00    +0.037 C 
ATOM      9  C   UNL     1      34.048 -16.215 -25.145  0.00  0.00    +0.134 C 
BRANCH   9  10
ATOM     10  O   UNL     1      34.274 -17.469 -25.622  0.00  0.00    -0.506 OA
ATOM     11  H   UNL     1      33.553 -18.038 -25.804  0.00  0.00    +0.292 HD
ENDBRANCH   9  10
ENDBRANCH   1   4
BRANCH   1  12
ATOM     12  C   UNL     1      33.905 -11.142 -24.359  0.00  0.00    -0.005 C 
ATOM     13  C   UNL     1      34.773 -11.241 -25.387  0.00  0.00    -0.026 C 
ATOM     14  C   UNL     1      35.428 -10.123 -26.140  0.00  0.00    +0.031 C 
BRANCH  12  15
ATOM     15  C   UNL     1      33.552  -9.771 -23.918  0.00  0.00    -0.000 C 
ATOM     16  C   UNL     1      34.564  -8.886 -23.606  0.00  0.00    +0.003 C 
ATOM     17  C   UNL     1      32.219  -9.418 -23.832  0.00  0.00    +0.003 C 
ATOM     18  C   UNL     1      34.232  -7.597 -23.190  0.00  0.00    +0.037 C 
ATOM     19  C   UNL     1      31.886  -8.129 -23.418  0.00  0.00    +0.037 C 
ATOM     20  C   UNL     1      32.893  -7.218 -23.096  0.00  0.00    +0.134 C 
BRANCH  20  21
ATOM     21  O   UNL     1      32.569  -5.960 -22.691  0.00  0.00    -0.506 OA
ATOM     22  H   UNL     1      31.967  -5.837 -21.984  0.00  0.00    +0.292 HD
ENDBRANCH  20  21
ENDBRANCH  12  15
ENDBRANCH   1  12
TORSDOF 5
ENDMDL
MODEL 6
REMARK VINA RESULT:      -8.5      1.452      6.719
REMARK  Name = 667476
REMARK  5 active torsions:
REMARK  status: ('A' for Active; 'I' for Inactive)
REMARK    1  A    between atoms: C_1  and  C_4
REMARK    2  A    between atoms: C_1  and  C_12
REMARK    3  A    between atoms: C_9  and  O_10
REMARK    4  A    between atoms: C_12  and  C_15
REMARK    5  A    between atoms: C_20  and  O_21
REMARK                            x       y       z     vdW  Elec       q    Type
REMARK                         _______ _______ _______ _____ _____    ______ ____
ROOT
ATOM      1  C   UNL     1      33.910 -11.146 -24.364  0.00  0.00    -0.005 C 
ATOM      2  C   UNL     1      34.779 -11.245 -25.392  0.00  0.00    -0.026 C 
ATOM      3  C   UNL     1      35.432 -10.128 -26.146  0.00  0.00    +0.031 C 
ENDROOT
BRANCH   1   4
ATOM      4  C   UNL     1      33.557  -9.775 -23.924  0.00  0.00    -0.000 C 
ATOM      5  C   UNL     1      32.226  -9.419 -23.841  0.00  0.00    +0.003 C 
ATOM      6  C   UNL     1      34.572  -8.892 -23.610  0.00  0.00    +0.003 C 
ATOM      7  C   UNL     1      31.895  -8.128 -23.429  0.00  0.00    +0.037 C 
ATOM      8  C   UNL     1      34.242  -7.602 -23.196  0.00  0.00    +0.037 C 
ATOM      9  C   UNL     1      32.903  -7.219 -23.106  0.00  0.00    +0.134 C 
BRANCH   9  10
ATOM     10  O   UNL     1      32.580  -5.960 -22.703  0.00  0.00    -0.506 OA
ATOM     11  H   UNL     1      32.903  -5.220 -23.177  0.00  0.00    +0.292 HD
ENDBRANCH   9  10
ENDBRANCH   1   4
BRANCH   1  12
ATOM     12  C   UNL     1      33.348 -12.306 -23.661  0.00  0.00    -0.005 C 
ATOM     13  C   UNL     1      32.627 -12.213 -22.523  0.00  0.00    -0.026 C 
ATOM     14  C   UNL     1      32.046 -13.333 -21.715  0.00  0.00    +0.031 C 
BRANCH  12  15
ATOM     15  C   UNL     1      33.596 -13.674 -24.177  0.00  0.00    -0.000 C 
ATOM     16  C   UNL     1      32.992 -14.066 -25.355  0.00  0.00    +0.003 C 
ATOM     17  C   UNL     1      34.426 -14.518 -23.464  0.00  0.00    +0.003 C 
ATOM     18  C   UNL     1      33.225 -15.353 -25.839  0.00  0.00    +0.037 C 
ATOM     19  C   UNL     1      34.660 -15.804 -23.949  0.00  0.00    +0.037 C 
ATOM     20  C   UNL     1      34.058 -16.222 -25.136  0.00  0.00    +0.134 C 
BRANCH  20  21
ATOM     21  O   UNL     1      34.286 -17.478 -25.609  0.00  0.00    -0.506 OA
ATOM     22  H   UNL     1      33.934 -18.219 -25.158  0.00  0.00    +0.292 HD
ENDBRANCH  20  21
ENDBRANCH  12  15
ENDBRANCH   1  12
TORSDOF 5
ENDMDL
MODEL 7
REMARK VINA RESULT:      -8.5      6.227     10.234
REMARK  Name = 667476
REMARK  5 active torsions:
REMARK  status: ('A' for Active; 'I' for Inactive)
REMARK    1  A    between atoms: C_1  and  C_4
REMARK    2  A    between atoms: C_1  and  C_12
REMARK    3  A    between atoms: C_9  and  O_10
REMARK    4  A    between atoms: C_12  and  C_15
REMARK    5  A    between atoms: C_20  and  O_21
REMARK                            x       y       z     vdW  Elec       q    Type
REMARK                         _______ _______ _______ _____ _____    ______ ____
ROOT
ATOM      1  C   UNL     1      34.905 -18.543 -22.683  0.00  0.00    -0.005 C 
ATOM      2  C   UNL     1      34.705 -19.164 -23.865  0.00  0.00    -0.026 C 
ATOM      3  C   UNL     1      34.104 -18.589 -25.110  0.00  0.00    +0.031 C 
ENDROOT
BRANCH   1   4
ATOM      4  C   UNL     1      34.482 -17.124 -22.601  0.00  0.00    -0.000 C 
ATOM      5  C   UNL     1      34.895 -16.245 -23.583  0.00  0.00    +0.003 C 
ATOM      6  C   UNL     1      33.689 -16.721 -21.545  0.00  0.00    +0.003 C 
ATOM      7  C   UNL     1      34.498 -14.910 -23.505  0.00  0.00    +0.037 C 
ATOM      8  C   UNL     1      33.292 -15.387 -21.467  0.00  0.00    +0.037 C 
ATOM      9  C   UNL     1      33.697 -14.480 -22.447  0.00  0.00    +0.134 C 
BRANCH   9  10
ATOM     10  O   UNL     1      33.310 -13.178 -22.372  0.00  0.00    -0.506 OA
ATOM     11  H   UNL     1      32.443 -12.932 -22.626  0.00  0.00    +0.292 HD
ENDBRANCH   9  10
ENDBRANCH   1   4
BRANCH   1  12
ATOM     12  C   UNL     1      35.538 -19.184 -21.524  0.00  0.00    -0.005 C 
ATOM     13  C   UNL     1      36.833 -19.005 -21.187  0.00  0.00    -0.026 C 
ATOM     14  C   UNL     1      37.578 -19.640 -20.053  0.00  0.00    +0.031 C 
BRANCH  12  15
ATOM     15  C   UNL     1      34.756 -20.117 -20.677  0.00  0.00    -0.000 C 
ATOM     16  C   UNL     1      35.400 -21.184 -20.085  0.00  0.00    +0.003 C 
ATOM     17  C   UNL     1      33.404 -19.890 -20.505  0.00  0.00    +0.003 C 
ATOM     18  C   UNL     1      34.664 -22.061 -19.289  0.00  0.00    +0.037 C 
ATOM     19  C   UNL     1      32.668 -20.766 -19.709  0.00  0.00    +0.037 C 
ATOM     20  C   UNL     1      33.297 -21.853 -19.101  0.00  0.00    +0.134 C 
BRANCH  20  21
ATOM     21  O   UNL     1      32.579 -22.709 -18.324  0.00  0.00    -0.506 OA
ATOM     22  H   UNL     1      32.355 -22.469 -17.447  0.00  0.00    +0.292 HD
ENDBRANCH  20  21
ENDBRANCH  12  15
ENDBRANCH   1  12
TORSDOF 5
ENDMDL
MODEL 8
REMARK VINA RESULT:      -8.3     13.962     16.408
REMARK  Name = 667476
REMARK  5 active torsions:
REMARK  status: ('A' for Active; 'I' for Inactive)
REMARK    1  A    between atoms: C_1  and  C_4
REMARK    2  A    between atoms: C_1  and  C_12
REMARK    3  A    between atoms: C_9  and  O_10
REMARK    4  A    between atoms: C_12  and  C_15
REMARK    5  A    between atoms: C_20  and  O_21
REMARK                            x       y       z     vdW  Elec       q    Type
REMARK                         _______ _______ _______ _____ _____    ______ ____
ROOT
ATOM      1  C   UNL     1      32.035 -23.927 -15.155  0.00  0.00    -0.005 C 
ATOM      2  C   UNL     1      32.221 -24.624 -14.013  0.00  0.00    -0.026 C 
ATOM      3  C   UNL     1      31.176 -25.090 -13.047  0.00  0.00    +0.031 C 
ENDROOT
BRANCH   1   4
ATOM      4  C   UNL     1      30.635 -23.578 -15.497  0.00  0.00    -0.000 C 
ATOM      5  C   UNL     1      30.115 -22.379 -15.051  0.00  0.00    +0.003 C 
ATOM      6  C   UNL     1      29.890 -24.463 -16.251  0.00  0.00    +0.003 C 
ATOM      7  C   UNL     1      28.798 -22.053 -15.372  0.00  0.00    +0.037 C 
ATOM      8  C   UNL     1      28.573 -24.137 -16.573  0.00  0.00    +0.037 C 
ATOM      9  C   UNL     1      28.026 -22.931 -16.132  0.00  0.00    +0.134 C 
BRANCH   9  10
ATOM     10  O   UNL     1      26.741 -22.612 -16.446  0.00  0.00    -0.506 OA
ATOM     11  H   UNL     1      26.192 -22.202 -15.808  0.00  0.00    +0.292 HD
ENDBRANCH   9  10
ENDBRANCH   1   4
BRANCH   1  12
ATOM     12  C   UNL     1      33.125 -23.546 -16.061  0.00  0.00    -0.005 C 
ATOM     13  C   UNL     1      32.928 -23.085 -17.314  0.00  0.00    -0.026 C 
ATOM     14  C   UNL     1      33.969 -22.708 -18.323  0.00  0.00    +0.031 C 
BRANCH  12  15
ATOM     15  C   UNL     1      34.534 -23.697 -15.625  0.00  0.00    -0.000 C 
ATOM     16  C   UNL     1      35.283 -22.565 -15.373  0.00  0.00    +0.003 C 
ATOM     17  C   UNL     1      35.059 -24.967 -15.484  0.00  0.00    +0.003 C 
ATOM     18  C   UNL     1      36.609 -22.708 -14.965  0.00  0.00    +0.037 C 
ATOM     19  C   UNL     1      36.383 -25.111 -15.074  0.00  0.00    +0.037 C 
ATOM     20  C   UNL     1      37.160 -23.980 -14.815  0.00  0.00    +0.134 C 
BRANCH  20  21
ATOM     21  O   UNL     1      38.453 -24.120 -14.416  0.00  0.00    -0.506 OA
ATOM     22  H   UNL     1      38.660 -24.663 -13.682  0.00  0.00    +0.292 HD
ENDBRANCH  20  21
ENDBRANCH  12  15
ENDBRANCH   1  12
TORSDOF 5
ENDMDL
MODEL 9
REMARK VINA RESULT:      -8.3     13.971     15.937
REMARK  Name = 667476
REMARK  5 active torsions:
REMARK  status: ('A' for Active; 'I' for Inactive)
REMARK    1  A    between atoms: C_1  and  C_4
REMARK    2  A    between atoms: C_1  and  C_12
REMARK    3  A    between atoms: C_9  and  O_10
REMARK    4  A    between atoms: C_12  and  C_15
REMARK    5  A    between atoms: C_20  and  O_21
REMARK                            x       y       z     vdW  Elec       q    Type
REMARK                         _______ _______ _______ _____ _____    ______ ____
ROOT
ATOM      1  C   UNL     1      33.131 -23.558 -16.037  0.00  0.00    -0.005 C 
ATOM      2  C   UNL     1      32.937 -23.088 -17.288  0.00  0.00    -0.026 C 
ATOM      3  C   UNL     1      33.978 -22.703 -18.291  0.00  0.00    +0.031 C 
ENDROOT
BRANCH   1   4
ATOM      4  C   UNL     1      34.540 -23.714 -15.600  0.00  0.00    -0.000 C 
ATOM      5  C   UNL     1      35.290 -22.585 -15.342  0.00  0.00    +0.003 C 
ATOM      6  C   UNL     1      35.062 -24.986 -15.466  0.00  0.00    +0.003 C 
ATOM      7  C   UNL     1      36.615 -22.732 -14.932  0.00  0.00    +0.037 C 
ATOM      8  C   UNL     1      36.386 -25.134 -15.056  0.00  0.00    +0.037 C 
ATOM      9  C   UNL     1      37.164 -24.006 -14.790  0.00  0.00    +0.134 C 
BRANCH   9  10
ATOM     10  O   UNL     1      38.457 -24.150 -14.390  0.00  0.00    -0.506 OA
ATOM     11  H   UNL     1      38.828 -25.005 -14.307  0.00  0.00    +0.292 HD
ENDBRANCH   9  10
ENDBRANCH   1   4
BRANCH   1  12
ATOM     12  C   UNL     1      32.039 -23.945 -15.135  0.00  0.00    -0.005 C 
ATOM     13  C   UNL     1      32.224 -24.652 -14.000  0.00  0.00    -0.026 C 
ATOM     14  C   UNL     1      31.177 -25.125 -13.038  0.00  0.00    +0.031 C 
BRANCH  12  15
ATOM     15  C   UNL     1      30.640 -23.592 -15.476  0.00  0.00    -0.000 C 
ATOM     16  C   UNL     1      30.124 -22.392 -15.029  0.00  0.00    +0.003 C 
ATOM     17  C   UNL     1      29.892 -24.475 -16.230  0.00  0.00    +0.003 C 
ATOM     18  C   UNL     1      28.808 -22.061 -15.349  0.00  0.00    +0.037 C 
ATOM     19  C   UNL     1      28.576 -24.144 -16.550  0.00  0.00    +0.037 C 
ATOM     20  C   UNL     1      28.033 -22.936 -16.109  0.00  0.00    +0.134 C 
BRANCH  20  21
ATOM     21  O   UNL     1      26.749 -22.613 -16.421  0.00  0.00    -0.506 OA
ATOM     22  H   UNL     1      26.349 -21.860 -16.035  0.00  0.00    +0.292 HD
ENDBRANCH  20  21
ENDBRANCH  12  15
ENDBRANCH   1  12
TORSDOF 5
ENDMDL
