MODEL 1
REMARK VINA RESULT:      -9.4      0.000      0.000
REMARK  Name = 24768548
REMARK  12 active torsions:
REMARK  status: ('A' for Active; 'I' for Inactive)
REMARK    1  A    between atoms: C_1  and  C_2
REMARK    2  A    between atoms: C_1  and  C_17
REMARK    3  A    between atoms: C_2  and  C_4
REMARK    4  A    between atoms: C_2  and  C_14
REMARK    5  A    between atoms: C_14  and  O_15
REMARK    6  A    between atoms: C_17  and  C_18
REMARK    7  A    between atoms: C_18  and  C_19
REMARK    8  A    between atoms: C_19  and  C_20
REMARK    9  A    between atoms: C_20  and  C_21
REMARK   10  A    between atoms: C_21  and  N_23
REMARK   11  A    between atoms: C_24  and  O_26
REMARK   12  A    between atoms: O_26  and  C_27
REMARK                            x       y       z     vdW  Elec       q    Type
REMARK                         _______ _______ _______ _____ _____    ______ ____
ROOT
ATOM      1  C   UNL     1      33.481  -6.801 -23.689  0.00  0.00    +0.016 C 
ENDROOT
BRANCH   1   2
ATOM      2  C   UNL     1      32.107  -7.159 -23.080  0.00  0.00    +0.122 C 
BRANCH   2   4
ATOM      3  N   UNL     1      32.567  -7.929 -19.500  0.00  0.00    -0.312 N 
ATOM      4  C   UNL     1      32.208  -7.740 -21.682  0.00  0.00    +0.004 C 
ATOM      5  C   UNL     1      31.907  -9.076 -21.296  0.00  0.00    +0.011 C 
ATOM      6  C   UNL     1      32.610  -7.059 -20.557  0.00  0.00    +0.058 C 
ATOM      7  C   UNL     1      32.142  -9.168 -19.922  0.00  0.00    +0.048 C 
ATOM      8  C   UNL     1      31.459 -10.220 -21.986  0.00  0.00    +0.001 C 
ATOM      9  C   UNL     1      31.948 -10.352 -19.201  0.00  0.00    +0.015 C 
ATOM     10  C   UNL     1      31.260 -11.410 -21.276  0.00  0.00    +0.000 C 
ATOM     11  C   UNL     1      31.501 -11.473 -19.905  0.00  0.00    +0.001 C 
ATOM     12  H   UNL     1      32.806  -7.701 -18.573  0.00  0.00    +0.152 HD
ENDBRANCH   2   4
BRANCH   2  14
ATOM     13  O   UNL     1      30.291  -5.725 -22.300  0.00  0.00    -0.250 OA
ATOM     14  C   UNL     1      31.200  -5.934 -23.093  0.00  0.00    +0.317 C 
BRANCH  14  15
ATOM     15  O   UNL     1      31.516  -5.071 -24.094  0.00  0.00    -0.480 OA
ATOM     16  H   UNL     1      32.123  -4.374 -23.938  0.00  0.00    +0.295 HD
ENDBRANCH  14  15
ENDBRANCH   2  14
ENDBRANCH   1   2
BRANCH   1  17
ATOM     17  C   UNL     1      34.585  -7.786 -23.281  0.00  0.00    +0.001 C 
BRANCH  17  18
ATOM     18  C   UNL     1      34.849  -8.874 -24.328  0.00  0.00    +0.000 C 
BRANCH  18  19
ATOM     19  C   UNL     1      34.176 -10.209 -23.997  0.00  0.00    +0.002 C 
BRANCH  19  20
ATOM     20  C   UNL     1      34.278 -11.235 -25.129  0.00  0.00    +0.021 C 
BRANCH  20  21
ATOM     21  C   UNL     1      33.541 -12.538 -24.836  0.00  0.00    +0.093 C 
BRANCH  21  23
ATOM     22  O   UNL     1      33.715 -15.424 -24.567  0.00  0.00    -0.226 OA
ATOM     23  N   UNL     1      34.192 -13.288 -23.796  0.00  0.00    -0.271 N 
ATOM     24  C   UNL     1      34.225 -14.668 -23.746  0.00  0.00    +0.401 C 
ATOM     25  H   UNL     1      34.640 -12.788 -23.076  0.00  0.00    +0.153 HD
BRANCH  24  26
ATOM     26  O   UNL     1      34.917 -15.078 -22.641  0.00  0.00    -0.442 OA
BRANCH  26  27
ATOM     27  C   UNL     1      34.135 -15.670 -21.598  0.00  0.00    +0.138 C 
ATOM     28  C   UNL     1      32.697 -15.167 -21.723  0.00  0.00    +0.044 C 
ATOM     29  C   UNL     1      34.194 -17.184 -21.780  0.00  0.00    +0.044 C 
ATOM     30  C   UNL     1      34.737 -15.268 -20.251  0.00  0.00    +0.044 C 
ENDBRANCH  26  27
ENDBRANCH  24  26
ENDBRANCH  21  23
ENDBRANCH  20  21
ENDBRANCH  19  20
ENDBRANCH  18  19
ENDBRANCH  17  18
ENDBRANCH   1  17
TORSDOF 12
ENDMDL
MODEL 2
REMARK VINA RESULT:      -9.1      3.134      9.631
REMARK  Name = 24768548
REMARK  12 active torsions:
REMARK  status: ('A' for Active; 'I' for Inactive)
REMARK    1  A    between atoms: C_1  and  C_2
REMARK    2  A    between atoms: C_1  and  C_17
REMARK    3  A    between atoms: C_2  and  C_4
REMARK    4  A    between atoms: C_2  and  C_14
REMARK    5  A    between atoms: C_14  and  O_15
REMARK    6  A    between atoms: C_17  and  C_18
REMARK    7  A    between atoms: C_18  and  C_19
REMARK    8  A    between atoms: C_19  and  C_20
REMARK    9  A    between atoms: C_20  and  C_21
REMARK   10  A    between atoms: C_21  and  N_23
REMARK   11  A    between atoms: C_24  and  O_26
REMARK   12  A    between atoms: O_26  and  C_27
REMARK                            x       y       z     vdW  Elec       q    Type
REMARK                         _______ _______ _______ _____ _____    ______ ____
ROOT
ATOM      1  C   UNL     1      34.041 -16.594 -21.973  0.00  0.00    +0.016 C 
ENDROOT
BRANCH   1   2
ATOM      2  C   UNL     1      35.285 -17.380 -22.444  0.00  0.00    +0.122 C 
BRANCH   2   4
ATOM      3  N   UNL     1      36.799 -19.987 -20.315  0.00  0.00    -0.312 N 
ATOM      4  C   UNL     1      35.636 -18.540 -21.532  0.00  0.00    +0.004 C 
ATOM      5  C   UNL     1      34.725 -19.461 -20.943  0.00  0.00    +0.011 C 
ATOM      6  C   UNL     1      36.904 -18.889 -21.127  0.00  0.00    +0.058 C 
ATOM      7  C   UNL     1      35.481 -20.357 -20.185  0.00  0.00    +0.048 C 
ATOM      8  C   UNL     1      33.325 -19.618 -20.983  0.00  0.00    +0.001 C 
ATOM      9  C   UNL     1      34.904 -21.408 -19.462  0.00  0.00    +0.015 C 
ATOM     10  C   UNL     1      32.735 -20.664 -20.264  0.00  0.00    +0.000 C 
ATOM     11  C   UNL     1      33.514 -21.544 -19.516  0.00  0.00    +0.001 C 
ATOM     12  H   UNL     1      37.558 -20.444 -19.887  0.00  0.00    +0.152 HD
ENDBRANCH   2   4
BRANCH   2  14
ATOM     13  O   UNL     1      34.717 -18.982 -24.197  0.00  0.00    -0.250 OA
ATOM     14  C   UNL     1      35.083 -17.859 -23.876  0.00  0.00    +0.317 C 
BRANCH  14  15
ATOM     15  O   UNL     1      35.349 -16.885 -24.787  0.00  0.00    -0.480 OA
ATOM     16  H   UNL     1      35.120 -15.995 -24.602  0.00  0.00    +0.295 HD
ENDBRANCH  14  15
ENDBRANCH   2  14
ENDBRANCH   1   2
BRANCH   1  17
ATOM     17  C   UNL     1      34.356 -15.610 -20.837  0.00  0.00    +0.001 C 
BRANCH  17  18
ATOM     18  C   UNL     1      33.124 -14.855 -20.327  0.00  0.00    +0.000 C 
BRANCH  18  19
ATOM     19  C   UNL     1      32.387 -14.084 -21.425  0.00  0.00    +0.002 C 
BRANCH  19  20
ATOM     20  C   UNL     1      32.016 -12.655 -21.019  0.00  0.00    +0.021 C 
BRANCH  20  21
ATOM     21  C   UNL     1      31.684 -11.753 -22.202  0.00  0.00    +0.093 C 
BRANCH  21  23
ATOM     22  O   UNL     1      33.146  -9.962 -23.961  0.00  0.00    -0.226 OA
ATOM     23  N   UNL     1      32.069 -10.391 -21.950  0.00  0.00    -0.271 N 
ATOM     24  C   UNL     1      32.768  -9.607 -22.848  0.00  0.00    +0.401 C 
ATOM     25  H   UNL     1      31.820  -9.992 -21.084  0.00  0.00    +0.153 HD
BRANCH  24  26
ATOM     26  O   UNL     1      32.981  -8.366 -22.317  0.00  0.00    -0.442 OA
BRANCH  26  27
ATOM     27  C   UNL     1      32.324  -7.281 -22.981  0.00  0.00    +0.138 C 
ATOM     28  C   UNL     1      31.002  -7.790 -23.554  0.00  0.00    +0.044 C 
ATOM     29  C   UNL     1      32.074  -6.189 -21.943  0.00  0.00    +0.044 C 
ATOM     30  C   UNL     1      33.237  -6.766 -24.092  0.00  0.00    +0.044 C 
ENDBRANCH  26  27
ENDBRANCH  24  26
ENDBRANCH  21  23
ENDBRANCH  20  21
ENDBRANCH  19  20
ENDBRANCH  18  19
ENDBRANCH  17  18
ENDBRANCH   1  17
TORSDOF 12
ENDMDL
MODEL 3
REMARK VINA RESULT:      -9.0      3.068      9.311
REMARK  Name = 24768548
REMARK  12 active torsions:
REMARK  status: ('A' for Active; 'I' for Inactive)
REMARK    1  A    between atoms: C_1  and  C_2
REMARK    2  A    between atoms: C_1  and  C_17
REMARK    3  A    between atoms: C_2  and  C_4
REMARK    4  A    between atoms: C_2  and  C_14
REMARK    5  A    between atoms: C_14  and  O_15
REMARK    6  A    between atoms: C_17  and  C_18
REMARK    7  A    between atoms: C_18  and  C_19
REMARK    8  A    between atoms: C_19  and  C_20
REMARK    9  A    between atoms: C_20  and  C_21
REMARK   10  A    between atoms: C_21  and  N_23
REMARK   11  A    between atoms: C_24  and  O_26
REMARK   12  A    between atoms: O_26  and  C_27
REMARK                            x       y       z     vdW  Elec       q    Type
REMARK                         _______ _______ _______ _____ _____    ______ ____
ROOT
ATOM      1  C   UNL     1      35.212 -16.727 -23.159  0.00  0.00    +0.016 C 
ENDROOT
BRANCH   1   2
ATOM      2  C   UNL     1      34.390 -17.316 -21.990  0.00  0.00    +0.122 C 
BRANCH   2   4
ATOM      3  N   UNL     1      36.649 -19.837 -20.519  0.00  0.00    -0.312 N 
ATOM      4  C   UNL     1      35.075 -18.488 -21.312  0.00  0.00    +0.004 C 
ATOM      5  C   UNL     1      34.438 -19.599 -20.692  0.00  0.00    +0.011 C 
ATOM      6  C   UNL     1      36.434 -18.663 -21.189  0.00  0.00    +0.058 C 
ATOM      7  C   UNL     1      35.448 -20.430 -20.203  0.00  0.00    +0.048 C 
ATOM      8  C   UNL     1      33.094 -19.979 -20.501  0.00  0.00    +0.001 C 
ATOM      9  C   UNL     1      35.180 -21.627 -19.528  0.00  0.00    +0.015 C 
ATOM     10  C   UNL     1      32.812 -21.173 -19.827  0.00  0.00    +0.000 C 
ATOM     11  C   UNL     1      33.841 -21.983 -19.349  0.00  0.00    +0.001 C 
ATOM     12  H   UNL     1      37.534 -20.204 -20.296  0.00  0.00    +0.152 HD
ENDBRANCH   2   4
BRANCH   2  14
ATOM     13  O   UNL     1      34.883 -15.669 -20.257  0.00  0.00    -0.250 OA
ATOM     14  C   UNL     1      34.066 -16.222 -20.980  0.00  0.00    +0.317 C 
BRANCH  14  15
ATOM     15  O   UNL     1      32.744 -15.907 -20.970  0.00  0.00    -0.480 OA
ATOM     16  H   UNL     1      32.240 -16.024 -20.188  0.00  0.00    +0.295 HD
ENDBRANCH  14  15
ENDBRANCH   2  14
ENDBRANCH   1   2
BRANCH   1  17
ATOM     17  C   UNL     1      34.479 -16.818 -24.504  0.00  0.00    +0.001 C 
BRANCH  17  18
ATOM     18  C   UNL     1      33.751 -15.526 -24.890  0.00  0.00    +0.000 C 
BRANCH  18  19
ATOM     19  C   UNL     1      34.113 -14.336 -23.996  0.00  0.00    +0.002 C 
BRANCH  19  20
ATOM     20  C   UNL     1      33.407 -13.039 -24.400  0.00  0.00    +0.021 C 
BRANCH  20  21
ATOM     21  C   UNL     1      33.423 -11.974 -23.309  0.00  0.00    +0.093 C 
BRANCH  21  23
ATOM     22  O   UNL     1      32.290  -9.680 -21.935  0.00  0.00    -0.226 OA
ATOM     23  N   UNL     1      33.160 -10.666 -23.847  0.00  0.00    -0.271 N 
ATOM     24  C   UNL     1      32.615  -9.627 -23.117  0.00  0.00    +0.401 C 
ATOM     25  H   UNL     1      33.380 -10.501 -24.793  0.00  0.00    +0.153 HD
BRANCH  24  26
ATOM     26  O   UNL     1      32.488  -8.519 -23.907  0.00  0.00    -0.442 OA
BRANCH  26  27
ATOM     27  C   UNL     1      33.260  -7.379 -23.513  0.00  0.00    +0.138 C 
ATOM     28  C   UNL     1      33.075  -6.281 -24.559  0.00  0.00    +0.044 C 
ATOM     29  C   UNL     1      32.742  -6.919 -22.152  0.00  0.00    +0.044 C 
ATOM     30  C   UNL     1      34.727  -7.795 -23.415  0.00  0.00    +0.044 C 
ENDBRANCH  26  27
ENDBRANCH  24  26
ENDBRANCH  21  23
ENDBRANCH  20  21
ENDBRANCH  19  20
ENDBRANCH  18  19
ENDBRANCH  17  18
ENDBRANCH   1  17
TORSDOF 12
ENDMDL
MODEL 4
REMARK VINA RESULT:      -8.9      3.368      9.913
REMARK  Name = 24768548
REMARK  12 active torsions:
REMARK  status: ('A' for Active; 'I' for Inactive)
REMARK    1  A    between atoms: C_1  and  C_2
REMARK    2  A    between atoms: C_1  and  C_17
REMARK    3  A    between atoms: C_2  and  C_4
REMARK    4  A    between atoms: C_2  and  C_14
REMARK    5  A    between atoms: C_14  and  O_15
REMARK    6  A    between atoms: C_17  and  C_18
REMARK    7  A    between atoms: C_18  and  C_19
REMARK    8  A    between atoms: C_19  and  C_20
REMARK    9  A    between atoms: C_20  and  C_21
REMARK   10  A    between atoms: C_21  and  N_23
REMARK   11  A    between atoms: C_24  and  O_26
REMARK   12  A    between atoms: O_26  and  C_27
REMARK                            x       y       z     vdW  Elec       q    Type
REMARK                         _______ _______ _______ _____ _____    ______ ____
ROOT
ATOM      1  C   UNL     1      34.091 -16.623 -21.994  0.00  0.00    +0.016 C 
ENDROOT
BRANCH   1   2
ATOM      2  C   UNL     1      34.853 -17.966 -22.035  0.00  0.00    +0.122 C 
BRANCH   2   4
ATOM      3  N   UNL     1      32.592 -20.354 -20.360  0.00  0.00    -0.312 N 
ATOM      4  C   UNL     1      34.166 -19.065 -21.246  0.00  0.00    +0.004 C 
ATOM      5  C   UNL     1      34.802 -20.066 -20.459  0.00  0.00    +0.011 C 
ATOM      6  C   UNL     1      32.809 -19.268 -21.166  0.00  0.00    +0.058 C 
ATOM      7  C   UNL     1      33.791 -20.862 -19.915  0.00  0.00    +0.048 C 
ATOM      8  C   UNL     1      36.143 -20.372 -20.156  0.00  0.00    +0.001 C 
ATOM      9  C   UNL     1      34.057 -21.953 -19.079  0.00  0.00    +0.015 C 
ATOM     10  C   UNL     1      36.424 -21.461 -19.322  0.00  0.00    +0.000 C 
ATOM     11  C   UNL     1      35.395 -22.238 -18.794  0.00  0.00    +0.001 C 
ATOM     12  H   UNL     1      31.707 -20.719 -20.133  0.00  0.00    +0.152 HD
ENDBRANCH   2   4
BRANCH   2  14
ATOM     13  O   UNL     1      34.922 -19.532 -23.908  0.00  0.00    -0.250 OA
ATOM     14  C   UNL     1      35.070 -18.394 -23.481  0.00  0.00    +0.317 C 
BRANCH  14  15
ATOM     15  O   UNL     1      35.446 -17.355 -24.274  0.00  0.00    -0.480 OA
ATOM     16  H   UNL     1      36.237 -16.887 -24.089  0.00  0.00    +0.295 HD
ENDBRANCH  14  15
ENDBRANCH   2  14
ENDBRANCH   1   2
BRANCH   1  17
ATOM     17  C   UNL     1      34.503 -15.743 -20.805  0.00  0.00    +0.001 C 
BRANCH  17  18
ATOM     18  C   UNL     1      33.863 -14.351 -20.827  0.00  0.00    +0.000 C 
BRANCH  18  19
ATOM     19  C   UNL     1      32.525 -14.311 -21.571  0.00  0.00    +0.002 C 
BRANCH  19  20
ATOM     20  C   UNL     1      32.462 -13.223 -22.647  0.00  0.00    +0.021 C 
BRANCH  20  21
ATOM     21  C   UNL     1      31.674 -11.990 -22.219  0.00  0.00    +0.093 C 
BRANCH  21  23
ATOM     22  O   UNL     1      31.674  -9.478 -20.760  0.00  0.00    -0.226 OA
ATOM     23  N   UNL     1      32.372 -10.777 -22.551  0.00  0.00    -0.271 N 
ATOM     24  C   UNL     1      32.315  -9.622 -21.796  0.00  0.00    +0.401 C 
ATOM     25  H   UNL     1      32.923 -10.770 -23.368  0.00  0.00    +0.153 HD
BRANCH  24  26
ATOM     26  O   UNL     1      33.083  -8.650 -22.373  0.00  0.00    -0.442 OA
BRANCH  26  27
ATOM     27  C   UNL     1      32.375  -7.523 -22.900  0.00  0.00    +0.138 C 
ATOM     28  C   UNL     1      32.126  -6.530 -21.765  0.00  0.00    +0.044 C 
ATOM     29  C   UNL     1      33.249  -6.894 -23.982  0.00  0.00    +0.044 C 
ATOM     30  C   UNL     1      31.055  -8.012 -23.494  0.00  0.00    +0.044 C 
ENDBRANCH  26  27
ENDBRANCH  24  26
ENDBRANCH  21  23
ENDBRANCH  20  21
ENDBRANCH  19  20
ENDBRANCH  18  19
ENDBRANCH  17  18
ENDBRANCH   1  17
TORSDOF 12
ENDMDL
MODEL 5
REMARK VINA RESULT:      -8.9      8.018     13.627
REMARK  Name = 24768548
REMARK  12 active torsions:
REMARK  status: ('A' for Active; 'I' for Inactive)
REMARK    1  A    between atoms: C_1  and  C_2
REMARK    2  A    between atoms: C_1  and  C_17
REMARK    3  A    between atoms: C_2  and  C_4
REMARK    4  A    between atoms: C_2  and  C_14
REMARK    5  A    between atoms: C_14  and  O_15
REMARK    6  A    between atoms: C_17  and  C_18
REMARK    7  A    between atoms: C_18  and  C_19
REMARK    8  A    between atoms: C_19  and  C_20
REMARK    9  A    between atoms: C_20  and  C_21
REMARK   10  A    between atoms: C_21  and  N_23
REMARK   11  A    between atoms: C_24  and  O_26
REMARK   12  A    between atoms: O_26  and  C_27
REMARK                            x       y       z     vdW  Elec       q    Type
REMARK                         _______ _______ _______ _____ _____    ______ ____
ROOT
ATOM      1  C   UNL     1      33.924 -23.287 -17.215  0.00  0.00    +0.016 C 
ENDROOT
BRANCH   1   2
ATOM      2  C   UNL     1      33.866 -23.181 -15.675  0.00  0.00    +0.122 C 
BRANCH   2   4
ATOM      3  N   UNL     1      31.357 -25.135 -13.802  0.00  0.00    -0.312 N 
ATOM      4  C   UNL     1      32.645 -23.853 -15.077  0.00  0.00    +0.004 C 
ATOM      5  C   UNL     1      31.292 -23.659 -15.474  0.00  0.00    +0.011 C 
ATOM      6  C   UNL     1      32.653 -24.765 -14.048  0.00  0.00    +0.058 C 
ATOM      7  C   UNL     1      30.505 -24.476 -14.658  0.00  0.00    +0.048 C 
ATOM      8  C   UNL     1      30.659 -22.867 -16.452  0.00  0.00    +0.001 C 
ATOM      9  C   UNL     1      29.111 -24.538 -14.772  0.00  0.00    +0.015 C 
ATOM     10  C   UNL     1      29.266 -22.919 -16.577  0.00  0.00    +0.000 C 
ATOM     11  C   UNL     1      28.506 -23.743 -15.748  0.00  0.00    +0.001 C 
ATOM     12  H   UNL     1      31.077 -25.780 -13.113  0.00  0.00    +0.152 HD
ENDBRANCH   2   4
BRANCH   2  14
ATOM     13  O   UNL     1      35.702 -24.772 -15.430  0.00  0.00    -0.250 OA
ATOM     14  C   UNL     1      35.145 -23.744 -15.068  0.00  0.00    +0.317 C 
BRANCH  14  15
ATOM     15  O   UNL     1      35.624 -22.965 -14.062  0.00  0.00    -0.480 OA
ATOM     16  H   UNL     1      36.168 -22.227 -14.259  0.00  0.00    +0.295 HD
ENDBRANCH  14  15
ENDBRANCH   2  14
ENDBRANCH   1   2
BRANCH   1  17
ATOM     17  C   UNL     1      35.032 -22.420 -17.829  0.00  0.00    +0.001 C 
BRANCH  17  18
ATOM     18  C   UNL     1      34.705 -21.925 -19.242  0.00  0.00    +0.000 C 
BRANCH  18  19
ATOM     19  C   UNL     1      33.270 -21.411 -19.387  0.00  0.00    +0.002 C 
BRANCH  19  20
ATOM     20  C   UNL     1      33.089 -20.441 -20.559  0.00  0.00    +0.021 C 
BRANCH  20  21
ATOM     21  C   UNL     1      34.393 -19.801 -21.023  0.00  0.00    +0.093 C 
BRANCH  21  23
ATOM     22  O   UNL     1      35.477 -17.167 -20.456  0.00  0.00    -0.226 OA
ATOM     23  N   UNL     1      34.152 -18.576 -21.738  0.00  0.00    -0.271 N 
ATOM     24  C   UNL     1      34.712 -17.360 -21.397  0.00  0.00    +0.401 C 
ATOM     25  H   UNL     1      33.550 -18.606 -22.517  0.00  0.00    +0.153 HD
BRANCH  24  26
ATOM     26  O   UNL     1      34.291 -16.393 -22.265  0.00  0.00    -0.442 OA
BRANCH  26  27
ATOM     27  C   UNL     1      33.582 -15.294 -21.681  0.00  0.00    +0.138 C 
ATOM     28  C   UNL     1      34.547 -14.508 -20.795  0.00  0.00    +0.044 C 
ATOM     29  C   UNL     1      33.065 -14.420 -22.821  0.00  0.00    +0.044 C 
ATOM     30  C   UNL     1      32.418 -15.848 -20.859  0.00  0.00    +0.044 C 
ENDBRANCH  26  27
ENDBRANCH  24  26
ENDBRANCH  21  23
ENDBRANCH  20  21
ENDBRANCH  19  20
ENDBRANCH  18  19
ENDBRANCH  17  18
ENDBRANCH   1  17
TORSDOF 12
ENDMDL
MODEL 6
REMARK VINA RESULT:      -8.8      7.445     12.314
REMARK  Name = 24768548
REMARK  12 active torsions:
REMARK  status: ('A' for Active; 'I' for Inactive)
REMARK    1  A    between atoms: C_1  and  C_2
REMARK    2  A    between atoms: C_1  and  C_17
REMARK    3  A    between atoms: C_2  and  C_4
REMARK    4  A    between atoms: C_2  and  C_14
REMARK    5  A    between atoms: C_14  and  O_15
REMARK    6  A    between atoms: C_17  and  C_18
REMARK    7  A    between atoms: C_18  and  C_19
REMARK    8  A    between atoms: C_19  and  C_20
REMARK    9  A    between atoms: C_20  and  C_21
REMARK   10  A    between atoms: C_21  and  N_23
REMARK   11  A    between atoms: C_24  and  O_26
REMARK   12  A    between atoms: O_26  and  C_27
REMARK                            x       y       z     vdW  Elec       q    Type
REMARK                         _______ _______ _______ _____ _____    ______ ____
ROOT
ATOM      1  C   UNL     1      33.905 -19.789 -20.362  0.00  0.00    +0.016 C 
ENDROOT
BRANCH   1   2
ATOM      2  C   UNL     1      35.071 -19.809 -21.376  0.00  0.00    +0.122 C 
BRANCH   2   4
ATOM      3  N   UNL     1      34.933 -17.646 -24.363  0.00  0.00    -0.312 N 
ATOM      4  C   UNL     1      34.976 -18.707 -22.414  0.00  0.00    +0.004 C 
ATOM      5  C   UNL     1      34.779 -17.320 -22.162  0.00  0.00    +0.011 C 
ATOM      6  C   UNL     1      35.067 -18.876 -23.776  0.00  0.00    +0.058 C 
ATOM      7  C   UNL     1      34.756 -16.678 -23.402  0.00  0.00    +0.048 C 
ATOM      8  C   UNL     1      34.619 -16.548 -20.995  0.00  0.00    +0.001 C 
ATOM      9  C   UNL     1      34.579 -15.296 -23.533  0.00  0.00    +0.015 C 
ATOM     10  C   UNL     1      34.440 -15.164 -21.111  0.00  0.00    +0.000 C 
ATOM     11  C   UNL     1      34.420 -14.550 -22.362  0.00  0.00    +0.001 C 
ATOM     12  H   UNL     1      34.959 -17.480 -25.333  0.00  0.00    +0.152 HD
ENDBRANCH   2   4
BRANCH   2  14
ATOM     13  O   UNL     1      37.390 -19.131 -21.021  0.00  0.00    -0.250 OA
ATOM     14  C   UNL     1      36.402 -19.741 -20.636  0.00  0.00    +0.317 C 
BRANCH  14  15
ATOM     15  O   UNL     1      36.378 -20.440 -19.470  0.00  0.00    -0.480 OA
ATOM     16  H   UNL     1      37.145 -20.894 -19.179  0.00  0.00    +0.295 HD
ENDBRANCH  14  15
ENDBRANCH   2  14
ENDBRANCH   1   2
BRANCH   1  17
ATOM     17  C   UNL     1      33.160 -21.128 -20.289  0.00  0.00    +0.001 C 
BRANCH  17  18
ATOM     18  C   UNL     1      33.025 -21.673 -18.863  0.00  0.00    +0.000 C 
BRANCH  18  19
ATOM     19  C   UNL     1      33.890 -22.909 -18.602  0.00  0.00    +0.002 C 
BRANCH  19  20
ATOM     20  C   UNL     1      34.166 -23.153 -17.115  0.00  0.00    +0.021 C 
BRANCH  20  21
ATOM     21  C   UNL     1      35.507 -22.599 -16.648  0.00  0.00    +0.093 C 
BRANCH  21  23
ATOM     22  O   UNL     1      38.221 -23.122 -15.756  0.00  0.00    -0.226 OA
ATOM     23  N   UNL     1      35.928 -23.210 -15.415  0.00  0.00    -0.271 N 
ATOM     24  C   UNL     1      37.248 -23.422 -15.070  0.00  0.00    +0.401 C 
ATOM     25  H   UNL     1      35.232 -23.495 -14.779  0.00  0.00    +0.153 HD
BRANCH  24  26
ATOM     26  O   UNL     1      37.320 -24.018 -13.843  0.00  0.00    -0.442 OA
BRANCH  26  27
ATOM     27  C   UNL     1      37.754 -25.383 -13.834  0.00  0.00    +0.138 C 
ATOM     28  C   UNL     1      37.270 -26.039 -12.542  0.00  0.00    +0.044 C 
ATOM     29  C   UNL     1      37.138 -26.070 -15.051  0.00  0.00    +0.044 C 
ATOM     30  C   UNL     1      39.280 -25.408 -13.919  0.00  0.00    +0.044 C 
ENDBRANCH  26  27
ENDBRANCH  24  26
ENDBRANCH  21  23
ENDBRANCH  20  21
ENDBRANCH  19  20
ENDBRANCH  18  19
ENDBRANCH  17  18
ENDBRANCH   1  17
TORSDOF 12
ENDMDL
MODEL 7
REMARK VINA RESULT:      -8.7      7.359     12.312
REMARK  Name = 24768548
REMARK  12 active torsions:
REMARK  status: ('A' for Active; 'I' for Inactive)
REMARK    1  A    between atoms: C_1  and  C_2
REMARK    2  A    between atoms: C_1  and  C_17
REMARK    3  A    between atoms: C_2  and  C_4
REMARK    4  A    between atoms: C_2  and  C_14
REMARK    5  A    between atoms: C_14  and  O_15
REMARK    6  A    between atoms: C_17  and  C_18
REMARK    7  A    between atoms: C_18  and  C_19
REMARK    8  A    between atoms: C_19  and  C_20
REMARK    9  A    between atoms: C_20  and  C_21
REMARK   10  A    between atoms: C_21  and  N_23
REMARK   11  A    between atoms: C_24  and  O_26
REMARK   12  A    between atoms: O_26  and  C_27
REMARK                            x       y       z     vdW  Elec       q    Type
REMARK                         _______ _______ _______ _____ _____    ______ ____
ROOT
ATOM      1  C   UNL     1      35.444 -21.098 -20.419  0.00  0.00    +0.016 C 
ENDROOT
BRANCH   1   2
ATOM      2  C   UNL     1      34.480 -19.891 -20.435  0.00  0.00    +0.122 C 
BRANCH   2   4
ATOM      3  N   UNL     1      34.926 -18.389 -23.777  0.00  0.00    -0.312 N 
ATOM      4  C   UNL     1      34.633 -19.023 -21.670  0.00  0.00    +0.004 C 
ATOM      5  C   UNL     1      34.587 -17.601 -21.718  0.00  0.00    +0.011 C 
ATOM      6  C   UNL     1      34.842 -19.478 -22.951  0.00  0.00    +0.058 C 
ATOM      7  C   UNL     1      34.773 -17.230 -23.051  0.00  0.00    +0.048 C 
ATOM      8  C   UNL     1      34.405 -16.592 -20.751  0.00  0.00    +0.001 C 
ATOM      9  C   UNL     1      34.787 -15.893 -23.468  0.00  0.00    +0.015 C 
ATOM     10  C   UNL     1      34.416 -15.252 -21.154  0.00  0.00    +0.000 C 
ATOM     11  C   UNL     1      34.603 -14.910 -22.492  0.00  0.00    +0.001 C 
ATOM     12  H   UNL     1      35.073 -18.430 -24.749  0.00  0.00    +0.152 HD
ENDBRANCH   2   4
BRANCH   2  14
ATOM     13  O   UNL     1      32.053 -19.654 -20.314  0.00  0.00    -0.250 OA
ATOM     14  C   UNL     1      33.042 -20.374 -20.289  0.00  0.00    +0.317 C 
BRANCH  14  15
ATOM     15  O   UNL     1      32.967 -21.722 -20.132  0.00  0.00    -0.480 OA
ATOM     16  H   UNL     1      33.513 -22.286 -20.645  0.00  0.00    +0.295 HD
ENDBRANCH  14  15
ENDBRANCH   2  14
ENDBRANCH   1   2
BRANCH   1  17
ATOM     17  C   UNL     1      36.240 -21.205 -19.111  0.00  0.00    +0.001 C 
BRANCH  17  18
ATOM     18  C   UNL     1      35.563 -22.086 -18.056  0.00  0.00    +0.000 C 
BRANCH  18  19
ATOM     19  C   UNL     1      36.352 -22.180 -16.748  0.00  0.00    +0.002 C 
BRANCH  19  20
ATOM     20  C   UNL     1      36.039 -23.444 -15.941  0.00  0.00    +0.021 C 
BRANCH  20  21
ATOM     21  C   UNL     1      35.550 -23.157 -14.526  0.00  0.00    +0.093 C 
BRANCH  21  23
ATOM     22  O   UNL     1      33.403 -24.478 -13.084  0.00  0.00    -0.226 OA
ATOM     23  N   UNL     1      34.154 -22.811 -14.513  0.00  0.00    -0.271 N 
ATOM     24  C   UNL     1      33.196 -23.499 -13.794  0.00  0.00    +0.401 C 
ATOM     25  H   UNL     1      33.864 -22.037 -15.049  0.00  0.00    +0.153 HD
BRANCH  24  26
ATOM     26  O   UNL     1      31.969 -22.928 -13.987  0.00  0.00    -0.442 OA
BRANCH  26  27
ATOM     27  C   UNL     1      31.146 -23.537 -14.988  0.00  0.00    +0.138 C 
ATOM     28  C   UNL     1      29.828 -22.768 -15.067  0.00  0.00    +0.044 C 
ATOM     29  C   UNL     1      31.897 -23.456 -16.315  0.00  0.00    +0.044 C 
ATOM     30  C   UNL     1      30.903 -24.994 -14.596  0.00  0.00    +0.044 C 
ENDBRANCH  26  27
ENDBRANCH  24  26
ENDBRANCH  21  23
ENDBRANCH  20  21
ENDBRANCH  19  20
ENDBRANCH  18  19
ENDBRANCH  17  18
ENDBRANCH   1  17
TORSDOF 12
ENDMDL
MODEL 8
REMARK VINA RESULT:      -8.7      2.184      4.178
REMARK  Name = 24768548
REMARK  12 active torsions:
REMARK  status: ('A' for Active; 'I' for Inactive)
REMARK    1  A    between atoms: C_1  and  C_2
REMARK    2  A    between atoms: C_1  and  C_17
REMARK    3  A    between atoms: C_2  and  C_4
REMARK    4  A    between atoms: C_2  and  C_14
REMARK    5  A    between atoms: C_14  and  O_15
REMARK    6  A    between atoms: C_17  and  C_18
REMARK    7  A    between atoms: C_18  and  C_19
REMARK    8  A    between atoms: C_19  and  C_20
REMARK    9  A    between atoms: C_20  and  C_21
REMARK   10  A    between atoms: C_21  and  N_23
REMARK   11  A    between atoms: C_24  and  O_26
REMARK   12  A    between atoms: O_26  and  C_27
REMARK                            x       y       z     vdW  Elec       q    Type
REMARK                         _______ _______ _______ _____ _____    ______ ____
ROOT
ATOM      1  C   UNL     1      31.999  -9.753 -21.897  0.00  0.00    +0.016 C 
ENDROOT
BRANCH   1   2
ATOM      2  C   UNL     1      32.700  -8.409 -21.598  0.00  0.00    +0.122 C 
BRANCH   2   4
ATOM      3  N   UNL     1      30.981  -5.641 -23.331  0.00  0.00    -0.312 N 
ATOM      4  C   UNL     1      32.220  -7.277 -22.488  0.00  0.00    +0.004 C 
ATOM      5  C   UNL     1      32.892  -6.752 -23.627  0.00  0.00    +0.011 C 
ATOM      6  C   UNL     1      31.049  -6.574 -22.331  0.00  0.00    +0.058 C 
ATOM      7  C   UNL     1      32.092  -5.727 -24.137  0.00  0.00    +0.048 C 
ATOM      8  C   UNL     1      34.106  -7.052 -24.276  0.00  0.00    +0.001 C 
ATOM      9  C   UNL     1      32.449  -4.983 -25.269  0.00  0.00    +0.015 C 
ATOM     10  C   UNL     1      34.475  -6.316 -25.408  0.00  0.00    +0.000 C 
ATOM     11  C   UNL     1      33.658  -5.298 -25.895  0.00  0.00    +0.001 C 
ATOM     12  H   UNL     1      30.243  -5.001 -23.455  0.00  0.00    +0.152 HD
ENDBRANCH   2   4
BRANCH   2  14
ATOM     13  O   UNL     1      31.721  -8.567 -19.367  0.00  0.00    -0.250 OA
ATOM     14  C   UNL     1      32.528  -8.050 -20.127  0.00  0.00    +0.317 C 
BRANCH  14  15
ATOM     15  O   UNL     1      33.392  -7.077 -19.731  0.00  0.00    -0.480 OA
ATOM     16  H   UNL     1      33.279  -6.198 -20.034  0.00  0.00    +0.295 HD
ENDBRANCH  14  15
ENDBRANCH   2  14
ENDBRANCH   1   2
BRANCH   1  17
ATOM     17  C   UNL     1      32.199 -10.217 -23.346  0.00  0.00    +0.001 C 
BRANCH  17  18
ATOM     18  C   UNL     1      33.650 -10.587 -23.673  0.00  0.00    +0.000 C 
BRANCH  18  19
ATOM     19  C   UNL     1      33.815 -12.034 -24.145  0.00  0.00    +0.002 C 
BRANCH  19  20
ATOM     20  C   UNL     1      33.135 -13.053 -23.224  0.00  0.00    +0.021 C 
BRANCH  20  21
ATOM     21  C   UNL     1      33.137 -14.472 -23.782  0.00  0.00    +0.093 C 
BRANCH  21  23
ATOM     22  O   UNL     1      35.598 -15.964 -23.390  0.00  0.00    -0.226 OA
ATOM     23  N   UNL     1      33.427 -15.439 -22.758  0.00  0.00    -0.271 N 
ATOM     24  C   UNL     1      34.632 -16.106 -22.646  0.00  0.00    +0.401 C 
ATOM     25  H   UNL     1      32.725 -15.639 -22.098  0.00  0.00    +0.153 HD
BRANCH  24  26
ATOM     26  O   UNL     1      34.597 -16.955 -21.576  0.00  0.00    -0.442 OA
BRANCH  26  27
ATOM     27  C   UNL     1      34.836 -18.337 -21.865  0.00  0.00    +0.138 C 
ATOM     28  C   UNL     1      34.687 -18.551 -23.371  0.00  0.00    +0.044 C 
ATOM     29  C   UNL     1      36.258 -18.662 -21.414  0.00  0.00    +0.044 C 
ATOM     30  C   UNL     1      33.822 -19.178 -21.092  0.00  0.00    +0.044 C 
ENDBRANCH  26  27
ENDBRANCH  24  26
ENDBRANCH  21  23
ENDBRANCH  20  21
ENDBRANCH  19  20
ENDBRANCH  18  19
ENDBRANCH  17  18
ENDBRANCH   1  17
TORSDOF 12
ENDMDL
MODEL 9
REMARK VINA RESULT:      -8.7      2.205      8.190
REMARK  Name = 24768548
REMARK  12 active torsions:
REMARK  status: ('A' for Active; 'I' for Inactive)
REMARK    1  A    between atoms: C_1  and  C_2
REMARK    2  A    between atoms: C_1  and  C_17
REMARK    3  A    between atoms: C_2  and  C_4
REMARK    4  A    between atoms: C_2  and  C_14
REMARK    5  A    between atoms: C_14  and  O_15
REMARK    6  A    between atoms: C_17  and  C_18
REMARK    7  A    between atoms: C_18  and  C_19
REMARK    8  A    between atoms: C_19  and  C_20
REMARK    9  A    between atoms: C_20  and  C_21
REMARK   10  A    between atoms: C_21  and  N_23
REMARK   11  A    between atoms: C_24  and  O_26
REMARK   12  A    between atoms: O_26  and  C_27
REMARK                            x       y       z     vdW  Elec       q    Type
REMARK                         _______ _______ _______ _____ _____    ______ ____
ROOT
ATOM      1  C   UNL     1      32.367 -13.804 -23.651  0.00  0.00    +0.016 C 
ENDROOT
BRANCH   1   2
ATOM      2  C   UNL     1      33.541 -14.129 -24.601  0.00  0.00    +0.122 C 
BRANCH   2   4
ATOM      3  N   UNL     1      34.787 -17.593 -24.860  0.00  0.00    -0.312 N 
ATOM      4  C   UNL     1      34.080 -15.535 -24.422  0.00  0.00    +0.004 C 
ATOM      5  C   UNL     1      34.451 -16.150 -23.193  0.00  0.00    +0.011 C 
ATOM      6  C   UNL     1      34.299 -16.446 -25.429  0.00  0.00    +0.058 C 
ATOM      7  C   UNL     1      34.890 -17.441 -23.497  0.00  0.00    +0.048 C 
ATOM      8  C   UNL     1      34.452 -15.732 -21.847  0.00  0.00    +0.001 C 
ATOM      9  C   UNL     1      35.334 -18.337 -22.517  0.00  0.00    +0.015 C 
ATOM     10  C   UNL     1      34.894 -16.618 -20.858  0.00  0.00    +0.000 C 
ATOM     11  C   UNL     1      35.328 -17.900 -21.190  0.00  0.00    +0.001 C 
ATOM     12  H   UNL     1      35.029 -18.408 -25.356  0.00  0.00    +0.152 HD
ENDBRANCH   2   4
BRANCH   2  14
ATOM     13  O   UNL     1      33.677 -13.132 -26.826  0.00  0.00    -0.250 OA
ATOM     14  C   UNL     1      33.118 -13.892 -26.046  0.00  0.00    +0.317 C 
BRANCH  14  15
ATOM     15  O   UNL     1      32.035 -14.636 -26.393  0.00  0.00    -0.480 OA
ATOM     16  H   UNL     1      31.750 -15.337 -25.840  0.00  0.00    +0.295 HD
ENDBRANCH  14  15
ENDBRANCH   2  14
ENDBRANCH   1   2
BRANCH   1  17
ATOM     17  C   UNL     1      32.619 -12.549 -22.804  0.00  0.00    +0.001 C 
BRANCH  17  18
ATOM     18  C   UNL     1      31.886 -12.565 -21.458  0.00  0.00    +0.000 C 
BRANCH  18  19
ATOM     19  C   UNL     1      31.004 -11.334 -21.233  0.00  0.00    +0.002 C 
BRANCH  19  20
ATOM     20  C   UNL     1      30.886 -10.934 -19.759  0.00  0.00    +0.021 C 
BRANCH  20  21
ATOM     21  C   UNL     1      31.744  -9.730 -19.386  0.00  0.00    +0.093 C 
BRANCH  21  23
ATOM     22  O   UNL     1      32.745  -7.021 -19.688  0.00  0.00    -0.226 OA
ATOM     23  N   UNL     1      32.357  -9.142 -20.545  0.00  0.00    -0.271 N 
ATOM     24  C   UNL     1      32.807  -7.837 -20.602  0.00  0.00    +0.401 C 
ATOM     25  H   UNL     1      32.463  -9.703 -21.348  0.00  0.00    +0.153 HD
BRANCH  24  26
ATOM     26  O   UNL     1      33.338  -7.580 -21.835  0.00  0.00    -0.442 OA
BRANCH  26  27
ATOM     27  C   UNL     1      32.439  -7.025 -22.800  0.00  0.00    +0.138 C 
ATOM     28  C   UNL     1      31.344  -8.050 -23.092  0.00  0.00    +0.044 C 
ATOM     29  C   UNL     1      31.840  -5.756 -22.197  0.00  0.00    +0.044 C 
ATOM     30  C   UNL     1      33.228  -6.695 -24.067  0.00  0.00    +0.044 C 
ENDBRANCH  26  27
ENDBRANCH  24  26
ENDBRANCH  21  23
ENDBRANCH  20  21
ENDBRANCH  19  20
ENDBRANCH  18  19
ENDBRANCH  17  18
ENDBRANCH   1  17
TORSDOF 12
ENDMDL
