MODEL 1
REMARK VINA RESULT:      -8.0      0.000      0.000
REMARK  Name = 9870520
REMARK  7 active torsions:
REMARK  status: ('A' for Active; 'I' for Inactive)
REMARK    1  A    between atoms: N_2  and  C_34
REMARK    2  A    between atoms: C_6  and  N_14
REMARK    3  A    between atoms: C_8  and  C_29
REMARK    4  A    between atoms: N_15  and  C_19
REMARK    5  A    between atoms: C_22  and  N_25
REMARK    6  A    between atoms: C_34  and  C_36
REMARK    7  A    between atoms: C_36  and  C_37
REMARK                            x       y       z     vdW  Elec       q    Type
REMARK                         _______ _______ _______ _____ _____    ______ ____
ROOT
ATOM      1  O   UNL     1      33.353 -24.501 -16.549  0.00  0.00    -0.271 OA
ATOM      2  N   UNL     1      34.017 -24.340 -14.326  0.00  0.00    -0.248 N 
ATOM      3  N   UNL     1      36.438 -23.784 -16.075  0.00  0.00    -0.242 NA
ATOM      4  C   UNL     1      34.970 -23.914 -13.339  0.00  0.00    +0.056 C 
ATOM      5  C   UNL     1      34.108 -24.032 -15.693  0.00  0.00    +0.272 C 
ATOM      6  C   UNL     1      35.195 -23.041 -16.071  0.00  0.00    +0.256 C 
ATOM      7  C   UNL     1      36.342 -23.741 -13.618  0.00  0.00    +0.032 C 
ATOM      8  C   UNL     1      36.946 -24.107 -14.934  0.00  0.00    +0.097 C 
ATOM      9  C   UNL     1      34.539 -23.669 -12.021  0.00  0.00    +0.015 C 
ATOM     10  C   UNL     1      37.219 -23.265 -12.626  0.00  0.00    +0.003 C 
ATOM     11  C   UNL     1      35.418 -23.216 -11.035  0.00  0.00    +0.001 C 
ATOM     12  C   UNL     1      36.756 -23.002 -11.341  0.00  0.00    +0.000 C 
ENDROOT
BRANCH   6  14
ATOM     13  O   UNL     1      36.724 -21.090 -17.504  0.00  0.00    -0.252 OA
ATOM     14  N   UNL     1      34.923 -22.535 -17.391  0.00  0.00    -0.264 N 
ATOM     15  N   UNL     1      35.216 -21.278 -19.294  0.00  0.00    -0.268 N 
ATOM     16  C   UNL     1      35.724 -21.576 -18.025  0.00  0.00    +0.306 C 
ATOM     17  H   UNL     1      34.135 -22.880 -17.871  0.00  0.00    +0.153 HD
ATOM     18  H   UNL     1      34.400 -21.763 -19.558  0.00  0.00    +0.156 HD
BRANCH  15  19
ATOM     19  C   UNL     1      35.734 -20.367 -20.243  0.00  0.00    +0.053 C 
ATOM     20  C   UNL     1      34.876 -19.780 -21.158  0.00  0.00    +0.029 C 
ATOM     21  C   UNL     1      37.089 -20.080 -20.239  0.00  0.00    +0.015 C 
ATOM     22  C   UNL     1      35.387 -18.882 -22.096  0.00  0.00    +0.046 C 
ATOM     23  C   UNL     1      37.600 -19.182 -21.175  0.00  0.00    +0.003 C 
ATOM     24  C   UNL     1      36.749 -18.582 -22.104  0.00  0.00    +0.014 C 
BRANCH  22  25
ATOM     25  N   UNL     1      34.527 -18.275 -23.034  0.00  0.00    -0.331 N 
ATOM     26  C   UNL     1      34.580 -18.561 -24.435  0.00  0.00    +0.109 C 
ATOM     27  H   UNL     1      33.861 -17.627 -22.711  0.00  0.00    +0.147 HD
ENDBRANCH  22  25
ENDBRANCH  15  19
ENDBRANCH   6  14
BRANCH   8  29
ATOM     28  N   UNL     1      39.313 -24.221 -15.306  0.00  0.00    -0.242 NA
ATOM     29  C   UNL     1      38.207 -24.904 -14.953  0.00  0.00    +0.099 C 
ATOM     30  C   UNL     1      38.177 -26.243 -14.621  0.00  0.00    +0.021 C 
ATOM     31  C   UNL     1      39.380 -26.939 -14.656  0.00  0.00    +0.003 C 
ATOM     32  C   UNL     1      40.463 -24.930 -15.329  0.00  0.00    +0.099 C 
ATOM     33  C   UNL     1      40.550 -26.277 -15.015  0.00  0.00    +0.021 C 
ENDBRANCH   8  29
BRANCH   2  34
ATOM     34  C   UNL     1      32.846 -25.090 -13.869  0.00  0.00    +0.163 C 
BRANCH  34  36
ATOM     35  O   UNL     1      31.645 -23.294 -12.829  0.00  0.00    -0.294 OA
ATOM     36  C   UNL     1      31.671 -24.138 -13.729  0.00  0.00    +0.170 C 
BRANCH  36  37
ATOM     37  C   UNL     1      30.502 -24.283 -14.726  0.00  0.00    +0.053 C 
ATOM     38  C   UNL     1      30.541 -23.116 -15.720  0.00  0.00    +0.007 C 
ATOM     39  C   UNL     1      29.165 -24.241 -13.964  0.00  0.00    +0.007 C 
ATOM     40  C   UNL     1      30.597 -25.623 -15.469  0.00  0.00    +0.007 C 
ENDBRANCH  36  37
ENDBRANCH  34  36
ENDBRANCH   2  34
TORSDOF 7
ENDMDL
MODEL 2
REMARK VINA RESULT:      -7.7      2.008      2.794
REMARK  Name = 9870520
REMARK  7 active torsions:
REMARK  status: ('A' for Active; 'I' for Inactive)
REMARK    1  A    between atoms: N_2  and  C_34
REMARK    2  A    between atoms: C_6  and  N_14
REMARK    3  A    between atoms: C_8  and  C_29
REMARK    4  A    between atoms: N_15  and  C_19
REMARK    5  A    between atoms: C_22  and  N_25
REMARK    6  A    between atoms: C_34  and  C_36
REMARK    7  A    between atoms: C_36  and  C_37
REMARK                            x       y       z     vdW  Elec       q    Type
REMARK                         _______ _______ _______ _____ _____    ______ ____
ROOT
ATOM      1  O   UNL     1      33.588 -23.368 -19.002  0.00  0.00    -0.271 OA
ATOM      2  N   UNL     1      32.920 -23.569 -16.783  0.00  0.00    -0.248 N 
ATOM      3  N   UNL     1      35.950 -23.356 -16.839  0.00  0.00    -0.242 NA
ATOM      4  C   UNL     1      33.209 -23.450 -15.381  0.00  0.00    +0.056 C 
ATOM      5  C   UNL     1      33.790 -23.153 -17.804  0.00  0.00    +0.272 C 
ATOM      6  C   UNL     1      35.013 -22.376 -17.347  0.00  0.00    +0.256 C 
ATOM      7  C   UNL     1      34.514 -23.538 -14.853  0.00  0.00    +0.032 C 
ATOM      8  C   UNL     1      35.697 -23.889 -15.692  0.00  0.00    +0.097 C 
ATOM      9  C   UNL     1      32.151 -23.253 -14.471  0.00  0.00    +0.015 C 
ATOM     10  C   UNL     1      34.742 -23.355 -13.476  0.00  0.00    +0.003 C 
ATOM     11  C   UNL     1      32.382 -23.092 -13.103  0.00  0.00    +0.001 C 
ATOM     12  C   UNL     1      33.678 -23.130 -12.607  0.00  0.00    +0.000 C 
ENDROOT
BRANCH   6  14
ATOM     13  O   UNL     1      33.647 -20.617 -19.147  0.00  0.00    -0.252 OA
ATOM     14  N   UNL     1      35.581 -21.697 -18.481  0.00  0.00    -0.264 N 
ATOM     15  N   UNL     1      35.654 -20.334 -20.332  0.00  0.00    -0.268 N 
ATOM     16  C   UNL     1      34.842 -20.849 -19.317  0.00  0.00    +0.306 C 
ATOM     17  H   UNL     1      36.535 -21.835 -18.681  0.00  0.00    +0.153 HD
ATOM     18  H   UNL     1      36.595 -20.624 -20.322  0.00  0.00    +0.156 HD
BRANCH  15  19
ATOM     19  C   UNL     1      35.288 -19.446 -21.370  0.00  0.00    +0.053 C 
ATOM     20  C   UNL     1      35.229 -18.087 -21.112  0.00  0.00    +0.029 C 
ATOM     21  C   UNL     1      34.996 -19.955 -22.626  0.00  0.00    +0.015 C 
ATOM     22  C   UNL     1      34.866 -17.212 -22.136  0.00  0.00    +0.046 C 
ATOM     23  C   UNL     1      34.634 -19.080 -23.649  0.00  0.00    +0.003 C 
ATOM     24  C   UNL     1      34.569 -17.708 -23.405  0.00  0.00    +0.014 C 
BRANCH  22  25
ATOM     25  N   UNL     1      34.801 -15.825 -21.889  0.00  0.00    -0.331 N 
ATOM     26  C   UNL     1      34.417 -15.279 -20.623  0.00  0.00    +0.109 C 
ATOM     27  H   UNL     1      35.029 -15.206 -22.619  0.00  0.00    +0.147 HD
ENDBRANCH  22  25
ENDBRANCH  15  19
ENDBRANCH   6  14
BRANCH   8  29
ATOM     28  N   UNL     1      36.226 -26.197 -15.311  0.00  0.00    -0.242 NA
ATOM     29  C   UNL     1      36.651 -24.924 -15.199  0.00  0.00    +0.099 C 
ATOM     30  C   UNL     1      37.869 -24.541 -14.676  0.00  0.00    +0.021 C 
ATOM     31  C   UNL     1      38.721 -25.546 -14.229  0.00  0.00    +0.003 C 
ATOM     32  C   UNL     1      37.079 -27.146 -14.867  0.00  0.00    +0.099 C 
ATOM     33  C   UNL     1      38.326 -26.877 -14.324  0.00  0.00    +0.021 C 
ENDBRANCH   8  29
BRANCH   2  34
ATOM     34  C   UNL     1      31.613 -24.102 -17.171  0.00  0.00    +0.163 C 
BRANCH  34  36
ATOM     35  O   UNL     1      30.771 -21.865 -17.350  0.00  0.00    -0.294 OA
ATOM     36  C   UNL     1      30.562 -23.022 -16.980  0.00  0.00    +0.170 C 
BRANCH  36  37
ATOM     37  C   UNL     1      29.243 -23.415 -16.281  0.00  0.00    +0.053 C 
ATOM     38  C   UNL     1      28.111 -23.432 -17.316  0.00  0.00    +0.007 C 
ATOM     39  C   UNL     1      28.907 -22.379 -15.194  0.00  0.00    +0.007 C 
ATOM     40  C   UNL     1      29.381 -24.792 -15.616  0.00  0.00    +0.007 C 
ENDBRANCH  36  37
ENDBRANCH  34  36
ENDBRANCH   2  34
TORSDOF 7
ENDMDL
MODEL 3
REMARK VINA RESULT:      -6.8      1.664      2.220
REMARK  Name = 9870520
REMARK  7 active torsions:
REMARK  status: ('A' for Active; 'I' for Inactive)
REMARK    1  A    between atoms: N_2  and  C_34
REMARK    2  A    between atoms: C_6  and  N_14
REMARK    3  A    between atoms: C_8  and  C_29
REMARK    4  A    between atoms: N_15  and  C_19
REMARK    5  A    between atoms: C_22  and  N_25
REMARK    6  A    between atoms: C_34  and  C_36
REMARK    7  A    between atoms: C_36  and  C_37
REMARK                            x       y       z     vdW  Elec       q    Type
REMARK                         _______ _______ _______ _____ _____    ______ ____
ROOT
ATOM      1  O   UNL     1      34.546 -23.187 -18.840  0.00  0.00    -0.271 OA
ATOM      2  N   UNL     1      33.975 -23.597 -16.623  0.00  0.00    -0.248 N 
ATOM      3  N   UNL     1      36.960 -23.046 -16.740  0.00  0.00    -0.242 NA
ATOM      4  C   UNL     1      34.292 -23.533 -15.223  0.00  0.00    +0.056 C 
ATOM      5  C   UNL     1      34.761 -23.025 -17.635  0.00  0.00    +0.272 C 
ATOM      6  C   UNL     1      35.905 -22.146 -17.159  0.00  0.00    +0.256 C 
ATOM      7  C   UNL     1      35.615 -23.508 -14.734  0.00  0.00    +0.032 C 
ATOM      8  C   UNL     1      36.803 -23.673 -15.623  0.00  0.00    +0.097 C 
ATOM      9  C   UNL     1      33.248 -23.511 -14.277  0.00  0.00    +0.015 C 
ATOM     10  C   UNL     1      35.865 -23.386 -13.355  0.00  0.00    +0.003 C 
ATOM     11  C   UNL     1      33.503 -23.410 -12.907  0.00  0.00    +0.001 C 
ATOM     12  C   UNL     1      34.811 -23.335 -12.447  0.00  0.00    +0.000 C 
ENDROOT
BRANCH   6  14
ATOM     13  O   UNL     1      34.269 -20.662 -18.982  0.00  0.00    -0.252 OA
ATOM     14  N   UNL     1      36.359 -21.339 -18.261  0.00  0.00    -0.264 N 
ATOM     15  N   UNL     1      36.213 -19.948 -20.086  0.00  0.00    -0.268 N 
ATOM     16  C   UNL     1      35.490 -20.641 -19.110  0.00  0.00    +0.306 C 
ATOM     17  H   UNL     1      37.328 -21.275 -18.426  0.00  0.00    +0.153 HD
ATOM     18  H   UNL     1      37.193 -20.040 -20.045  0.00  0.00    +0.156 HD
BRANCH  15  19
ATOM     19  C   UNL     1      35.708 -19.130 -21.123  0.00  0.00    +0.053 C 
ATOM     20  C   UNL     1      35.441 -19.690 -22.361  0.00  0.00    +0.029 C 
ATOM     21  C   UNL     1      35.489 -17.783 -20.879  0.00  0.00    +0.015 C 
ATOM     22  C   UNL     1      34.944 -18.882 -23.384  0.00  0.00    +0.046 C 
ATOM     23  C   UNL     1      34.992 -16.976 -21.901  0.00  0.00    +0.003 C 
ATOM     24  C   UNL     1      34.719 -17.526 -23.154  0.00  0.00    +0.014 C 
BRANCH  22  25
ATOM     25  N   UNL     1      34.668 -19.438 -24.650  0.00  0.00    -0.331 N 
ATOM     26  C   UNL     1      33.630 -18.947 -25.504  0.00  0.00    +0.109 C 
ATOM     27  H   UNL     1      35.213 -20.197 -24.960  0.00  0.00    +0.147 HD
ENDBRANCH  22  25
ENDBRANCH  15  19
ENDBRANCH   6  14
BRANCH   8  29
ATOM     28  N   UNL     1      39.130 -24.122 -15.251  0.00  0.00    -0.242 NA
ATOM     29  C   UNL     1      37.880 -24.624 -15.221  0.00  0.00    +0.099 C 
ATOM     30  C   UNL     1      37.554 -25.913 -14.855  0.00  0.00    +0.021 C 
ATOM     31  C   UNL     1      38.596 -26.759 -14.490  0.00  0.00    +0.003 C 
ATOM     32  C   UNL     1      40.116 -24.973 -14.890  0.00  0.00    +0.099 C 
ATOM     33  C   UNL     1      39.905 -26.287 -14.505  0.00  0.00    +0.021 C 
ENDBRANCH   8  29
BRANCH   2  34
ATOM     34  C   UNL     1      32.722 -24.247 -17.013  0.00  0.00    +0.163 C 
BRANCH  34  36
ATOM     35  O   UNL     1      31.692 -22.168 -17.616  0.00  0.00    -0.294 OA
ATOM     36  C   UNL     1      31.601 -23.222 -16.981  0.00  0.00    +0.170 C 
BRANCH  36  37
ATOM     37  C   UNL     1      30.368 -23.528 -16.107  0.00  0.00    +0.053 C 
ATOM     38  C   UNL     1      30.406 -25.002 -15.682  0.00  0.00    +0.007 C 
ATOM     39  C   UNL     1      29.084 -23.279 -16.918  0.00  0.00    +0.007 C 
ATOM     40  C   UNL     1      30.349 -22.616 -14.872  0.00  0.00    +0.007 C 
ENDBRANCH  36  37
ENDBRANCH  34  36
ENDBRANCH   2  34
TORSDOF 7
ENDMDL
MODEL 4
REMARK VINA RESULT:      -6.0      1.922      5.129
REMARK  Name = 9870520
REMARK  7 active torsions:
REMARK  status: ('A' for Active; 'I' for Inactive)
REMARK    1  A    between atoms: N_2  and  C_34
REMARK    2  A    between atoms: C_6  and  N_14
REMARK    3  A    between atoms: C_8  and  C_29
REMARK    4  A    between atoms: N_15  and  C_19
REMARK    5  A    between atoms: C_22  and  N_25
REMARK    6  A    between atoms: C_34  and  C_36
REMARK    7  A    between atoms: C_36  and  C_37
REMARK                            x       y       z     vdW  Elec       q    Type
REMARK                         _______ _______ _______ _____ _____    ______ ____
ROOT
ATOM      1  O   UNL     1      37.833 -21.283 -15.302  0.00  0.00    -0.271 OA
ATOM      2  N   UNL     1      37.651 -23.543 -14.785  0.00  0.00    -0.248 N 
ATOM      3  N   UNL     1      35.291 -22.786 -16.541  0.00  0.00    -0.242 NA
ATOM      4  C   UNL     1      37.076 -24.836 -15.038  0.00  0.00    +0.056 C 
ATOM      5  C   UNL     1      37.435 -22.415 -15.592  0.00  0.00    +0.272 C 
ATOM      6  C   UNL     1      36.691 -22.670 -16.892  0.00  0.00    +0.256 C 
ATOM      7  C   UNL     1      35.814 -25.013 -15.641  0.00  0.00    +0.032 C 
ATOM      8  C   UNL     1      34.907 -23.870 -15.956  0.00  0.00    +0.097 C 
ATOM      9  C   UNL     1      37.784 -25.993 -14.656  0.00  0.00    +0.015 C 
ATOM     10  C   UNL     1      35.329 -26.305 -15.916  0.00  0.00    +0.003 C 
ATOM     11  C   UNL     1      37.287 -27.273 -14.915  0.00  0.00    +0.001 C 
ATOM     12  C   UNL     1      36.065 -27.429 -15.556  0.00  0.00    +0.000 C 
ENDROOT
BRANCH   6  14
ATOM     13  O   UNL     1      35.093 -21.973 -19.163  0.00  0.00    -0.252 OA
ATOM     14  N   UNL     1      36.886 -21.545 -17.766  0.00  0.00    -0.264 N 
ATOM     15  N   UNL     1      36.486 -20.119 -19.525  0.00  0.00    -0.268 N 
ATOM     16  C   UNL     1      36.055 -21.271 -18.862  0.00  0.00    +0.306 C 
ATOM     17  H   UNL     1      37.639 -20.937 -17.587  0.00  0.00    +0.153 HD
ATOM     18  H   UNL     1      37.280 -19.674 -19.149  0.00  0.00    +0.156 HD
BRANCH  15  19
ATOM     19  C   UNL     1      35.919 -19.514 -20.671  0.00  0.00    +0.053 C 
ATOM     20  C   UNL     1      35.702 -18.146 -20.680  0.00  0.00    +0.029 C 
ATOM     21  C   UNL     1      35.591 -20.303 -21.763  0.00  0.00    +0.015 C 
ATOM     22  C   UNL     1      35.141 -17.550 -21.810  0.00  0.00    +0.046 C 
ATOM     23  C   UNL     1      35.032 -19.707 -22.892  0.00  0.00    +0.003 C 
ATOM     24  C   UNL     1      34.806 -18.331 -22.916  0.00  0.00    +0.014 C 
BRANCH  22  25
ATOM     25  N   UNL     1      34.914 -16.159 -21.834  0.00  0.00    -0.331 N 
ATOM     26  C   UNL     1      34.537 -15.413 -20.672  0.00  0.00    +0.109 C 
ATOM     27  H   UNL     1      35.017 -15.680 -22.687  0.00  0.00    +0.147 HD
ENDBRANCH  22  25
ENDBRANCH  15  19
ENDBRANCH   6  14
BRANCH   8  29
ATOM     28  N   UNL     1      33.230 -24.563 -14.386  0.00  0.00    -0.242 NA
ATOM     29  C   UNL     1      33.470 -23.960 -15.567  0.00  0.00    +0.099 C 
ATOM     30  C   UNL     1      32.500 -23.442 -16.401  0.00  0.00    +0.021 C 
ATOM     31  C   UNL     1      31.176 -23.553 -15.991  0.00  0.00    +0.003 C 
ATOM     32  C   UNL     1      31.932 -24.653 -14.022  0.00  0.00    +0.099 C 
ATOM     33  C   UNL     1      30.878 -24.169 -14.780  0.00  0.00    +0.021 C 
ENDBRANCH   8  29
BRANCH   2  34
ATOM     34  C   UNL     1      38.566 -23.410 -13.650  0.00  0.00    +0.163 C 
BRANCH  34  36
ATOM     35  O   UNL     1      37.916 -21.702 -12.099  0.00  0.00    -0.294 OA
ATOM     36  C   UNL     1      37.798 -22.877 -12.453  0.00  0.00    +0.170 C 
BRANCH  36  37
ATOM     37  C   UNL     1      36.896 -23.861 -11.680  0.00  0.00    +0.053 C 
ATOM     38  C   UNL     1      35.505 -23.884 -12.328  0.00  0.00    +0.007 C 
ATOM     39  C   UNL     1      36.755 -23.395 -10.220  0.00  0.00    +0.007 C 
ATOM     40  C   UNL     1      37.511 -25.267 -11.685  0.00  0.00    +0.007 C 
ENDBRANCH  36  37
ENDBRANCH  34  36
ENDBRANCH   2  34
TORSDOF 7
ENDMDL
