MODEL 1
REMARK VINA RESULT:      -9.5      0.000      0.000
REMARK  Name = 1854
REMARK  6 active torsions:
REMARK  status: ('A' for Active; 'I' for Inactive)
REMARK    1  A    between atoms: C_1  and  C_13
REMARK    2  A    between atoms: C_9  and  C_21
REMARK    3  A    between atoms: C_13  and  P_14
REMARK    4  A    between atoms: P_14  and  O_16
REMARK    5  A    between atoms: P_14  and  O_18
REMARK    6  A    between atoms: C_21  and  O_22
REMARK                            x       y       z     vdW  Elec       q    Type
REMARK                         _______ _______ _______ _____ _____    ______ ____
ROOT
ATOM      1  C   UNL     1      34.752 -17.438 -22.269  0.00  0.00    +0.049 C 
ATOM      2  C   UNL     1      33.854 -19.278 -20.953  0.00  0.00    -0.000 C 
ATOM      3  C   UNL     1      35.170 -19.749 -20.726  0.00  0.00    +0.000 C 
ATOM      4  C   UNL     1      33.663 -18.121 -21.726  0.00  0.00    +0.002 C 
ATOM      5  C   UNL     1      36.045 -17.902 -22.046  0.00  0.00    +0.002 C 
ATOM      6  C   UNL     1      36.254 -19.050 -21.280  0.00  0.00    -0.000 C 
ATOM      7  C   UNL     1      35.360 -20.905 -19.953  0.00  0.00    +0.006 C 
ATOM      8  C   UNL     1      32.769 -19.976 -20.399  0.00  0.00    +0.000 C 
ATOM      9  C   UNL     1      34.271 -21.587 -19.411  0.00  0.00    +0.075 C 
ATOM     10  C   UNL     1      32.977 -21.123 -19.633  0.00  0.00    +0.006 C 
ENDROOT
BRANCH   1  13
ATOM     11  F   UNL     1      35.663 -15.662 -23.597  0.00  0.00    -0.187 F 
ATOM     12  F   UNL     1      33.677 -16.374 -24.133  0.00  0.00    -0.187 F 
ATOM     13  C   UNL     1      34.530 -16.213 -23.087  0.00  0.00    +0.372 C 
BRANCH  13  14
ATOM     14  P   UNL     1      33.822 -14.789 -22.308  0.00  0.00    +0.401 P 
ATOM     15  O   UNL     1      32.328 -14.822 -22.180  0.00  0.00    -0.252 OA
BRANCH  14  16
ATOM     16  O   UNL     1      34.618 -14.667 -20.905  0.00  0.00    -0.320 OA
ATOM     17  H   UNL     1      34.579 -15.516 -20.437  0.00  0.00    +0.220 HD
ENDBRANCH  14  16
BRANCH  14  18
ATOM     18  O   UNL     1      34.402 -13.548 -23.166  0.00  0.00    -0.320 OA
ATOM     19  H   UNL     1      34.107 -13.625 -24.087  0.00  0.00    +0.220 HD
ENDBRANCH  14  18
ENDBRANCH  13  14
ENDBRANCH   1  13
BRANCH   9  21
ATOM     20  O   UNL     1      35.120 -22.852 -17.561  0.00  0.00    -0.245 OA
ATOM     21  C   UNL     1      34.485 -22.783 -18.611  0.00  0.00    +0.338 C 
BRANCH  21  22
ATOM     22  O   UNL     1      33.886 -23.877 -19.158  0.00  0.00    -0.477 OA
ATOM     23  H   UNL     1      34.396 -24.634 -19.370  0.00  0.00    +0.295 HD
ENDBRANCH  21  22
ENDBRANCH   9  21
TORSDOF 6
ENDMDL
MODEL 2
REMARK VINA RESULT:      -9.5      8.190     10.082
REMARK  Name = 1854
REMARK  6 active torsions:
REMARK  status: ('A' for Active; 'I' for Inactive)
REMARK    1  A    between atoms: C_1  and  C_13
REMARK    2  A    between atoms: C_9  and  C_21
REMARK    3  A    between atoms: C_13  and  P_14
REMARK    4  A    between atoms: P_14  and  O_16
REMARK    5  A    between atoms: P_14  and  O_18
REMARK    6  A    between atoms: C_21  and  O_22
REMARK                            x       y       z     vdW  Elec       q    Type
REMARK                         _______ _______ _______ _____ _____    ______ ____
ROOT
ATOM      1  C   UNL     1      34.590 -24.098 -14.865  0.00  0.00    +0.049 C 
ATOM      2  C   UNL     1      32.160 -23.988 -14.837  0.00  0.00    -0.000 C 
ATOM      3  C   UNL     1      32.180 -23.373 -16.113  0.00  0.00    +0.000 C 
ATOM      4  C   UNL     1      33.374 -24.344 -14.227  0.00  0.00    +0.002 C 
ATOM      5  C   UNL     1      34.610 -23.495 -16.118  0.00  0.00    +0.002 C 
ATOM      6  C   UNL     1      33.413 -23.134 -16.740  0.00  0.00    -0.000 C 
ATOM      7  C   UNL     1      30.967 -23.018 -16.723  0.00  0.00    +0.006 C 
ATOM      8  C   UNL     1      30.926 -24.228 -14.211  0.00  0.00    +0.000 C 
ATOM      9  C   UNL     1      29.750 -23.264 -16.085  0.00  0.00    +0.075 C 
ATOM     10  C   UNL     1      29.730 -23.868 -14.831  0.00  0.00    +0.006 C 
ENDROOT
BRANCH   1  13
ATOM     11  F   UNL     1      36.854 -23.553 -14.297  0.00  0.00    -0.187 F 
ATOM     12  F   UNL     1      35.755 -24.789 -12.882  0.00  0.00    -0.187 F 
ATOM     13  C   UNL     1      35.869 -24.483 -14.201  0.00  0.00    +0.372 C 
BRANCH  13  14
ATOM     14  P   UNL     1      36.736 -25.909 -14.792  0.00  0.00    +0.401 P 
ATOM     15  O   UNL     1      36.043 -26.651 -15.897  0.00  0.00    -0.252 OA
BRANCH  14  16
ATOM     16  O   UNL     1      38.206 -25.351 -15.172  0.00  0.00    -0.320 OA
ATOM     17  H   UNL     1      38.748 -25.300 -14.369  0.00  0.00    +0.220 HD
ENDBRANCH  14  16
BRANCH  14  18
ATOM     18  O   UNL     1      37.008 -26.780 -13.458  0.00  0.00    -0.320 OA
ATOM     19  H   UNL     1      36.378 -26.520 -12.768  0.00  0.00    +0.220 HD
ENDBRANCH  14  18
ENDBRANCH  13  14
ENDBRANCH   1  13
BRANCH   9  21
ATOM     20  O   UNL     1      28.001 -21.768 -16.754  0.00  0.00    -0.245 OA
ATOM     21  C   UNL     1      28.501 -22.891 -16.731  0.00  0.00    +0.338 C 
BRANCH  21  22
ATOM     22  O   UNL     1      27.905 -23.953 -17.341  0.00  0.00    -0.477 OA
ATOM     23  H   UNL     1      27.213 -23.811 -17.956  0.00  0.00    +0.295 HD
ENDBRANCH  21  22
ENDBRANCH   9  21
TORSDOF 6
ENDMDL
MODEL 3
REMARK VINA RESULT:      -9.2      1.736      2.778
REMARK  Name = 1854
REMARK  6 active torsions:
REMARK  status: ('A' for Active; 'I' for Inactive)
REMARK    1  A    between atoms: C_1  and  C_13
REMARK    2  A    between atoms: C_9  and  C_21
REMARK    3  A    between atoms: C_13  and  P_14
REMARK    4  A    between atoms: P_14  and  O_16
REMARK    5  A    between atoms: P_14  and  O_18
REMARK    6  A    between atoms: C_21  and  O_22
REMARK                            x       y       z     vdW  Elec       q    Type
REMARK                         _______ _______ _______ _____ _____    ______ ____
ROOT
ATOM      1  C   UNL     1      34.589 -19.328 -21.680  0.00  0.00    +0.049 C 
ATOM      2  C   UNL     1      35.180 -20.806 -19.840  0.00  0.00    -0.000 C 
ATOM      3  C   UNL     1      33.810 -21.112 -19.654  0.00  0.00    +0.000 C 
ATOM      4  C   UNL     1      35.552 -19.912 -20.858  0.00  0.00    +0.002 C 
ATOM      5  C   UNL     1      33.243 -19.628 -21.497  0.00  0.00    +0.002 C 
ATOM      6  C   UNL     1      32.854 -20.515 -20.491  0.00  0.00    -0.000 C 
ATOM      7  C   UNL     1      33.439 -22.006 -18.638  0.00  0.00    +0.006 C 
ATOM      8  C   UNL     1      36.137 -21.404 -19.004  0.00  0.00    +0.000 C 
ATOM      9  C   UNL     1      34.402 -22.591 -17.816  0.00  0.00    +0.075 C 
ATOM     10  C   UNL     1      35.749 -22.290 -17.999  0.00  0.00    +0.006 C 
ENDROOT
BRANCH   1  13
ATOM     11  F   UNL     1      36.310 -18.473 -23.113  0.00  0.00    -0.187 F 
ATOM     12  F   UNL     1      34.282 -18.472 -23.902  0.00  0.00    -0.187 F 
ATOM     13  C   UNL     1      35.003 -18.381 -22.754  0.00  0.00    +0.372 C 
BRANCH  13  14
ATOM     14  P   UNL     1      34.895 -16.642 -22.440  0.00  0.00    +0.401 P 
ATOM     15  O   UNL     1      35.207 -16.239 -21.029  0.00  0.00    -0.252 OA
BRANCH  14  16
ATOM     16  O   UNL     1      35.852 -15.975 -23.561  0.00  0.00    -0.320 OA
ATOM     17  H   UNL     1      35.306 -15.585 -24.261  0.00  0.00    +0.220 HD
ENDBRANCH  14  16
BRANCH  14  18
ATOM     18  O   UNL     1      33.411 -16.247 -22.944  0.00  0.00    -0.320 OA
ATOM     19  H   UNL     1      32.754 -16.585 -22.315  0.00  0.00    +0.220 HD
ENDBRANCH  14  18
ENDBRANCH  13  14
ENDBRANCH   1  13
BRANCH   9  21
ATOM     20  O   UNL     1      34.745 -24.249 -16.120  0.00  0.00    -0.245 OA
ATOM     21  C   UNL     1      34.001 -23.516 -16.768  0.00  0.00    +0.338 C 
BRANCH  21  22
ATOM     22  O   UNL     1      32.655 -23.496 -16.557  0.00  0.00    -0.477 OA
ATOM     23  H   UNL     1      32.288 -22.898 -15.936  0.00  0.00    +0.295 HD
ENDBRANCH  21  22
ENDBRANCH   9  21
TORSDOF 6
ENDMDL
MODEL 4
REMARK VINA RESULT:      -9.1      8.159     10.252
REMARK  Name = 1854
REMARK  6 active torsions:
REMARK  status: ('A' for Active; 'I' for Inactive)
REMARK    1  A    between atoms: C_1  and  C_13
REMARK    2  A    between atoms: C_9  and  C_21
REMARK    3  A    between atoms: C_13  and  P_14
REMARK    4  A    between atoms: P_14  and  O_16
REMARK    5  A    between atoms: P_14  and  O_18
REMARK    6  A    between atoms: C_21  and  O_22
REMARK                            x       y       z     vdW  Elec       q    Type
REMARK                         _______ _______ _______ _____ _____    ______ ____
ROOT
ATOM      1  C   UNL     1      35.677 -24.332 -14.518  0.00  0.00    +0.049 C 
ATOM      2  C   UNL     1      33.743 -23.602 -15.802  0.00  0.00    -0.000 C 
ATOM      3  C   UNL     1      32.955 -23.643 -14.627  0.00  0.00    +0.000 C 
ATOM      4  C   UNL     1      35.103 -23.949 -15.730  0.00  0.00    +0.002 C 
ATOM      5  C   UNL     1      34.902 -24.373 -13.363  0.00  0.00    +0.002 C 
ATOM      6  C   UNL     1      33.550 -24.031 -13.415  0.00  0.00    -0.000 C 
ATOM      7  C   UNL     1      31.597 -23.296 -14.698  0.00  0.00    +0.006 C 
ATOM      8  C   UNL     1      33.149 -23.214 -17.014  0.00  0.00    +0.000 C 
ATOM      9  C   UNL     1      31.023 -22.913 -15.911  0.00  0.00    +0.075 C 
ATOM     10  C   UNL     1      31.798 -22.872 -17.067  0.00  0.00    +0.006 C 
ENDROOT
BRANCH   1  13
ATOM     11  F   UNL     1      37.876 -24.164 -15.456  0.00  0.00    -0.187 F 
ATOM     12  F   UNL     1      37.742 -24.383 -13.295  0.00  0.00    -0.187 F 
ATOM     13  C   UNL     1      37.121 -24.698 -14.461  0.00  0.00    +0.372 C 
BRANCH  13  14
ATOM     14  P   UNL     1      37.571 -26.403 -14.619  0.00  0.00    +0.401 P 
ATOM     15  O   UNL     1      39.048 -26.662 -14.637  0.00  0.00    -0.252 OA
BRANCH  14  16
ATOM     16  O   UNL     1      36.771 -27.137 -13.420  0.00  0.00    -0.320 OA
ATOM     17  H   UNL     1      36.451 -28.000 -13.726  0.00  0.00    +0.220 HD
ENDBRANCH  14  16
BRANCH  14  18
ATOM     18  O   UNL     1      36.780 -26.893 -15.941  0.00  0.00    -0.320 OA
ATOM     19  H   UNL     1      37.081 -27.782 -16.187  0.00  0.00    +0.220 HD
ENDBRANCH  14  18
ENDBRANCH  13  14
ENDBRANCH   1  13
BRANCH   9  21
ATOM     20  O   UNL     1      28.898 -22.261 -15.014  0.00  0.00    -0.245 OA
ATOM     21  C   UNL     1      29.615 -22.554 -15.969  0.00  0.00    +0.338 C 
BRANCH  21  22
ATOM     22  O   UNL     1      29.135 -22.572 -17.244  0.00  0.00    -0.477 OA
ATOM     23  H   UNL     1      29.332 -21.866 -17.828  0.00  0.00    +0.295 HD
ENDBRANCH  21  22
ENDBRANCH   9  21
TORSDOF 6
ENDMDL
MODEL 5
REMARK VINA RESULT:      -9.1      1.836      2.109
REMARK  Name = 1854
REMARK  6 active torsions:
REMARK  status: ('A' for Active; 'I' for Inactive)
REMARK    1  A    between atoms: C_1  and  C_13
REMARK    2  A    between atoms: C_9  and  C_21
REMARK    3  A    between atoms: C_13  and  P_14
REMARK    4  A    between atoms: P_14  and  O_16
REMARK    5  A    between atoms: P_14  and  O_18
REMARK    6  A    between atoms: C_21  and  O_22
REMARK                            x       y       z     vdW  Elec       q    Type
REMARK                         _______ _______ _______ _____ _____    ______ ____
ROOT
ATOM      1  C   UNL     1      34.798 -17.632 -22.511  0.00  0.00    +0.049 C 
ATOM      2  C   UNL     1      33.920 -19.394 -21.080  0.00  0.00    -0.000 C 
ATOM      3  C   UNL     1      35.242 -19.795 -20.774  0.00  0.00    +0.000 C 
ATOM      4  C   UNL     1      33.715 -18.310 -21.950  0.00  0.00    +0.002 C 
ATOM      5  C   UNL     1      36.097 -18.027 -22.210  0.00  0.00    +0.002 C 
ATOM      6  C   UNL     1      36.320 -19.101 -21.346  0.00  0.00    -0.000 C 
ATOM      7  C   UNL     1      35.447 -20.877 -19.903  0.00  0.00    +0.006 C 
ATOM      8  C   UNL     1      32.842 -20.087 -20.507  0.00  0.00    +0.000 C 
ATOM      9  C   UNL     1      34.364 -21.555 -19.343  0.00  0.00    +0.075 C 
ATOM     10  C   UNL     1      33.064 -21.161 -19.644  0.00  0.00    +0.006 C 
ENDROOT
BRANCH   1  13
ATOM     11  F   UNL     1      33.465 -15.739 -23.133  0.00  0.00    -0.187 F 
ATOM     12  F   UNL     1      35.599 -15.616 -23.539  0.00  0.00    -0.187 F 
ATOM     13  C   UNL     1      34.560 -16.485 -23.433  0.00  0.00    +0.372 C 
BRANCH  13  14
ATOM     14  P   UNL     1      34.243 -16.822 -25.141  0.00  0.00    +0.401 P 
ATOM     15  O   UNL     1      33.732 -18.204 -25.424  0.00  0.00    -0.252 OA
BRANCH  14  16
ATOM     16  O   UNL     1      33.254 -15.628 -25.605  0.00  0.00    -0.320 OA
ATOM     17  H   UNL     1      32.408 -16.003 -25.893  0.00  0.00    +0.220 HD
ENDBRANCH  14  16
BRANCH  14  18
ATOM     18  O   UNL     1      35.634 -16.450 -25.876  0.00  0.00    -0.320 OA
ATOM     19  H   UNL     1      36.235 -17.210 -25.834  0.00  0.00    +0.220 HD
ENDBRANCH  14  18
ENDBRANCH  13  14
ENDBRANCH   1  13
BRANCH   9  21
ATOM     20  O   UNL     1      35.360 -22.691 -17.483  0.00  0.00    -0.245 OA
ATOM     21  C   UNL     1      34.593 -22.674 -18.443  0.00  0.00    +0.338 C 
BRANCH  21  22
ATOM     22  O   UNL     1      33.838 -23.759 -18.774  0.00  0.00    -0.477 OA
ATOM     23  H   UNL     1      34.202 -24.435 -19.311  0.00  0.00    +0.295 HD
ENDBRANCH  21  22
ENDBRANCH   9  21
TORSDOF 6
ENDMDL
MODEL 6
REMARK VINA RESULT:      -9.0      2.630      3.602
REMARK  Name = 1854
REMARK  6 active torsions:
REMARK  status: ('A' for Active; 'I' for Inactive)
REMARK    1  A    between atoms: C_1  and  C_13
REMARK    2  A    between atoms: C_9  and  C_21
REMARK    3  A    between atoms: C_13  and  P_14
REMARK    4  A    between atoms: P_14  and  O_16
REMARK    5  A    between atoms: P_14  and  O_18
REMARK    6  A    between atoms: C_21  and  O_22
REMARK                            x       y       z     vdW  Elec       q    Type
REMARK                         _______ _______ _______ _____ _____    ______ ____
ROOT
ATOM      1  C   UNL     1      34.874 -20.353 -20.616  0.00  0.00    +0.049 C 
ATOM      2  C   UNL     1      34.060 -21.807 -18.843  0.00  0.00    -0.000 C 
ATOM      3  C   UNL     1      35.379 -21.926 -18.344  0.00  0.00    +0.000 C 
ATOM      4  C   UNL     1      33.824 -21.016 -19.980  0.00  0.00    +0.002 C 
ATOM      5  C   UNL     1      36.171 -20.470 -20.126  0.00  0.00    +0.002 C 
ATOM      6  C   UNL     1      36.423 -21.251 -18.997  0.00  0.00    -0.000 C 
ATOM      7  C   UNL     1      35.614 -22.714 -17.207  0.00  0.00    +0.006 C 
ATOM      8  C   UNL     1      33.015 -22.481 -18.190  0.00  0.00    +0.000 C 
ATOM      9  C   UNL     1      34.565 -23.378 -16.571  0.00  0.00    +0.075 C 
ATOM     10  C   UNL     1      33.267 -23.261 -17.062  0.00  0.00    +0.006 C 
ENDROOT
BRANCH   1  13
ATOM     11  F   UNL     1      35.092 -20.032 -22.982  0.00  0.00    -0.187 F 
ATOM     12  F   UNL     1      33.292 -19.248 -22.045  0.00  0.00    -0.187 F 
ATOM     13  C   UNL     1      34.605 -19.519 -21.823  0.00  0.00    +0.372 C 
BRANCH  13  14
ATOM     14  P   UNL     1      35.291 -17.889 -21.898  0.00  0.00    +0.401 P 
ATOM     15  O   UNL     1      35.327 -17.163 -20.585  0.00  0.00    -0.252 OA
BRANCH  14  16
ATOM     16  O   UNL     1      36.736 -18.098 -22.594  0.00  0.00    -0.320 OA
ATOM     17  H   UNL     1      37.435 -17.917 -21.948  0.00  0.00    +0.220 HD
ENDBRANCH  14  16
BRANCH  14  18
ATOM     18  O   UNL     1      34.430 -17.157 -23.054  0.00  0.00    -0.320 OA
ATOM     19  H   UNL     1      33.672 -17.713 -23.294  0.00  0.00    +0.220 HD
ENDBRANCH  14  18
ENDBRANCH  13  14
ENDBRANCH   1  13
BRANCH   9  21
ATOM     20  O   UNL     1      34.128 -24.252 -14.383  0.00  0.00    -0.245 OA
ATOM     21  C   UNL     1      34.824 -24.191 -15.394  0.00  0.00    +0.338 C 
BRANCH  21  22
ATOM     22  O   UNL     1      35.969 -24.920 -15.518  0.00  0.00    -0.477 OA
ATOM     23  H   UNL     1      35.929 -25.856 -15.525  0.00  0.00    +0.295 HD
ENDBRANCH  21  22
ENDBRANCH   9  21
TORSDOF 6
ENDMDL
MODEL 7
REMARK VINA RESULT:      -9.0      8.629     10.364
REMARK  Name = 1854
REMARK  6 active torsions:
REMARK  status: ('A' for Active; 'I' for Inactive)
REMARK    1  A    between atoms: C_1  and  C_13
REMARK    2  A    between atoms: C_9  and  C_21
REMARK    3  A    between atoms: C_13  and  P_14
REMARK    4  A    between atoms: P_14  and  O_16
REMARK    5  A    between atoms: P_14  and  O_18
REMARK    6  A    between atoms: C_21  and  O_22
REMARK                            x       y       z     vdW  Elec       q    Type
REMARK                         _______ _______ _______ _____ _____    ______ ____
ROOT
ATOM      1  C   UNL     1      34.880 -24.238 -14.351  0.00  0.00    +0.049 C 
ATOM      2  C   UNL     1      32.456 -24.036 -14.426  0.00  0.00    -0.000 C 
ATOM      3  C   UNL     1      32.552 -23.448 -15.710  0.00  0.00    +0.000 C 
ATOM      4  C   UNL     1      33.630 -24.426 -13.760  0.00  0.00    +0.002 C 
ATOM      5  C   UNL     1      34.974 -23.660 -15.613  0.00  0.00    +0.002 C 
ATOM      6  C   UNL     1      33.818 -23.267 -16.290  0.00  0.00    -0.000 C 
ATOM      7  C   UNL     1      31.379 -23.059 -16.376  0.00  0.00    +0.006 C 
ATOM      8  C   UNL     1      31.190 -24.218 -13.847  0.00  0.00    +0.000 C 
ATOM      9  C   UNL     1      30.129 -23.247 -15.785  0.00  0.00    +0.075 C 
ATOM     10  C   UNL     1      30.035 -23.825 -14.522  0.00  0.00    +0.006 C 
ENDROOT
BRANCH   1  13
ATOM     11  F   UNL     1      36.345 -25.996 -13.637  0.00  0.00    -0.187 F 
ATOM     12  F   UNL     1      37.258 -24.068 -14.065  0.00  0.00    -0.187 F 
ATOM     13  C   UNL     1      36.115 -24.658 -13.628  0.00  0.00    +0.372 C 
BRANCH  13  14
ATOM     14  P   UNL     1      36.230 -24.340 -11.890  0.00  0.00    +0.401 P 
ATOM     15  O   UNL     1      35.180 -25.016 -11.059  0.00  0.00    -0.252 OA
BRANCH  14  16
ATOM     16  O   UNL     1      37.751 -24.739 -11.513  0.00  0.00    -0.320 OA
ATOM     17  H   UNL     1      38.308 -23.945 -11.536  0.00  0.00    +0.220 HD
ENDBRANCH  14  16
BRANCH  14  18
ATOM     18  O   UNL     1      36.239 -22.727 -11.789  0.00  0.00    -0.320 OA
ATOM     19  H   UNL     1      35.800 -22.451 -10.969  0.00  0.00    +0.220 HD
ENDBRANCH  14  18
ENDBRANCH  13  14
ENDBRANCH   1  13
BRANCH   9  21
ATOM     20  O   UNL     1      28.547 -23.246 -17.585  0.00  0.00    -0.245 OA
ATOM     21  C   UNL     1      28.923 -22.840 -16.488  0.00  0.00    +0.338 C 
BRANCH  21  22
ATOM     22  O   UNL     1      28.207 -21.919 -15.783  0.00  0.00    -0.477 OA
ATOM     23  H   UNL     1      27.274 -21.988 -15.736  0.00  0.00    +0.295 HD
ENDBRANCH  21  22
ENDBRANCH   9  21
TORSDOF 6
ENDMDL
MODEL 8
REMARK VINA RESULT:      -8.9      7.374      9.059
REMARK  Name = 1854
REMARK  6 active torsions:
REMARK  status: ('A' for Active; 'I' for Inactive)
REMARK    1  A    between atoms: C_1  and  C_13
REMARK    2  A    between atoms: C_9  and  C_21
REMARK    3  A    between atoms: C_13  and  P_14
REMARK    4  A    between atoms: P_14  and  O_16
REMARK    5  A    between atoms: P_14  and  O_18
REMARK    6  A    between atoms: C_21  and  O_22
REMARK                            x       y       z     vdW  Elec       q    Type
REMARK                         _______ _______ _______ _____ _____    ______ ____
ROOT
ATOM      1  C   UNL     1      30.968 -23.962 -15.558  0.00  0.00    +0.049 C 
ATOM      2  C   UNL     1      33.065 -23.262 -16.574  0.00  0.00    -0.000 C 
ATOM      3  C   UNL     1      33.684 -23.293 -15.301  0.00  0.00    +0.000 C 
ATOM      4  C   UNL     1      31.706 -23.600 -16.685  0.00  0.00    +0.002 C 
ATOM      5  C   UNL     1      31.576 -23.991 -14.307  0.00  0.00    +0.002 C 
ATOM      6  C   UNL     1      32.926 -23.659 -14.178  0.00  0.00    -0.000 C 
ATOM      7  C   UNL     1      35.042 -22.956 -15.190  0.00  0.00    +0.006 C 
ATOM      8  C   UNL     1      33.824 -22.897 -17.698  0.00  0.00    +0.000 C 
ATOM      9  C   UNL     1      35.781 -22.595 -16.317  0.00  0.00    +0.075 C 
ATOM     10  C   UNL     1      35.173 -22.565 -17.569  0.00  0.00    +0.006 C 
ENDROOT
BRANCH   1  13
ATOM     11  F   UNL     1      29.287 -25.418 -16.453  0.00  0.00    -0.187 F 
ATOM     12  F   UNL     1      28.873 -24.508 -14.520  0.00  0.00    -0.187 F 
ATOM     13  C   UNL     1      29.526 -24.316 -15.696  0.00  0.00    +0.372 C 
BRANCH  13  14
ATOM     14  P   UNL     1      28.441 -23.162 -16.486  0.00  0.00    +0.401 P 
ATOM     15  O   UNL     1      29.110 -21.920 -16.996  0.00  0.00    -0.252 OA
BRANCH  14  16
ATOM     16  O   UNL     1      27.687 -24.037 -17.619  0.00  0.00    -0.320 OA
ATOM     17  H   UNL     1      26.746 -24.108 -17.399  0.00  0.00    +0.220 HD
ENDBRANCH  14  16
BRANCH  14  18
ATOM     18  O   UNL     1      27.281 -22.906 -15.390  0.00  0.00    -0.320 OA
ATOM     19  H   UNL     1      27.110 -23.726 -14.902  0.00  0.00    +0.220 HD
ENDBRANCH  14  18
ENDBRANCH  13  14
ENDBRANCH   1  13
BRANCH   9  21
ATOM     20  O   UNL     1      38.075 -22.971 -15.736  0.00  0.00    -0.245 OA
ATOM     21  C   UNL     1      37.188 -22.250 -16.186  0.00  0.00    +0.338 C 
BRANCH  21  22
ATOM     22  O   UNL     1      37.448 -20.989 -16.632  0.00  0.00    -0.477 OA
ATOM     23  H   UNL     1      38.112 -20.849 -17.278  0.00  0.00    +0.295 HD
ENDBRANCH  21  22
ENDBRANCH   9  21
TORSDOF 6
ENDMDL
MODEL 9
REMARK VINA RESULT:      -8.5      8.882     10.372
REMARK  Name = 1854
REMARK  6 active torsions:
REMARK  status: ('A' for Active; 'I' for Inactive)
REMARK    1  A    between atoms: C_1  and  C_13
REMARK    2  A    between atoms: C_9  and  C_21
REMARK    3  A    between atoms: C_13  and  P_14
REMARK    4  A    between atoms: P_14  and  O_16
REMARK    5  A    between atoms: P_14  and  O_18
REMARK    6  A    between atoms: C_21  and  O_22
REMARK                            x       y       z     vdW  Elec       q    Type
REMARK                         _______ _______ _______ _____ _____    ______ ____
ROOT
ATOM      1  C   UNL     1      33.543 -23.619 -14.192  0.00  0.00    +0.049 C 
ATOM      2  C   UNL     1      35.650 -24.576 -13.440  0.00  0.00    -0.000 C 
ATOM      3  C   UNL     1      36.206 -24.342 -14.721  0.00  0.00    +0.000 C 
ATOM      4  C   UNL     1      34.317 -24.208 -13.192  0.00  0.00    +0.002 C 
ATOM      5  C   UNL     1      34.090 -23.389 -15.451  0.00  0.00    +0.002 C 
ATOM      6  C   UNL     1      35.413 -23.748 -15.715  0.00  0.00    -0.000 C 
ATOM      7  C   UNL     1      37.538 -24.708 -14.968  0.00  0.00    +0.006 C 
ATOM      8  C   UNL     1      36.444 -25.169 -12.445  0.00  0.00    +0.000 C 
ATOM      9  C   UNL     1      38.312 -25.298 -13.968  0.00  0.00    +0.075 C 
ATOM     10  C   UNL     1      37.766 -25.527 -12.709  0.00  0.00    +0.006 C 
ENDROOT
BRANCH   1  13
ATOM     11  F   UNL     1      31.912 -22.777 -12.651  0.00  0.00    -0.187 F 
ATOM     12  F   UNL     1      31.615 -22.304 -14.754  0.00  0.00    -0.187 F 
ATOM     13  C   UNL     1      32.130 -23.236 -13.911  0.00  0.00    +0.372 C 
BRANCH  13  14
ATOM     14  P   UNL     1      30.879 -24.485 -14.002  0.00  0.00    +0.401 P 
ATOM     15  O   UNL     1      31.323 -25.773 -14.630  0.00  0.00    -0.252 OA
BRANCH  14  16
ATOM     16  O   UNL     1      30.344 -24.624 -12.481  0.00  0.00    -0.320 OA
ATOM     17  H   UNL     1      29.469 -25.041 -12.484  0.00  0.00    +0.220 HD
ENDBRANCH  14  16
BRANCH  14  18
ATOM     18  O   UNL     1      29.651 -23.751 -14.756  0.00  0.00    -0.320 OA
ATOM     19  H   UNL     1      29.975 -22.951 -15.198  0.00  0.00    +0.220 HD
ENDBRANCH  14  18
ENDBRANCH  13  14
ENDBRANCH   1  13
BRANCH   9  21
ATOM     20  O   UNL     1      40.081 -26.753 -14.674  0.00  0.00    -0.245 OA
ATOM     21  C   UNL     1      39.691 -25.671 -14.240  0.00  0.00    +0.338 C 
BRANCH  21  22
ATOM     22  O   UNL     1      40.560 -24.660 -13.956  0.00  0.00    -0.477 OA
ATOM     23  H   UNL     1      41.427 -24.857 -13.664  0.00  0.00    +0.295 HD
ENDBRANCH  21  22
ENDBRANCH   9  21
TORSDOF 6
ENDMDL
