MODEL 1
REMARK VINA RESULT:     -11.3      0.000      0.000
REMARK  Name = 44608289
REMARK  2 active torsions:
REMARK  status: ('A' for Active; 'I' for Inactive)
REMARK    1  A    between atoms: C_3  and  C_9
REMARK    2  A    between atoms: C_4  and  C_17
REMARK                            x       y       z     vdW  Elec       q    Type
REMARK                         _______ _______ _______ _____ _____    ______ ____
ROOT
ATOM      1  N   UNL     1      35.196 -19.072 -22.974  0.00  0.00    -0.236 N 
ATOM      2  N   UNL     1      35.062 -17.965 -23.724  0.00  0.00    -0.181 NA
ATOM      3  C   UNL     1      34.737 -18.931 -21.697  0.00  0.00    +0.067 C 
ATOM      4  C   UNL     1      34.495 -17.095 -22.884  0.00  0.00    +0.100 C 
ATOM      5  C   UNL     1      34.271 -17.642 -21.606  0.00  0.00    +0.037 C 
ATOM      6  H   UNL     1      35.589 -19.908 -23.315  0.00  0.00    +0.174 HD
ENDROOT
BRANCH   3   9
ATOM      7  O   UNL     1      32.652 -22.213 -18.726  0.00  0.00    -0.435 OA
ATOM      8  O   UNL     1      34.785 -23.025 -17.954  0.00  0.00    -0.435 OA
ATOM      9  C   UNL     1      34.786 -19.996 -20.724  0.00  0.00    +0.018 C 
ATOM     10  C   UNL     1      33.695 -21.560 -19.308  0.00  0.00    +0.176 C 
ATOM     11  C   UNL     1      33.597 -20.546 -20.238  0.00  0.00    +0.041 C 
ATOM     12  C   UNL     1      34.912 -22.025 -18.868  0.00  0.00    +0.176 C 
ATOM     13  C   UNL     1      36.031 -20.470 -20.274  0.00  0.00    +0.005 C 
ATOM     14  C   UNL     1      36.101 -21.499 -19.332  0.00  0.00    +0.040 C 
ATOM     15  C   UNL     1      33.350 -23.139 -17.869  0.00  0.00    +0.429 C 
ENDBRANCH   3   9
BRANCH   4  17
ATOM     16 BR   UNL     1      32.986 -13.905 -26.844  0.00  0.00    -0.049 Br
ATOM     17  C   UNL     1      34.180 -15.759 -23.315  0.00  0.00    +0.020 C 
ATOM     18  C   UNL     1      33.803 -15.523 -24.637  0.00  0.00    +0.008 C 
ATOM     19  C   UNL     1      34.253 -14.699 -22.410  0.00  0.00    +0.002 C 
ATOM     20  C   UNL     1      33.497 -14.226 -25.054  0.00  0.00    +0.035 C 
ATOM     21  C   UNL     1      33.948 -13.404 -22.827  0.00  0.00    +0.001 C 
ATOM     22  C   UNL     1      33.570 -13.167 -24.149  0.00  0.00    +0.007 C 
ENDBRANCH   4  17
TORSDOF 2
ENDMDL
MODEL 2
REMARK VINA RESULT:     -11.2      1.430      1.707
REMARK  Name = 44608289
REMARK  2 active torsions:
REMARK  status: ('A' for Active; 'I' for Inactive)
REMARK    1  A    between atoms: C_3  and  C_9
REMARK    2  A    between atoms: C_4  and  C_17
REMARK                            x       y       z     vdW  Elec       q    Type
REMARK                         _______ _______ _______ _____ _____    ______ ____
ROOT
ATOM      1  N   UNL     1      35.522 -17.333 -22.717  0.00  0.00    -0.236 N 
ATOM      2  N   UNL     1      35.231 -16.108 -23.185  0.00  0.00    -0.181 NA
ATOM      3  C   UNL     1      34.761 -17.709 -21.649  0.00  0.00    +0.067 C 
ATOM      4  C   UNL     1      34.248 -15.699 -22.378  0.00  0.00    +0.100 C 
ATOM      5  C   UNL     1      33.915 -16.656 -21.402  0.00  0.00    +0.037 C 
ATOM      6  H   UNL     1      36.220 -17.906 -23.108  0.00  0.00    +0.174 HD
ENDROOT
BRANCH   3   9
ATOM      7  O   UNL     1      32.988 -21.807 -19.648  0.00  0.00    -0.435 OA
ATOM      8  O   UNL     1      35.191 -22.628 -19.119  0.00  0.00    -0.435 OA
ATOM      9  C   UNL     1      34.909 -18.986 -20.991  0.00  0.00    +0.018 C 
ATOM     10  C   UNL     1      33.967 -20.947 -20.038  0.00  0.00    +0.176 C 
ATOM     11  C   UNL     1      33.775 -19.734 -20.667  0.00  0.00    +0.041 C 
ATOM     12  C   UNL     1      35.225 -21.416 -19.737  0.00  0.00    +0.176 C 
ATOM     13  C   UNL     1      36.195 -19.464 -20.683  0.00  0.00    +0.005 C 
ATOM     14  C   UNL     1      36.362 -20.696 -20.046  0.00  0.00    +0.040 C 
ATOM     15  C   UNL     1      33.770 -22.870 -19.066  0.00  0.00    +0.429 C 
ENDBRANCH   3   9
BRANCH   4  17
ATOM     16 BR   UNL     1      34.122 -11.152 -25.107  0.00  0.00    -0.049 Br
ATOM     17  C   UNL     1      33.646 -14.404 -22.554  0.00  0.00    +0.020 C 
ATOM     18  C   UNL     1      34.097 -13.557 -23.566  0.00  0.00    +0.008 C 
ATOM     19  C   UNL     1      32.612 -13.995 -21.711  0.00  0.00    +0.002 C 
ATOM     20  C   UNL     1      33.513 -12.301 -23.736  0.00  0.00    +0.035 C 
ATOM     21  C   UNL     1      32.029 -12.740 -21.880  0.00  0.00    +0.001 C 
ATOM     22  C   UNL     1      32.479 -11.892 -22.893  0.00  0.00    +0.007 C 
ENDBRANCH   4  17
TORSDOF 2
ENDMDL
MODEL 3
REMARK VINA RESULT:     -10.7      4.616      8.271
REMARK  Name = 44608289
REMARK  2 active torsions:
REMARK  status: ('A' for Active; 'I' for Inactive)
REMARK    1  A    between atoms: C_3  and  C_9
REMARK    2  A    between atoms: C_4  and  C_17
REMARK                            x       y       z     vdW  Elec       q    Type
REMARK                         _______ _______ _______ _____ _____    ______ ____
ROOT
ATOM      1  N   UNL     1      36.475 -19.343 -21.074  0.00  0.00    -0.236 N 
ATOM      2  N   UNL     1      36.580 -20.146 -20.002  0.00  0.00    -0.181 NA
ATOM      3  C   UNL     1      35.229 -19.326 -21.630  0.00  0.00    +0.067 C 
ATOM      4  C   UNL     1      35.350 -20.653 -19.880  0.00  0.00    +0.100 C 
ATOM      5  C   UNL     1      34.467 -20.177 -20.868  0.00  0.00    +0.037 C 
ATOM      6  H   UNL     1      37.228 -18.815 -21.426  0.00  0.00    +0.174 HD
ENDROOT
BRANCH   3   9
ATOM      7  O   UNL     1      33.990 -15.131 -23.824  0.00  0.00    -0.435 OA
ATOM      8  O   UNL     1      33.940 -16.163 -26.001  0.00  0.00    -0.435 OA
ATOM      9  C   UNL     1      34.898 -18.532 -22.788  0.00  0.00    +0.018 C 
ATOM     10  C   UNL     1      34.297 -16.456 -23.775  0.00  0.00    +0.176 C 
ATOM     11  C   UNL     1      34.610 -17.174 -22.639  0.00  0.00    +0.041 C 
ATOM     12  C   UNL     1      34.269 -17.045 -25.018  0.00  0.00    +0.176 C 
ATOM     13  C   UNL     1      34.869 -19.135 -24.059  0.00  0.00    +0.005 C 
ATOM     14  C   UNL     1      34.550 -18.385 -25.194  0.00  0.00    +0.040 C 
ATOM     15  C   UNL     1      33.764 -14.953 -25.237  0.00  0.00    +0.429 C 
ENDBRANCH   3   9
BRANCH   4  17
ATOM     16 BR   UNL     1      36.957 -23.104 -15.458  0.00  0.00    -0.049 Br
ATOM     17  C   UNL     1      35.041 -21.581 -18.824  0.00  0.00    +0.020 C 
ATOM     18  C   UNL     1      35.983 -21.845 -17.829  0.00  0.00    +0.008 C 
ATOM     19  C   UNL     1      33.800 -22.217 -18.796  0.00  0.00    +0.002 C 
ATOM     20  C   UNL     1      35.683 -22.745 -16.806  0.00  0.00    +0.035 C 
ATOM     21  C   UNL     1      33.500 -23.116 -17.774  0.00  0.00    +0.001 C 
ATOM     22  C   UNL     1      34.441 -23.381 -16.779  0.00  0.00    +0.007 C 
ENDBRANCH   4  17
TORSDOF 2
ENDMDL
MODEL 4
REMARK VINA RESULT:     -10.5      2.010      3.305
REMARK  Name = 44608289
REMARK  2 active torsions:
REMARK  status: ('A' for Active; 'I' for Inactive)
REMARK    1  A    between atoms: C_3  and  C_9
REMARK    2  A    between atoms: C_4  and  C_17
REMARK                            x       y       z     vdW  Elec       q    Type
REMARK                         _______ _______ _______ _____ _____    ______ ____
ROOT
ATOM      1  N   UNL     1      36.427 -20.016 -20.166  0.00  0.00    -0.236 N 
ATOM      2  N   UNL     1      36.506 -19.155 -21.194  0.00  0.00    -0.181 NA
ATOM      3  C   UNL     1      35.186 -20.555 -19.992  0.00  0.00    +0.067 C 
ATOM      4  C   UNL     1      35.264 -19.153 -21.685  0.00  0.00    +0.100 C 
ATOM      5  C   UNL     1      34.398 -20.007 -20.975  0.00  0.00    +0.037 C 
ATOM      6  H   UNL     1      37.194 -20.239 -19.590  0.00  0.00    +0.174 HD
ENDROOT
BRANCH   3   9
ATOM      7  O   UNL     1      36.358 -23.244 -16.075  0.00  0.00    -0.435 OA
ATOM      8  O   UNL     1      34.145 -24.187 -15.930  0.00  0.00    -0.435 OA
ATOM      9  C   UNL     1      34.881 -21.503 -18.947  0.00  0.00    +0.018 C 
ATOM     10  C   UNL     1      35.531 -22.775 -17.049  0.00  0.00    +0.176 C 
ATOM     11  C   UNL     1      35.869 -21.865 -18.029  0.00  0.00    +0.041 C 
ATOM     12  C   UNL     1      34.268 -23.313 -16.965  0.00  0.00    +0.176 C 
ATOM     13  C   UNL     1      33.589 -22.053 -18.863  0.00  0.00    +0.005 C 
ATOM     14  C   UNL     1      33.272 -22.972 -17.860  0.00  0.00    +0.040 C 
ATOM     15  C   UNL     1      35.473 -24.138 -15.370  0.00  0.00    +0.429 C 
ENDBRANCH   3   9
BRANCH   4  17
ATOM     16 BR   UNL     1      34.062 -14.329 -23.536  0.00  0.00    -0.049 Br
ATOM     17  C   UNL     1      34.926 -18.337 -22.821  0.00  0.00    +0.020 C 
ATOM     18  C   UNL     1      34.698 -16.971 -22.656  0.00  0.00    +0.008 C 
ATOM     19  C   UNL     1      34.826 -18.913 -24.088  0.00  0.00    +0.002 C 
ATOM     20  C   UNL     1      34.371 -16.180 -23.758  0.00  0.00    +0.035 C 
ATOM     21  C   UNL     1      34.499 -18.123 -25.190  0.00  0.00    +0.001 C 
ATOM     22  C   UNL     1      34.271 -16.756 -25.025  0.00  0.00    +0.007 C 
ENDBRANCH   4  17
TORSDOF 2
ENDMDL
MODEL 5
REMARK VINA RESULT:     -10.3      5.271      7.667
REMARK  Name = 44608289
REMARK  2 active torsions:
REMARK  status: ('A' for Active; 'I' for Inactive)
REMARK    1  A    between atoms: C_3  and  C_9
REMARK    2  A    between atoms: C_4  and  C_17
REMARK                            x       y       z     vdW  Elec       q    Type
REMARK                         _______ _______ _______ _____ _____    ______ ____
ROOT
ATOM      1  N   UNL     1      31.624 -12.698 -22.187  0.00  0.00    -0.236 N 
ATOM      2  N   UNL     1      31.314 -11.491 -21.684  0.00  0.00    -0.181 NA
ATOM      3  C   UNL     1      32.586 -12.661 -23.153  0.00  0.00    +0.067 C 
ATOM      4  C   UNL     1      32.115 -10.664 -22.362  0.00  0.00    +0.100 C 
ATOM      5  C   UNL     1      32.929 -11.339 -23.292  0.00  0.00    +0.037 C 
ATOM      6  H   UNL     1      31.196 -13.532 -21.886  0.00  0.00    +0.174 HD
ENDROOT
BRANCH   3   9
ATOM      7  O   UNL     1      34.797 -17.026 -23.238  0.00  0.00    -0.435 OA
ATOM      8  O   UNL     1      34.485 -17.255 -25.617  0.00  0.00    -0.435 OA
ATOM      9  C   UNL     1      33.068 -13.844 -23.826  0.00  0.00    +0.018 C 
ATOM     10  C   UNL     1      34.153 -15.956 -23.781  0.00  0.00    +0.176 C 
ATOM     11  C   UNL     1      33.710 -14.846 -23.094  0.00  0.00    +0.041 C 
ATOM     12  C   UNL     1      33.975 -16.088 -25.138  0.00  0.00    +0.176 C 
ATOM     13  C   UNL     1      32.885 -13.977 -25.214  0.00  0.00    +0.005 C 
ATOM     14  C   UNL     1      33.344 -15.113 -25.885  0.00  0.00    +0.040 C 
ATOM     15  C   UNL     1      35.005 -17.845 -24.408  0.00  0.00    +0.429 C 
ENDBRANCH   3   9
BRANCH   4  17
ATOM     16 BR   UNL     1      31.352  -5.786 -24.302  0.00  0.00    -0.049 Br
ATOM     17  C   UNL     1      32.087  -9.247 -22.111  0.00  0.00    +0.020 C 
ATOM     18  C   UNL     1      31.786  -8.361 -23.146  0.00  0.00    +0.008 C 
ATOM     19  C   UNL     1      32.362  -8.760 -20.833  0.00  0.00    +0.002 C 
ATOM     20  C   UNL     1      31.759  -6.988 -22.902  0.00  0.00    +0.035 C 
ATOM     21  C   UNL     1      32.335  -7.388 -20.589  0.00  0.00    +0.001 C 
ATOM     22  C   UNL     1      32.034  -6.501 -21.623  0.00  0.00    +0.007 C 
ENDBRANCH   4  17
TORSDOF 2
ENDMDL
MODEL 6
REMARK VINA RESULT:     -10.3      4.555      8.153
REMARK  Name = 44608289
REMARK  2 active torsions:
REMARK  status: ('A' for Active; 'I' for Inactive)
REMARK    1  A    between atoms: C_3  and  C_9
REMARK    2  A    between atoms: C_4  and  C_17
REMARK                            x       y       z     vdW  Elec       q    Type
REMARK                         _______ _______ _______ _____ _____    ______ ____
ROOT
ATOM      1  N   UNL     1      34.209 -16.503 -23.584  0.00  0.00    -0.236 N 
ATOM      2  N   UNL     1      34.674 -17.724 -23.268  0.00  0.00    -0.181 NA
ATOM      3  C   UNL     1      33.970 -15.707 -22.502  0.00  0.00    +0.067 C 
ATOM      4  C   UNL     1      34.729 -17.691 -21.934  0.00  0.00    +0.100 C 
ATOM      5  C   UNL     1      34.301 -16.460 -21.403  0.00  0.00    +0.037 C 
ATOM      6  H   UNL     1      34.054 -16.210 -24.511  0.00  0.00    +0.174 HD
ENDROOT
BRANCH   3   9
ATOM      7  O   UNL     1      31.183 -11.961 -21.037  0.00  0.00    -0.435 OA
ATOM      8  O   UNL     1      31.958 -10.548 -22.828  0.00  0.00    -0.435 OA
ATOM      9  C   UNL     1      33.467 -14.359 -22.616  0.00  0.00    +0.018 C 
ATOM     10  C   UNL     1      32.085 -12.591 -21.839  0.00  0.00    +0.176 C 
ATOM     11  C   UNL     1      32.537 -13.885 -21.688  0.00  0.00    +0.041 C 
ATOM     12  C   UNL     1      32.527 -11.783 -22.861  0.00  0.00    +0.176 C 
ATOM     13  C   UNL     1      33.919 -13.535 -23.662  0.00  0.00    +0.005 C 
ATOM     14  C   UNL     1      33.446 -12.227 -23.791  0.00  0.00    +0.040 C 
ATOM     15  C   UNL     1      31.107 -10.667 -21.670  0.00  0.00    +0.429 C 
ENDBRANCH   3   9
BRANCH   4  17
ATOM     16 BR   UNL     1      33.464 -22.070 -19.219  0.00  0.00    -0.049 Br
ATOM     17  C   UNL     1      35.187 -18.836 -21.191  0.00  0.00    +0.020 C 
ATOM     18  C   UNL     1      34.266 -19.738 -20.660  0.00  0.00    +0.008 C 
ATOM     19  C   UNL     1      36.554 -19.043 -21.003  0.00  0.00    +0.002 C 
ATOM     20  C   UNL     1      34.711 -20.848 -19.940  0.00  0.00    +0.035 C 
ATOM     21  C   UNL     1      36.999 -20.152 -20.284  0.00  0.00    +0.001 C 
ATOM     22  C   UNL     1      36.078 -21.054 -19.752  0.00  0.00    +0.007 C 
ENDBRANCH   4  17
TORSDOF 2
ENDMDL
MODEL 7
REMARK VINA RESULT:     -10.2      9.186     11.033
REMARK  Name = 44608289
REMARK  2 active torsions:
REMARK  status: ('A' for Active; 'I' for Inactive)
REMARK    1  A    between atoms: C_3  and  C_9
REMARK    2  A    between atoms: C_4  and  C_17
REMARK                            x       y       z     vdW  Elec       q    Type
REMARK                         _______ _______ _______ _____ _____    ______ ____
ROOT
ATOM      1  N   UNL     1      33.763 -23.535 -16.301  0.00  0.00    -0.236 N 
ATOM      2  N   UNL     1      35.064 -23.645 -15.981  0.00  0.00    -0.181 NA
ATOM      3  C   UNL     1      32.916 -23.844 -15.277  0.00  0.00    +0.067 C 
ATOM      4  C   UNL     1      35.030 -24.039 -14.705  0.00  0.00    +0.100 C 
ATOM      5  C   UNL     1      33.719 -24.179 -14.214  0.00  0.00    +0.037 C 
ATOM      6  H   UNL     1      33.451 -23.257 -17.192  0.00  0.00    +0.174 HD
ENDROOT
BRANCH   3   9
ATOM      7  O   UNL     1      28.770 -21.963 -17.071  0.00  0.00    -0.435 OA
ATOM      8  O   UNL     1      27.407 -23.536 -15.855  0.00  0.00    -0.435 OA
ATOM      9  C   UNL     1      31.479 -23.792 -15.405  0.00  0.00    +0.018 C 
ATOM     10  C   UNL     1      29.515 -22.821 -16.321  0.00  0.00    +0.176 C 
ATOM     11  C   UNL     1      30.891 -22.832 -16.232  0.00  0.00    +0.041 C 
ATOM     12  C   UNL     1      28.736 -23.719 -15.628  0.00  0.00    +0.176 C 
ATOM     13  C   UNL     1      30.685 -24.710 -14.695  0.00  0.00    +0.005 C 
ATOM     14  C   UNL     1      29.292 -24.677 -14.804  0.00  0.00    +0.040 C 
ATOM     15  C   UNL     1      27.436 -22.422 -16.771  0.00  0.00    +0.429 C 
ENDBRANCH   3   9
BRANCH   4  17
ATOM     16 BR   UNL     1      40.126 -25.507 -14.862  0.00  0.00    -0.049 Br
ATOM     17  C   UNL     1      36.251 -24.274 -13.978  0.00  0.00    +0.020 C 
ATOM     18  C   UNL     1      37.394 -24.701 -14.654  0.00  0.00    +0.008 C 
ATOM     19  C   UNL     1      36.289 -24.074 -12.598  0.00  0.00    +0.002 C 
ATOM     20  C   UNL     1      38.576 -24.928 -13.949  0.00  0.00    +0.035 C 
ATOM     21  C   UNL     1      37.471 -24.302 -11.893  0.00  0.00    +0.001 C 
ATOM     22  C   UNL     1      38.615 -24.729 -12.568  0.00  0.00    +0.007 C 
ENDBRANCH   4  17
TORSDOF 2
ENDMDL
MODEL 8
REMARK VINA RESULT:     -10.2      4.581      8.221
REMARK  Name = 44608289
REMARK  2 active torsions:
REMARK  status: ('A' for Active; 'I' for Inactive)
REMARK    1  A    between atoms: C_3  and  C_9
REMARK    2  A    between atoms: C_4  and  C_17
REMARK                            x       y       z     vdW  Elec       q    Type
REMARK                         _______ _______ _______ _____ _____    ______ ____
ROOT
ATOM      1  N   UNL     1      36.217 -17.938 -22.548  0.00  0.00    -0.236 N 
ATOM      2  N   UNL     1      36.413 -19.000 -21.748  0.00  0.00    -0.181 NA
ATOM      3  C   UNL     1      34.937 -17.466 -22.534  0.00  0.00    +0.067 C 
ATOM      4  C   UNL     1      35.206 -19.201 -21.211  0.00  0.00    +0.100 C 
ATOM      5  C   UNL     1      34.248 -18.276 -21.665  0.00  0.00    +0.037 C 
ATOM      6  H   UNL     1      36.932 -17.537 -23.094  0.00  0.00    +0.174 HD
ENDROOT
BRANCH   3   9
ATOM      7  O   UNL     1      33.468 -15.366 -26.703  0.00  0.00    -0.435 OA
ATOM      8  O   UNL     1      33.288 -13.196 -25.669  0.00  0.00    -0.435 OA
ATOM      9  C   UNL     1      34.510 -16.334 -23.321  0.00  0.00    +0.018 C 
ATOM     10  C   UNL     1      33.803 -15.392 -25.384  0.00  0.00    +0.176 C 
ATOM     11  C   UNL     1      34.205 -16.504 -24.673  0.00  0.00    +0.041 C 
ATOM     12  C   UNL     1      33.700 -14.154 -24.794  0.00  0.00    +0.176 C 
ATOM     13  C   UNL     1      34.406 -15.068 -22.717  0.00  0.00    +0.005 C 
ATOM     14  C   UNL     1      33.996 -13.958 -23.460  0.00  0.00    +0.040 C 
ATOM     15  C   UNL     1      33.143 -13.972 -26.877  0.00  0.00    +0.429 C 
ENDBRANCH   3   9
BRANCH   4  17
ATOM     16 BR   UNL     1      37.150 -22.149 -17.251  0.00  0.00    -0.049 Br
ATOM     17  C   UNL     1      34.991 -20.273 -20.275  0.00  0.00    +0.020 C 
ATOM     18  C   UNL     1      35.997 -20.628 -19.376  0.00  0.00    +0.008 C 
ATOM     19  C   UNL     1      33.775 -20.958 -20.267  0.00  0.00    +0.002 C 
ATOM     20  C   UNL     1      35.787 -21.667 -18.469  0.00  0.00    +0.035 C 
ATOM     21  C   UNL     1      33.565 -21.997 -19.360  0.00  0.00    +0.001 C 
ATOM     22  C   UNL     1      34.572 -22.352 -18.461  0.00  0.00    +0.007 C 
ENDBRANCH   4  17
TORSDOF 2
ENDMDL
MODEL 9
REMARK VINA RESULT:     -10.2      4.780      7.130
REMARK  Name = 44608289
REMARK  2 active torsions:
REMARK  status: ('A' for Active; 'I' for Inactive)
REMARK    1  A    between atoms: C_3  and  C_9
REMARK    2  A    between atoms: C_4  and  C_17
REMARK                            x       y       z     vdW  Elec       q    Type
REMARK                         _______ _______ _______ _____ _____    ______ ____
ROOT
ATOM      1  N   UNL     1      32.387 -12.697 -22.746  0.00  0.00    -0.236 N 
ATOM      2  N   UNL     1      32.197 -11.378 -22.576  0.00  0.00    -0.181 NA
ATOM      3  C   UNL     1      33.389 -13.001 -23.621  0.00  0.00    +0.067 C 
ATOM      4  C   UNL     1      33.116 -10.833 -23.378  0.00  0.00    +0.100 C 
ATOM      5  C   UNL     1      33.887 -11.797 -24.054  0.00  0.00    +0.037 C 
ATOM      6  H   UNL     1      31.853 -13.381 -22.281  0.00  0.00    +0.174 HD
ENDROOT
BRANCH   3   9
ATOM      7  O   UNL     1      35.512 -17.296 -22.626  0.00  0.00    -0.435 OA
ATOM      8  O   UNL     1      34.876 -18.224 -24.757  0.00  0.00    -0.435 OA
ATOM      9  C   UNL     1      33.759 -14.357 -23.949  0.00  0.00    +0.018 C 
ATOM     10  C   UNL     1      34.814 -16.410 -23.387  0.00  0.00    +0.176 C 
ATOM     11  C   UNL     1      34.482 -15.120 -23.029  0.00  0.00    +0.041 C 
ATOM     12  C   UNL     1      34.450 -16.940 -24.604  0.00  0.00    +0.176 C 
ATOM     13  C   UNL     1      33.388 -14.898 -25.193  0.00  0.00    +0.005 C 
ATOM     14  C   UNL     1      33.736 -16.208 -25.531  0.00  0.00    +0.040 C 
ATOM     15  C   UNL     1      35.548 -18.443 -23.500  0.00  0.00    +0.429 C 
ENDBRANCH   3   9
BRANCH   4  17
ATOM     16 BR   UNL     1      30.883  -6.076 -22.653  0.00  0.00    -0.049 Br
ATOM     17  C   UNL     1      33.241  -9.403 -23.483  0.00  0.00    +0.020 C 
ATOM     18  C   UNL     1      32.188  -8.579 -23.087  0.00  0.00    +0.008 C 
ATOM     19  C   UNL     1      34.417  -8.841 -23.982  0.00  0.00    +0.002 C 
ATOM     20  C   UNL     1      32.310  -7.193 -23.189  0.00  0.00    +0.035 C 
ATOM     21  C   UNL     1      34.539  -7.455 -24.085  0.00  0.00    +0.001 C 
ATOM     22  C   UNL     1      33.485  -6.631 -23.688  0.00  0.00    +0.007 C 
ENDBRANCH   4  17
TORSDOF 2
ENDMDL
