MODEL 1
REMARK VINA RESULT:      -7.8      0.000      0.000
REMARK  Name = 45266826
REMARK  3 active torsions:
REMARK  status: ('A' for Active; 'I' for Inactive)
REMARK    1  A    between atoms: C_2  and  C_3
REMARK    2  A    between atoms: C_2  and  C_10
REMARK    3  A    between atoms: C_10  and  N_12
REMARK                            x       y       z     vdW  Elec       q    Type
REMARK                         _______ _______ _______ _____ _____    ______ ____
ROOT
ATOM      1  O   UNL     1      34.181 -16.973 -21.578  0.00  0.00    -0.294 OA
ATOM      2  C   UNL     1      34.639 -18.079 -21.934  0.00  0.00    +0.153 C 
ENDROOT
BRANCH   2   3
ATOM      3  C   UNL     1      34.438 -19.257 -21.105  0.00  0.00    +0.033 C 
ATOM      4  C   UNL     1      35.534 -20.002 -20.673  0.00  0.00    +0.002 C 
ATOM      5  C   UNL     1      33.147 -19.641 -20.742  0.00  0.00    +0.002 C 
ATOM      6  C   UNL     1      34.049 -21.516 -19.516  0.00  0.00    -0.022 C 
ATOM      7  C   UNL     1      35.341 -21.132 -19.878  0.00  0.00    -0.004 C 
ATOM      8  C   UNL     1      32.953 -20.771 -19.948  0.00  0.00    -0.004 C 
ATOM      9  C   UNL     1      33.843 -22.724 -18.666  0.00  0.00    +0.031 C 
ENDBRANCH   2   3
BRANCH   2  10
ATOM     10  C   UNL     1      35.433 -18.169 -23.256  0.00  0.00    +0.002 C 
ATOM     11  C   UNL     1      34.769 -19.155 -24.208  0.00  0.00    -0.016 C 
BRANCH  10  12
ATOM     12  N   UNL     1      35.465 -16.840 -23.869  0.00  0.00    +0.388 N 
ATOM     13  C   UNL     1      34.735 -16.836 -25.127  0.00  0.00    -0.105 C 
ATOM     14  H   UNL     1      36.434 -16.575 -24.044  0.00  0.00    -0.084 HD
ATOM     15  H   UNL     1      35.025 -16.174 -23.233  0.00  0.00    -0.084 HD
ENDBRANCH  10  12
ENDBRANCH   2  10
TORSDOF 3
ENDMDL
MODEL 2
REMARK VINA RESULT:      -7.7      0.152      1.348
REMARK  Name = 45266826
REMARK  3 active torsions:
REMARK  status: ('A' for Active; 'I' for Inactive)
REMARK    1  A    between atoms: C_2  and  C_3
REMARK    2  A    between atoms: C_2  and  C_10
REMARK    3  A    between atoms: C_10  and  N_12
REMARK                            x       y       z     vdW  Elec       q    Type
REMARK                         _______ _______ _______ _____ _____    ______ ____
ROOT
ATOM      1  O   UNL     1      34.253 -17.034 -21.470  0.00  0.00    -0.294 OA
ATOM      2  C   UNL     1      34.654 -18.141 -21.887  0.00  0.00    +0.153 C 
ENDROOT
BRANCH   2   3
ATOM      3  C   UNL     1      34.496 -19.333 -21.070  0.00  0.00    +0.033 C 
ATOM      4  C   UNL     1      33.221 -19.759 -20.697  0.00  0.00    +0.002 C 
ATOM      5  C   UNL     1      35.619 -20.050 -20.658  0.00  0.00    +0.002 C 
ATOM      6  C   UNL     1      34.193 -21.619 -19.500  0.00  0.00    -0.022 C 
ATOM      7  C   UNL     1      33.069 -20.902 -19.912  0.00  0.00    -0.004 C 
ATOM      8  C   UNL     1      35.468 -21.192 -19.872  0.00  0.00    -0.004 C 
ATOM      9  C   UNL     1      34.030 -22.841 -18.661  0.00  0.00    +0.031 C 
ENDBRANCH   2   3
BRANCH   2  10
ATOM     10  C   UNL     1      35.333 -18.217 -23.273  0.00  0.00    +0.002 C 
ATOM     11  C   UNL     1      34.586 -19.188 -24.177  0.00  0.00    -0.016 C 
BRANCH  10  12
ATOM     12  N   UNL     1      35.319 -16.880 -23.870  0.00  0.00    +0.388 N 
ATOM     13  C   UNL     1      34.576 -16.884 -25.120  0.00  0.00    -0.105 C 
ATOM     14  H   UNL     1      36.277 -16.584 -24.052  0.00  0.00    -0.084 HD
ATOM     15  H   UNL     1      34.866 -16.235 -23.222  0.00  0.00    -0.084 HD
ENDBRANCH  10  12
ENDBRANCH   2  10
TORSDOF 3
ENDMDL
MODEL 3
REMARK VINA RESULT:      -7.7      1.239      1.590
REMARK  Name = 45266826
REMARK  3 active torsions:
REMARK  status: ('A' for Active; 'I' for Inactive)
REMARK    1  A    between atoms: C_2  and  C_3
REMARK    2  A    between atoms: C_2  and  C_10
REMARK    3  A    between atoms: C_10  and  N_12
REMARK                            x       y       z     vdW  Elec       q    Type
REMARK                         _______ _______ _______ _____ _____    ______ ____
ROOT
ATOM      1  O   UNL     1      36.916 -18.381 -22.225  0.00  0.00    -0.294 OA
ATOM      2  C   UNL     1      35.708 -18.334 -21.909  0.00  0.00    +0.153 C 
ENDROOT
BRANCH   2   3
ATOM      3  C   UNL     1      35.124 -19.385 -21.091  0.00  0.00    +0.033 C 
ATOM      4  C   UNL     1      35.950 -20.284 -20.416  0.00  0.00    +0.002 C 
ATOM      5  C   UNL     1      33.738 -19.493 -20.981  0.00  0.00    +0.002 C 
ATOM      6  C   UNL     1      34.002 -21.400 -19.522  0.00  0.00    -0.022 C 
ATOM      7  C   UNL     1      35.389 -21.291 -19.631  0.00  0.00    -0.004 C 
ATOM      8  C   UNL     1      33.177 -20.502 -20.197  0.00  0.00    -0.004 C 
ATOM      9  C   UNL     1      33.404 -22.478 -18.683  0.00  0.00    +0.031 C 
ENDBRANCH   2   3
BRANCH   2  10
ATOM     10  C   UNL     1      34.847 -17.155 -22.415  0.00  0.00    +0.002 C 
ATOM     11  C   UNL     1      34.762 -16.067 -21.353  0.00  0.00    -0.016 C 
BRANCH  10  12
ATOM     12  N   UNL     1      35.469 -16.612 -23.624  0.00  0.00    +0.388 N 
ATOM     13  C   UNL     1      34.716 -17.000 -24.807  0.00  0.00    -0.105 C 
ATOM     14  H   UNL     1      36.420 -16.970 -23.701  0.00  0.00    -0.084 HD
ATOM     15  H   UNL     1      35.478 -15.594 -23.561  0.00  0.00    -0.084 HD
ENDBRANCH  10  12
ENDBRANCH   2  10
TORSDOF 3
ENDMDL
MODEL 4
REMARK VINA RESULT:      -7.6      1.248      2.090
REMARK  Name = 45266826
REMARK  3 active torsions:
REMARK  status: ('A' for Active; 'I' for Inactive)
REMARK    1  A    between atoms: C_2  and  C_3
REMARK    2  A    between atoms: C_2  and  C_10
REMARK    3  A    between atoms: C_10  and  N_12
REMARK                            x       y       z     vdW  Elec       q    Type
REMARK                         _______ _______ _______ _____ _____    ______ ____
ROOT
ATOM      1  O   UNL     1      36.778 -18.395 -22.409  0.00  0.00    -0.294 OA
ATOM      2  C   UNL     1      35.620 -18.308 -21.946  0.00  0.00    +0.153 C 
ENDROOT
BRANCH   2   3
ATOM      3  C   UNL     1      35.083 -19.373 -21.115  0.00  0.00    +0.033 C 
ATOM      4  C   UNL     1      33.702 -19.530 -20.988  0.00  0.00    +0.002 C 
ATOM      5  C   UNL     1      35.947 -20.238 -20.446  0.00  0.00    +0.002 C 
ATOM      6  C   UNL     1      34.053 -21.417 -19.521  0.00  0.00    -0.022 C 
ATOM      7  C   UNL     1      33.187 -20.552 -20.192  0.00  0.00    -0.004 C 
ATOM      8  C   UNL     1      35.432 -21.260 -19.647  0.00  0.00    -0.004 C 
ATOM      9  C   UNL     1      33.501 -22.510 -18.669  0.00  0.00    +0.031 C 
ENDBRANCH   2   3
BRANCH   2  10
ATOM     10  C   UNL     1      34.771 -17.062 -22.283  0.00  0.00    +0.002 C 
ATOM     11  C   UNL     1      34.774 -16.086 -21.115  0.00  0.00    -0.016 C 
BRANCH  10  12
ATOM     12  N   UNL     1      35.345 -16.416 -23.465  0.00  0.00    +0.388 N 
ATOM     13  C   UNL     1      34.600 -16.775 -24.660  0.00  0.00    -0.105 C 
ATOM     14  H   UNL     1      36.314 -16.714 -23.572  0.00  0.00    -0.084 HD
ATOM     15  H   UNL     1      35.298 -15.404 -23.341  0.00  0.00    -0.084 HD
ENDBRANCH  10  12
ENDBRANCH   2  10
TORSDOF 3
ENDMDL
MODEL 5
REMARK VINA RESULT:      -7.4      1.602      2.447
REMARK  Name = 45266826
REMARK  3 active torsions:
REMARK  status: ('A' for Active; 'I' for Inactive)
REMARK    1  A    between atoms: C_2  and  C_3
REMARK    2  A    between atoms: C_2  and  C_10
REMARK    3  A    between atoms: C_10  and  N_12
REMARK                            x       y       z     vdW  Elec       q    Type
REMARK                         _______ _______ _______ _____ _____    ______ ____
ROOT
ATOM      1  O   UNL     1      34.536 -18.820 -23.550  0.00  0.00    -0.294 OA
ATOM      2  C   UNL     1      34.798 -18.595 -22.349  0.00  0.00    +0.153 C 
ENDROOT
BRANCH   2   3
ATOM      3  C   UNL     1      34.502 -19.594 -21.335  0.00  0.00    +0.033 C 
ATOM      4  C   UNL     1      33.183 -19.816 -20.938  0.00  0.00    +0.002 C 
ATOM      5  C   UNL     1      35.537 -20.330 -20.758  0.00  0.00    +0.002 C 
ATOM      6  C   UNL     1      33.935 -21.510 -19.389  0.00  0.00    -0.022 C 
ATOM      7  C   UNL     1      32.899 -20.774 -19.966  0.00  0.00    -0.004 C 
ATOM      8  C   UNL     1      35.253 -21.288 -19.784  0.00  0.00    -0.004 C 
ATOM      9  C   UNL     1      33.631 -22.535 -18.348  0.00  0.00    +0.031 C 
ENDBRANCH   2   3
BRANCH   2  10
ATOM     10  C   UNL     1      35.425 -17.237 -21.962  0.00  0.00    +0.002 C 
ATOM     11  C   UNL     1      35.028 -16.164 -22.968  0.00  0.00    -0.016 C 
BRANCH  10  12
ATOM     12  N   UNL     1      34.941 -16.865 -20.631  0.00  0.00    +0.388 N 
ATOM     13  C   UNL     1      34.486 -15.484 -20.618  0.00  0.00    -0.105 C 
ATOM     14  H   UNL     1      35.698 -16.974 -19.957  0.00  0.00    -0.084 HD
ATOM     15  H   UNL     1      34.157 -17.471 -20.385  0.00  0.00    -0.084 HD
ENDBRANCH  10  12
ENDBRANCH   2  10
TORSDOF 3
ENDMDL
MODEL 6
REMARK VINA RESULT:      -7.2      3.766      6.287
REMARK  Name = 45266826
REMARK  3 active torsions:
REMARK  status: ('A' for Active; 'I' for Inactive)
REMARK    1  A    between atoms: C_2  and  C_3
REMARK    2  A    between atoms: C_2  and  C_10
REMARK    3  A    between atoms: C_10  and  N_12
REMARK                            x       y       z     vdW  Elec       q    Type
REMARK                         _______ _______ _______ _____ _____    ______ ____
ROOT
ATOM      1  O   UNL     1      33.841 -24.075 -19.122  0.00  0.00    -0.294 OA
ATOM      2  C   UNL     1      33.834 -22.939 -18.603  0.00  0.00    +0.153 C 
ENDROOT
BRANCH   2   3
ATOM      3  C   UNL     1      34.134 -21.765 -19.406  0.00  0.00    +0.033 C 
ATOM      4  C   UNL     1      35.459 -21.439 -19.698  0.00  0.00    +0.002 C 
ATOM      5  C   UNL     1      33.098 -20.964 -19.884  0.00  0.00    +0.002 C 
ATOM      6  C   UNL     1      34.709 -19.512 -20.946  0.00  0.00    -0.022 C 
ATOM      7  C   UNL     1      35.746 -20.313 -20.468  0.00  0.00    -0.004 C 
ATOM      8  C   UNL     1      33.385 -19.836 -20.653  0.00  0.00    -0.004 C 
ATOM      9  C   UNL     1      35.017 -18.307 -21.769  0.00  0.00    +0.031 C 
ENDBRANCH   2   3
BRANCH   2  10
ATOM     10  C   UNL     1      33.518 -22.807 -17.096  0.00  0.00    +0.002 C 
ATOM     11  C   UNL     1      32.085 -23.240 -16.814  0.00  0.00    -0.016 C 
BRANCH  10  12
ATOM     12  N   UNL     1      34.445 -23.662 -16.351  0.00  0.00    +0.388 N 
ATOM     13  C   UNL     1      35.640 -22.923 -15.980  0.00  0.00    -0.105 C 
ATOM     14  H   UNL     1      34.710 -24.456 -16.934  0.00  0.00    -0.084 HD
ATOM     15  H   UNL     1      33.982 -23.986 -15.501  0.00  0.00    -0.084 HD
ENDBRANCH  10  12
ENDBRANCH   2  10
TORSDOF 3
ENDMDL
MODEL 7
REMARK VINA RESULT:      -7.0      2.070      2.586
REMARK  Name = 45266826
REMARK  3 active torsions:
REMARK  status: ('A' for Active; 'I' for Inactive)
REMARK    1  A    between atoms: C_2  and  C_3
REMARK    2  A    between atoms: C_2  and  C_10
REMARK    3  A    between atoms: C_10  and  N_12
REMARK                            x       y       z     vdW  Elec       q    Type
REMARK                         _______ _______ _______ _____ _____    ______ ____
ROOT
ATOM      1  O   UNL     1      35.027 -17.017 -23.394  0.00  0.00    -0.294 OA
ATOM      2  C   UNL     1      34.545 -17.154 -22.250  0.00  0.00    +0.153 C 
ENDROOT
BRANCH   2   3
ATOM      3  C   UNL     1      34.772 -18.380 -21.502  0.00  0.00    +0.033 C 
ATOM      4  C   UNL     1      36.073 -18.778 -21.191  0.00  0.00    +0.002 C 
ATOM      5  C   UNL     1      33.689 -19.159 -21.095  0.00  0.00    +0.002 C 
ATOM      6  C   UNL     1      35.206 -20.733 -20.068  0.00  0.00    -0.022 C 
ATOM      7  C   UNL     1      36.290 -19.954 -20.474  0.00  0.00    -0.004 C 
ATOM      8  C   UNL     1      33.906 -20.336 -20.379  0.00  0.00    -0.004 C 
ATOM      9  C   UNL     1      35.439 -21.991 -19.301  0.00  0.00    +0.031 C 
ENDBRANCH   2   3
BRANCH   2  10
ATOM     10  C   UNL     1      33.695 -16.010 -21.654  0.00  0.00    +0.002 C 
ATOM     11  C   UNL     1      34.421 -15.363 -20.482  0.00  0.00    -0.016 C 
BRANCH  10  12
ATOM     12  N   UNL     1      33.463 -15.012 -22.700  0.00  0.00    +0.388 N 
ATOM     13  C   UNL     1      32.510 -14.010 -22.251  0.00  0.00    -0.105 C 
ATOM     14  H   UNL     1      33.095 -15.476 -23.530  0.00  0.00    -0.084 HD
ATOM     15  H   UNL     1      34.347 -14.550 -22.915  0.00  0.00    -0.084 HD
ENDBRANCH  10  12
ENDBRANCH   2  10
TORSDOF 3
ENDMDL
MODEL 8
REMARK VINA RESULT:      -6.8      2.136      5.559
REMARK  Name = 45266826
REMARK  3 active torsions:
REMARK  status: ('A' for Active; 'I' for Inactive)
REMARK    1  A    between atoms: C_2  and  C_3
REMARK    2  A    between atoms: C_2  and  C_10
REMARK    3  A    between atoms: C_10  and  N_12
REMARK                            x       y       z     vdW  Elec       q    Type
REMARK                         _______ _______ _______ _____ _____    ______ ____
ROOT
ATOM      1  O   UNL     1      35.298 -16.818 -20.394  0.00  0.00    -0.294 OA
ATOM      2  C   UNL     1      35.172 -17.496 -21.436  0.00  0.00    +0.153 C 
ENDROOT
BRANCH   2   3
ATOM      3  C   UNL     1      34.689 -16.876 -22.659  0.00  0.00    +0.033 C 
ATOM      4  C   UNL     1      34.042 -15.641 -22.607  0.00  0.00    +0.002 C 
ATOM      5  C   UNL     1      34.871 -17.516 -23.884  0.00  0.00    +0.002 C 
ATOM      6  C   UNL     1      33.761 -15.689 -25.006  0.00  0.00    -0.022 C 
ATOM      7  C   UNL     1      33.578 -15.047 -23.780  0.00  0.00    -0.004 C 
ATOM      8  C   UNL     1      34.406 -16.923 -25.058  0.00  0.00    -0.004 C 
ATOM      9  C   UNL     1      33.264 -15.053 -26.261  0.00  0.00    +0.031 C 
ENDBRANCH   2   3
BRANCH   2  10
ATOM     10  C   UNL     1      35.523 -19.000 -21.396  0.00  0.00    +0.002 C 
ATOM     11  C   UNL     1      36.978 -19.195 -20.989  0.00  0.00    -0.016 C 
BRANCH  10  12
ATOM     12  N   UNL     1      34.648 -19.655 -20.422  0.00  0.00    +0.388 N 
ATOM     13  C   UNL     1      33.317 -19.846 -20.974  0.00  0.00    -0.105 C 
ATOM     14  H   UNL     1      34.584 -19.074 -19.586  0.00  0.00    -0.084 HD
ATOM     15  H   UNL     1      35.041 -20.567 -20.188  0.00  0.00    -0.084 HD
ENDBRANCH  10  12
ENDBRANCH   2  10
TORSDOF 3
ENDMDL
MODEL 9
REMARK VINA RESULT:      -6.7      3.075      5.653
REMARK  Name = 45266826
REMARK  3 active torsions:
REMARK  status: ('A' for Active; 'I' for Inactive)
REMARK    1  A    between atoms: C_2  and  C_3
REMARK    2  A    between atoms: C_2  and  C_10
REMARK    3  A    between atoms: C_10  and  N_12
REMARK                            x       y       z     vdW  Elec       q    Type
REMARK                         _______ _______ _______ _____ _____    ______ ____
ROOT
ATOM      1  O   UNL     1      35.636 -17.701 -20.558  0.00  0.00    -0.294 OA
ATOM      2  C   UNL     1      34.692 -17.625 -21.373  0.00  0.00    +0.153 C 
ENDROOT
BRANCH   2   3
ATOM      3  C   UNL     1      34.107 -16.335 -21.698  0.00  0.00    +0.033 C 
ATOM      4  C   UNL     1      33.020 -15.856 -20.966  0.00  0.00    +0.002 C 
ATOM      5  C   UNL     1      34.633 -15.574 -22.742  0.00  0.00    +0.002 C 
ATOM      6  C   UNL     1      32.986 -13.858 -22.323  0.00  0.00    -0.022 C 
ATOM      7  C   UNL     1      32.459 -14.619 -21.278  0.00  0.00    -0.004 C 
ATOM      8  C   UNL     1      34.071 -14.336 -23.056  0.00  0.00    -0.004 C 
ATOM      9  C   UNL     1      32.385 -12.535 -22.657  0.00  0.00    +0.031 C 
ENDBRANCH   2   3
BRANCH   2  10
ATOM     10  C   UNL     1      34.151 -18.923 -22.013  0.00  0.00    +0.002 C 
ATOM     11  C   UNL     1      34.946 -19.268 -23.266  0.00  0.00    -0.016 C 
BRANCH  10  12
ATOM     12  N   UNL     1      34.276 -20.008 -21.038  0.00  0.00    +0.388 N 
ATOM     13  C   UNL     1      33.004 -20.256 -20.380  0.00  0.00    -0.105 C 
ATOM     14  H   UNL     1      34.971 -19.751 -20.338  0.00  0.00    -0.084 HD
ATOM     15  H   UNL     1      34.563 -20.857 -21.527  0.00  0.00    -0.084 HD
ENDBRANCH  10  12
ENDBRANCH   2  10
TORSDOF 3
ENDMDL
