MODEL 1
REMARK VINA RESULT:      -6.0      0.000      0.000
REMARK  Name = 137895
REMARK  12 active torsions:
REMARK  status: ('A' for Active; 'I' for Inactive)
REMARK    1  A    between atoms: C_1  and  C_2
REMARK    2  A    between atoms: C_1  and  C_9
REMARK    3  A    between atoms: C_2  and  C_3
REMARK    4  A    between atoms: C_3  and  C_4
REMARK    5  A    between atoms: C_4  and  C_5
REMARK    6  A    between atoms: C_5  and  C_6
REMARK    7  A    between atoms: C_6  and  C_8
REMARK    8  A    between atoms: C_9  and  C_10
REMARK    9  A    between atoms: C_10  and  C_11
REMARK   10  A    between atoms: C_11  and  C_12
REMARK   11  A    between atoms: C_12  and  C_13
REMARK   12  A    between atoms: C_13  and  O_14
REMARK                            x       y       z     vdW  Elec       q    Type
REMARK                         _______ _______ _______ _____ _____    ______ ____
ROOT
ATOM      1  C   UNL     1      35.681 -18.603 -22.509  0.00  0.00    +0.000 C 
ENDROOT
BRANCH   1   2
ATOM      2  C   UNL     1      34.893 -19.139 -23.709  0.00  0.00    +0.000 C 
BRANCH   2   3
ATOM      3  C   UNL     1      34.528 -18.103 -24.779  0.00  0.00    +0.000 C 
BRANCH   3   4
ATOM      4  C   UNL     1      34.962 -16.680 -24.416  0.00  0.00    +0.000 C 
BRANCH   4   5
ATOM      5  C   UNL     1      33.852 -15.641 -24.604  0.00  0.00    +0.001 C 
BRANCH   5   6
ATOM      6  C   UNL     1      33.308 -15.012 -23.317  0.00  0.00    +0.012 C 
BRANCH   6   8
ATOM      7 BR   UNL     1      34.424 -15.344 -20.719  0.00  0.00    -0.081 Br
ATOM      8  C   UNL     1      34.397 -14.424 -22.435  0.00  0.00    +0.068 C 
ENDBRANCH   6   8
ENDBRANCH   5   6
ENDBRANCH   4   5
ENDBRANCH   3   4
ENDBRANCH   2   3
ENDBRANCH   1   2
BRANCH   1   9
ATOM      9  C   UNL     1      35.146 -19.102 -21.164  0.00  0.00    +0.000 C 
BRANCH   9  10
ATOM     10  C   UNL     1      33.654 -19.449 -21.194  0.00  0.00    +0.000 C 
BRANCH  10  11
ATOM     11  C   UNL     1      33.193 -20.496 -20.175  0.00  0.00    +0.003 C 
BRANCH  11  12
ATOM     12  C   UNL     1      34.325 -21.382 -19.658  0.00  0.00    +0.032 C 
BRANCH  12  13
ATOM     13  C   UNL     1      33.799 -22.511 -18.781  0.00  0.00    +0.137 C 
BRANCH  13  14
ATOM     14  O   UNL     1      32.442 -22.261 -18.437  0.00  0.00    -0.382 OA
ATOM     15  H   UNL     1      32.024 -23.088 -18.150  0.00  0.00    +0.210 HD
ENDBRANCH  13  14
ENDBRANCH  12  13
ENDBRANCH  11  12
ENDBRANCH  10  11
ENDBRANCH   9  10
ENDBRANCH   1   9
TORSDOF 12
ENDMDL
MODEL 2
REMARK VINA RESULT:      -5.8      2.635      5.355
REMARK  Name = 137895
REMARK  12 active torsions:
REMARK  status: ('A' for Active; 'I' for Inactive)
REMARK    1  A    between atoms: C_1  and  C_2
REMARK    2  A    between atoms: C_1  and  C_9
REMARK    3  A    between atoms: C_2  and  C_3
REMARK    4  A    between atoms: C_3  and  C_4
REMARK    5  A    between atoms: C_4  and  C_5
REMARK    6  A    between atoms: C_5  and  C_6
REMARK    7  A    between atoms: C_6  and  C_8
REMARK    8  A    between atoms: C_9  and  C_10
REMARK    9  A    between atoms: C_10  and  C_11
REMARK   10  A    between atoms: C_11  and  C_12
REMARK   11  A    between atoms: C_12  and  C_13
REMARK   12  A    between atoms: C_13  and  O_14
REMARK                            x       y       z     vdW  Elec       q    Type
REMARK                         _______ _______ _______ _____ _____    ______ ____
ROOT
ATOM      1  C   UNL     1      34.802 -16.416 -24.536  0.00  0.00    +0.000 C 
ENDROOT
BRANCH   1   2
ATOM      2  C   UNL     1      34.382 -17.792 -25.065  0.00  0.00    +0.000 C 
BRANCH   2   3
ATOM      3  C   UNL     1      34.770 -18.987 -24.187  0.00  0.00    +0.000 C 
BRANCH   3   4
ATOM      4  C   UNL     1      35.199 -18.586 -22.774  0.00  0.00    +0.000 C 
BRANCH   4   5
ATOM      5  C   UNL     1      34.889 -19.653 -21.719  0.00  0.00    +0.001 C 
BRANCH   5   6
ATOM      6  C   UNL     1      33.555 -19.491 -20.983  0.00  0.00    +0.012 C 
BRANCH   6   8
ATOM      7 BR   UNL     1      34.918 -21.543 -19.556  0.00  0.00    -0.081 Br
ATOM      8  C   UNL     1      33.261 -20.632 -20.024  0.00  0.00    +0.068 C 
ENDBRANCH   6   8
ENDBRANCH   5   6
ENDBRANCH   4   5
ENDBRANCH   3   4
ENDBRANCH   2   3
ENDBRANCH   1   2
BRANCH   1   9
ATOM      9  C   UNL     1      33.705 -15.358 -24.667  0.00  0.00    +0.000 C 
BRANCH   9  10
ATOM     10  C   UNL     1      33.748 -14.299 -23.560  0.00  0.00    +0.000 C 
BRANCH  10  11
ATOM     11  C   UNL     1      32.759 -14.499 -22.407  0.00  0.00    +0.003 C 
BRANCH  11  12
ATOM     12  C   UNL     1      33.196 -15.569 -21.410  0.00  0.00    +0.032 C 
BRANCH  12  13
ATOM     13  C   UNL     1      34.451 -15.153 -20.652  0.00  0.00    +0.137 C 
BRANCH  13  14
ATOM     14  O   UNL     1      35.138 -16.308 -20.189  0.00  0.00    -0.382 OA
ATOM     15  H   UNL     1      35.291 -16.232 -19.234  0.00  0.00    +0.210 HD
ENDBRANCH  13  14
ENDBRANCH  12  13
ENDBRANCH  11  12
ENDBRANCH  10  11
ENDBRANCH   9  10
ENDBRANCH   1   9
TORSDOF 12
ENDMDL
MODEL 3
REMARK VINA RESULT:      -5.6      2.926      4.125
REMARK  Name = 137895
REMARK  12 active torsions:
REMARK  status: ('A' for Active; 'I' for Inactive)
REMARK    1  A    between atoms: C_1  and  C_2
REMARK    2  A    between atoms: C_1  and  C_9
REMARK    3  A    between atoms: C_2  and  C_3
REMARK    4  A    between atoms: C_3  and  C_4
REMARK    5  A    between atoms: C_4  and  C_5
REMARK    6  A    between atoms: C_5  and  C_6
REMARK    7  A    between atoms: C_6  and  C_8
REMARK    8  A    between atoms: C_9  and  C_10
REMARK    9  A    between atoms: C_10  and  C_11
REMARK   10  A    between atoms: C_11  and  C_12
REMARK   11  A    between atoms: C_12  and  C_13
REMARK   12  A    between atoms: C_13  and  O_14
REMARK                            x       y       z     vdW  Elec       q    Type
REMARK                         _______ _______ _______ _____ _____    ______ ____
ROOT
ATOM      1  C   UNL     1      33.655 -21.355 -19.361  0.00  0.00    +0.000 C 
ENDROOT
BRANCH   1   2
ATOM      2  C   UNL     1      33.299 -20.372 -20.482  0.00  0.00    +0.000 C 
BRANCH   2   3
ATOM      3  C   UNL     1      34.412 -19.401 -20.891  0.00  0.00    +0.000 C 
BRANCH   3   4
ATOM      4  C   UNL     1      34.723 -19.431 -22.390  0.00  0.00    +0.000 C 
BRANCH   4   5
ATOM      5  C   UNL     1      35.574 -18.246 -22.858  0.00  0.00    +0.001 C 
BRANCH   5   6
ATOM      6  C   UNL     1      35.115 -16.868 -22.371  0.00  0.00    +0.012 C 
BRANCH   6   8
ATOM      7 BR   UNL     1      34.518 -16.849 -25.155  0.00  0.00    -0.081 Br
ATOM      8  C   UNL     1      34.886 -15.882 -23.505  0.00  0.00    +0.068 C 
ENDBRANCH   6   8
ENDBRANCH   5   6
ENDBRANCH   4   5
ENDBRANCH   3   4
ENDBRANCH   2   3
ENDBRANCH   1   2
BRANCH   1   9
ATOM      9  C   UNL     1      34.970 -22.100 -19.606  0.00  0.00    +0.000 C 
BRANCH   9  10
ATOM     10  C   UNL     1      36.092 -21.684 -18.649  0.00  0.00    +0.000 C 
BRANCH  10  11
ATOM     11  C   UNL     1      35.969 -22.202 -17.213  0.00  0.00    +0.003 C 
BRANCH  11  12
ATOM     12  C   UNL     1      37.289 -22.183 -16.444  0.00  0.00    +0.032 C 
BRANCH  12  13
ATOM     13  C   UNL     1      37.249 -23.108 -15.234  0.00  0.00    +0.137 C 
BRANCH  13  14
ATOM     14  O   UNL     1      37.169 -24.460 -15.665  0.00  0.00    -0.382 OA
ATOM     15  H   UNL     1      36.676 -24.978 -15.010  0.00  0.00    +0.210 HD
ENDBRANCH  13  14
ENDBRANCH  12  13
ENDBRANCH  11  12
ENDBRANCH  10  11
ENDBRANCH   9  10
ENDBRANCH   1   9
TORSDOF 12
ENDMDL
MODEL 4
REMARK VINA RESULT:      -5.6      3.271      5.954
REMARK  Name = 137895
REMARK  12 active torsions:
REMARK  status: ('A' for Active; 'I' for Inactive)
REMARK    1  A    between atoms: C_1  and  C_2
REMARK    2  A    between atoms: C_1  and  C_9
REMARK    3  A    between atoms: C_2  and  C_3
REMARK    4  A    between atoms: C_3  and  C_4
REMARK    5  A    between atoms: C_4  and  C_5
REMARK    6  A    between atoms: C_5  and  C_6
REMARK    7  A    between atoms: C_6  and  C_8
REMARK    8  A    between atoms: C_9  and  C_10
REMARK    9  A    between atoms: C_10  and  C_11
REMARK   10  A    between atoms: C_11  and  C_12
REMARK   11  A    between atoms: C_12  and  C_13
REMARK   12  A    between atoms: C_13  and  O_14
REMARK                            x       y       z     vdW  Elec       q    Type
REMARK                         _______ _______ _______ _____ _____    ______ ____
ROOT
ATOM      1  C   UNL     1      34.056 -23.137 -17.143  0.00  0.00    +0.000 C 
ENDROOT
BRANCH   1   2
ATOM      2  C   UNL     1      33.557 -22.840 -18.561  0.00  0.00    +0.000 C 
BRANCH   2   3
ATOM      3  C   UNL     1      34.222 -21.649 -19.261  0.00  0.00    +0.000 C 
BRANCH   3   4
ATOM      4  C   UNL     1      33.220 -20.702 -19.927  0.00  0.00    +0.000 C 
BRANCH   4   5
ATOM      5  C   UNL     1      33.829 -19.875 -21.064  0.00  0.00    +0.001 C 
BRANCH   5   6
ATOM      6  C   UNL     1      35.294 -19.471 -20.879  0.00  0.00    +0.012 C 
BRANCH   6   8
ATOM      7 BR   UNL     1      34.922 -18.917 -23.646  0.00  0.00    -0.081 Br
ATOM      8  C   UNL     1      35.788 -18.512 -21.950  0.00  0.00    +0.068 C 
ENDBRANCH   6   8
ENDBRANCH   5   6
ENDBRANCH   4   5
ENDBRANCH   3   4
ENDBRANCH   2   3
ENDBRANCH   1   2
BRANCH   1   9
ATOM      9  C   UNL     1      32.926 -23.260 -16.118  0.00  0.00    +0.000 C 
BRANCH   9  10
ATOM     10  C   UNL     1      31.529 -23.137 -16.736  0.00  0.00    +0.000 C 
BRANCH  10  11
ATOM     11  C   UNL     1      30.371 -23.003 -15.743  0.00  0.00    +0.003 C 
BRANCH  11  12
ATOM     12  C   UNL     1      29.204 -23.943 -16.040  0.00  0.00    +0.032 C 
BRANCH  12  13
ATOM     13  C   UNL     1      28.220 -23.324 -17.025  0.00  0.00    +0.137 C 
BRANCH  13  14
ATOM     14  O   UNL     1      28.360 -21.909 -17.019  0.00  0.00    -0.382 OA
ATOM     15  H   UNL     1      28.435 -21.597 -16.103  0.00  0.00    +0.210 HD
ENDBRANCH  13  14
ENDBRANCH  12  13
ENDBRANCH  11  12
ENDBRANCH  10  11
ENDBRANCH   9  10
ENDBRANCH   1   9
TORSDOF 12
ENDMDL
MODEL 5
REMARK VINA RESULT:      -5.6      4.177      7.150
REMARK  Name = 137895
REMARK  12 active torsions:
REMARK  status: ('A' for Active; 'I' for Inactive)
REMARK    1  A    between atoms: C_1  and  C_2
REMARK    2  A    between atoms: C_1  and  C_9
REMARK    3  A    between atoms: C_2  and  C_3
REMARK    4  A    between atoms: C_3  and  C_4
REMARK    5  A    between atoms: C_4  and  C_5
REMARK    6  A    between atoms: C_5  and  C_6
REMARK    7  A    between atoms: C_6  and  C_8
REMARK    8  A    between atoms: C_9  and  C_10
REMARK    9  A    between atoms: C_10  and  C_11
REMARK   10  A    between atoms: C_11  and  C_12
REMARK   11  A    between atoms: C_12  and  C_13
REMARK   12  A    between atoms: C_13  and  O_14
REMARK                            x       y       z     vdW  Elec       q    Type
REMARK                         _______ _______ _______ _____ _____    ______ ____
ROOT
ATOM      1  C   UNL     1      32.438 -14.207 -22.266  0.00  0.00    +0.000 C 
ENDROOT
BRANCH   1   2
ATOM      2  C   UNL     1      32.800 -15.150 -21.113  0.00  0.00    +0.000 C 
BRANCH   2   3
ATOM      3  C   UNL     1      34.284 -15.192 -20.732  0.00  0.00    +0.000 C 
BRANCH   3   4
ATOM      4  C   UNL     1      34.913 -16.578 -20.899  0.00  0.00    +0.000 C 
BRANCH   4   5
ATOM      5  C   UNL     1      34.669 -17.194 -22.280  0.00  0.00    +0.001 C 
BRANCH   5   6
ATOM      6  C   UNL     1      34.648 -18.725 -22.329  0.00  0.00    +0.012 C 
BRANCH   6   8
ATOM      7 BR   UNL     1      32.980 -20.199 -20.554  0.00  0.00    -0.081 Br
ATOM      8  C   UNL     1      34.694 -19.366 -20.952  0.00  0.00    +0.068 C 
ENDBRANCH   6   8
ENDBRANCH   5   6
ENDBRANCH   4   5
ENDBRANCH   3   4
ENDBRANCH   2   3
ENDBRANCH   1   2
BRANCH   1   9
ATOM      9  C   UNL     1      33.639 -13.431 -22.812  0.00  0.00    +0.000 C 
BRANCH   9  10
ATOM     10  C   UNL     1      33.871 -13.644 -24.311  0.00  0.00    +0.000 C 
BRANCH  10  11
ATOM     11  C   UNL     1      33.311 -14.945 -24.894  0.00  0.00    +0.003 C 
BRANCH  11  12
ATOM     12  C   UNL     1      33.035 -14.871 -26.394  0.00  0.00    +0.032 C 
BRANCH  12  13
ATOM     13  C   UNL     1      33.208 -13.454 -26.928  0.00  0.00    +0.137 C 
BRANCH  13  14
ATOM     14  O   UNL     1      34.122 -13.459 -28.017  0.00  0.00    -0.382 OA
ATOM     15  H   UNL     1      34.316 -14.375 -28.271  0.00  0.00    +0.210 HD
ENDBRANCH  13  14
ENDBRANCH  12  13
ENDBRANCH  11  12
ENDBRANCH  10  11
ENDBRANCH   9  10
ENDBRANCH   1   9
TORSDOF 12
ENDMDL
MODEL 6
REMARK VINA RESULT:      -5.6      3.319      6.083
REMARK  Name = 137895
REMARK  12 active torsions:
REMARK  status: ('A' for Active; 'I' for Inactive)
REMARK    1  A    between atoms: C_1  and  C_2
REMARK    2  A    between atoms: C_1  and  C_9
REMARK    3  A    between atoms: C_2  and  C_3
REMARK    4  A    between atoms: C_3  and  C_4
REMARK    5  A    between atoms: C_4  and  C_5
REMARK    6  A    between atoms: C_5  and  C_6
REMARK    7  A    between atoms: C_6  and  C_8
REMARK    8  A    between atoms: C_9  and  C_10
REMARK    9  A    between atoms: C_10  and  C_11
REMARK   10  A    between atoms: C_11  and  C_12
REMARK   11  A    between atoms: C_12  and  C_13
REMARK   12  A    between atoms: C_13  and  O_14
REMARK                            x       y       z     vdW  Elec       q    Type
REMARK                         _______ _______ _______ _____ _____    ______ ____
ROOT
ATOM      1  C   UNL     1      34.244 -18.080 -25.133  0.00  0.00    +0.000 C 
ENDROOT
BRANCH   1   2
ATOM      2  C   UNL     1      34.871 -19.267 -24.392  0.00  0.00    +0.000 C 
BRANCH   2   3
ATOM      3  C   UNL     1      35.176 -19.035 -22.908  0.00  0.00    +0.000 C 
BRANCH   3   4
ATOM      4  C   UNL     1      33.921 -18.980 -22.033  0.00  0.00    +0.000 C 
BRANCH   4   5
ATOM      5  C   UNL     1      34.132 -19.561 -20.631  0.00  0.00    +0.001 C 
BRANCH   5   6
ATOM      6  C   UNL     1      33.125 -20.632 -20.199  0.00  0.00    +0.012 C 
BRANCH   6   8
ATOM      7 BR   UNL     1      35.693 -21.527 -19.356  0.00  0.00    -0.081 Br
ATOM      8  C   UNL     1      33.760 -21.760 -19.403  0.00  0.00    +0.068 C 
ENDBRANCH   6   8
ENDBRANCH   5   6
ENDBRANCH   4   5
ENDBRANCH   3   4
ENDBRANCH   2   3
ENDBRANCH   1   2
BRANCH   1   9
ATOM      9  C   UNL     1      34.905 -16.741 -24.797  0.00  0.00    +0.000 C 
BRANCH   9  10
ATOM     10  C   UNL     1      33.918 -15.688 -24.284  0.00  0.00    +0.000 C 
BRANCH  10  11
ATOM     11  C   UNL     1      34.214 -15.119 -22.893  0.00  0.00    +0.003 C 
BRANCH  11  12
ATOM     12  C   UNL     1      33.012 -15.155 -21.952  0.00  0.00    +0.032 C 
BRANCH  12  13
ATOM     13  C   UNL     1      32.475 -13.757 -21.670  0.00  0.00    +0.137 C 
BRANCH  13  14
ATOM     14  O   UNL     1      31.881 -13.225 -22.847  0.00  0.00    -0.382 OA
ATOM     15  H   UNL     1      31.232 -13.857 -23.195  0.00  0.00    +0.210 HD
ENDBRANCH  13  14
ENDBRANCH  12  13
ENDBRANCH  11  12
ENDBRANCH  10  11
ENDBRANCH   9  10
ENDBRANCH   1   9
TORSDOF 12
ENDMDL
MODEL 7
REMARK VINA RESULT:      -5.5      1.914      2.443
REMARK  Name = 137895
REMARK  12 active torsions:
REMARK  status: ('A' for Active; 'I' for Inactive)
REMARK    1  A    between atoms: C_1  and  C_2
REMARK    2  A    between atoms: C_1  and  C_9
REMARK    3  A    between atoms: C_2  and  C_3
REMARK    4  A    between atoms: C_3  and  C_4
REMARK    5  A    between atoms: C_4  and  C_5
REMARK    6  A    between atoms: C_5  and  C_6
REMARK    7  A    between atoms: C_6  and  C_8
REMARK    8  A    between atoms: C_9  and  C_10
REMARK    9  A    between atoms: C_10  and  C_11
REMARK   10  A    between atoms: C_11  and  C_12
REMARK   11  A    between atoms: C_12  and  C_13
REMARK   12  A    between atoms: C_13  and  O_14
REMARK                            x       y       z     vdW  Elec       q    Type
REMARK                         _______ _______ _______ _____ _____    ______ ____
ROOT
ATOM      1  C   UNL     1      33.805 -19.077 -21.218  0.00  0.00    +0.000 C 
ENDROOT
BRANCH   1   2
ATOM      2  C   UNL     1      34.628 -19.329 -22.487  0.00  0.00    +0.000 C 
BRANCH   2   3
ATOM      3  C   UNL     1      35.778 -18.348 -22.737  0.00  0.00    +0.000 C 
BRANCH   3   4
ATOM      4  C   UNL     1      35.356 -16.880 -22.629  0.00  0.00    +0.000 C 
BRANCH   4   5
ATOM      5  C   UNL     1      34.567 -16.384 -23.844  0.00  0.00    +0.001 C 
BRANCH   5   6
ATOM      6  C   UNL     1      33.717 -15.130 -23.616  0.00  0.00    +0.012 C 
BRANCH   6   8
ATOM      7 BR   UNL     1      32.301 -13.326 -21.929  0.00  0.00    -0.081 Br
ATOM      8  C   UNL     1      33.084 -15.083 -22.235  0.00  0.00    +0.068 C 
ENDBRANCH   6   8
ENDBRANCH   5   6
ENDBRANCH   4   5
ENDBRANCH   3   4
ENDBRANCH   2   3
ENDBRANCH   1   2
BRANCH   1   9
ATOM      9  C   UNL     1      32.873 -20.238 -20.862  0.00  0.00    +0.000 C 
BRANCH   9  10
ATOM     10  C   UNL     1      33.185 -20.872 -19.503  0.00  0.00    +0.000 C 
BRANCH  10  11
ATOM     11  C   UNL     1      34.126 -22.081 -19.532  0.00  0.00    +0.003 C 
BRANCH  11  12
ATOM     12  C   UNL     1      35.486 -21.809 -18.891  0.00  0.00    +0.032 C 
BRANCH  12  13
ATOM     13  C   UNL     1      36.483 -21.256 -19.902  0.00  0.00    +0.137 C 
BRANCH  13  14
ATOM     14  O   UNL     1      36.750 -19.889 -19.615  0.00  0.00    -0.382 OA
ATOM     15  H   UNL     1      37.062 -19.807 -18.700  0.00  0.00    +0.210 HD
ENDBRANCH  13  14
ENDBRANCH  12  13
ENDBRANCH  11  12
ENDBRANCH  10  11
ENDBRANCH   9  10
ENDBRANCH   1   9
TORSDOF 12
ENDMDL
MODEL 8
REMARK VINA RESULT:      -5.5      2.397      2.754
REMARK  Name = 137895
REMARK  12 active torsions:
REMARK  status: ('A' for Active; 'I' for Inactive)
REMARK    1  A    between atoms: C_1  and  C_2
REMARK    2  A    between atoms: C_1  and  C_9
REMARK    3  A    between atoms: C_2  and  C_3
REMARK    4  A    between atoms: C_3  and  C_4
REMARK    5  A    between atoms: C_4  and  C_5
REMARK    6  A    between atoms: C_5  and  C_6
REMARK    7  A    between atoms: C_6  and  C_8
REMARK    8  A    between atoms: C_9  and  C_10
REMARK    9  A    between atoms: C_10  and  C_11
REMARK   10  A    between atoms: C_11  and  C_12
REMARK   11  A    between atoms: C_12  and  C_13
REMARK   12  A    between atoms: C_13  and  O_14
REMARK                            x       y       z     vdW  Elec       q    Type
REMARK                         _______ _______ _______ _____ _____    ______ ____
ROOT
ATOM      1  C   UNL     1      35.232 -19.414 -21.061  0.00  0.00    +0.000 C 
ENDROOT
BRANCH   1   2
ATOM      2  C   UNL     1      34.547 -19.260 -22.424  0.00  0.00    +0.000 C 
BRANCH   2   3
ATOM      3  C   UNL     1      35.409 -18.645 -23.532  0.00  0.00    +0.000 C 
BRANCH   3   4
ATOM      4  C   UNL     1      34.740 -17.458 -24.231  0.00  0.00    +0.000 C 
BRANCH   4   5
ATOM      5  C   UNL     1      34.932 -16.131 -23.491  0.00  0.00    +0.001 C 
BRANCH   5   6
ATOM      6  C   UNL     1      33.727 -15.186 -23.501  0.00  0.00    +0.012 C 
BRANCH   6   8
ATOM      7 BR   UNL     1      34.371 -15.574 -20.755  0.00  0.00    -0.081 Br
ATOM      8  C   UNL     1      33.118 -14.983 -22.123  0.00  0.00    +0.068 C 
ENDBRANCH   6   8
ENDBRANCH   5   6
ENDBRANCH   4   5
ENDBRANCH   3   4
ENDBRANCH   2   3
ENDBRANCH   1   2
BRANCH   1   9
ATOM      9  C   UNL     1      34.637 -20.539 -20.210  0.00  0.00    +0.000 C 
BRANCH   9  10
ATOM     10  C   UNL     1      35.671 -21.584 -19.777  0.00  0.00    +0.000 C 
BRANCH  10  11
ATOM     11  C   UNL     1      35.616 -22.005 -18.305  0.00  0.00    +0.003 C 
BRANCH  11  12
ATOM     12  C   UNL     1      36.910 -21.727 -17.544  0.00  0.00    +0.032 C 
BRANCH  12  13
ATOM     13  C   UNL     1      36.947 -22.461 -16.209  0.00  0.00    +0.137 C 
BRANCH  13  14
ATOM     14  O   UNL     1      38.222 -23.064 -16.027  0.00  0.00    -0.382 OA
ATOM     15  H   UNL     1      38.800 -22.825 -16.768  0.00  0.00    +0.210 HD
ENDBRANCH  13  14
ENDBRANCH  12  13
ENDBRANCH  11  12
ENDBRANCH  10  11
ENDBRANCH   9  10
ENDBRANCH   1   9
TORSDOF 12
ENDMDL
MODEL 9
REMARK VINA RESULT:      -5.5      3.829      7.016
REMARK  Name = 137895
REMARK  12 active torsions:
REMARK  status: ('A' for Active; 'I' for Inactive)
REMARK    1  A    between atoms: C_1  and  C_2
REMARK    2  A    between atoms: C_1  and  C_9
REMARK    3  A    between atoms: C_2  and  C_3
REMARK    4  A    between atoms: C_3  and  C_4
REMARK    5  A    between atoms: C_4  and  C_5
REMARK    6  A    between atoms: C_5  and  C_6
REMARK    7  A    between atoms: C_6  and  C_8
REMARK    8  A    between atoms: C_9  and  C_10
REMARK    9  A    between atoms: C_10  and  C_11
REMARK   10  A    between atoms: C_11  and  C_12
REMARK   11  A    between atoms: C_12  and  C_13
REMARK   12  A    between atoms: C_13  and  O_14
REMARK                            x       y       z     vdW  Elec       q    Type
REMARK                         _______ _______ _______ _____ _____    ______ ____
ROOT
ATOM      1  C   UNL     1      34.761 -19.509 -22.506  0.00  0.00    +0.000 C 
ENDROOT
BRANCH   1   2
ATOM      2  C   UNL     1      34.415 -19.399 -21.017  0.00  0.00    +0.000 C 
BRANCH   2   3
ATOM      3  C   UNL     1      33.115 -20.088 -20.585  0.00  0.00    +0.000 C 
BRANCH   3   4
ATOM      4  C   UNL     1      33.340 -21.258 -19.624  0.00  0.00    +0.000 C 
BRANCH   4   5
ATOM      5  C   UNL     1      34.790 -21.750 -19.594  0.00  0.00    +0.001 C 
BRANCH   5   6
ATOM      6  C   UNL     1      35.323 -22.161 -18.218  0.00  0.00    +0.012 C 
BRANCH   6   8
ATOM      7 BR   UNL     1      37.355 -22.343 -16.233  0.00  0.00    -0.081 Br
ATOM      8  C   UNL     1      36.747 -21.695 -17.966  0.00  0.00    +0.068 C 
ENDBRANCH   6   8
ENDBRANCH   5   6
ENDBRANCH   4   5
ENDBRANCH   3   4
ENDBRANCH   2   3
ENDBRANCH   1   2
BRANCH   1   9
ATOM      9  C   UNL     1      35.132 -18.167 -23.140  0.00  0.00    +0.000 C 
BRANCH   9  10
ATOM     10  C   UNL     1      34.513 -17.958 -24.526  0.00  0.00    +0.000 C 
BRANCH  10  11
ATOM     11  C   UNL     1      34.629 -16.543 -25.102  0.00  0.00    +0.003 C 
BRANCH  11  12
ATOM     12  C   UNL     1      33.678 -15.541 -24.451  0.00  0.00    +0.032 C 
BRANCH  12  13
ATOM     13  C   UNL     1      34.368 -14.745 -23.350  0.00  0.00    +0.137 C 
BRANCH  13  14
ATOM     14  O   UNL     1      34.268 -13.355 -23.627  0.00  0.00    -0.382 OA
ATOM     15  H   UNL     1      33.564 -13.205 -24.277  0.00  0.00    +0.210 HD
ENDBRANCH  13  14
ENDBRANCH  12  13
ENDBRANCH  11  12
ENDBRANCH  10  11
ENDBRANCH   9  10
ENDBRANCH   1   9
TORSDOF 12
ENDMDL
