MODEL 1
REMARK VINA RESULT:      -9.2      0.000      0.000
REMARK  Name = 9884318
REMARK  6 active torsions:
REMARK  status: ('A' for Active; 'I' for Inactive)
REMARK    1  A    between atoms: C_1  and  N_7
REMARK    2  A    between atoms: C_2  and  N_15
REMARK    3  A    between atoms: C_6  and  C_25
REMARK    4  A    between atoms: C_16  and  C_19
REMARK    5  A    between atoms: C_22  and  C_24
REMARK    6  A    between atoms: C_25  and  O_26
REMARK                            x       y       z     vdW  Elec       q    Type
REMARK                         _______ _______ _______ _____ _____    ______ ____
ROOT
ATOM      1  C   UNL     1      33.308 -23.866 -15.428  0.00  0.00    +0.061 C 
ATOM      2  C   UNL     1      32.729 -23.099 -16.459  0.00  0.00    +0.064 C 
ATOM      3  C   UNL     1      32.445 -24.556 -14.553  0.00  0.00    +0.016 C 
ATOM      4  C   UNL     1      31.344 -23.026 -16.609  0.00  0.00    +0.014 C 
ATOM      5  C   UNL     1      31.061 -24.484 -14.704  0.00  0.00    -0.001 C 
ATOM      6  C   UNL     1      30.510 -23.719 -15.731  0.00  0.00    +0.008 C 
ENDROOT
BRANCH   1   7
ATOM      7  N   UNL     1      34.696 -23.952 -15.258  0.00  0.00    -0.307 N 
ATOM      8  C   UNL     1      37.540 -24.162 -14.765  0.00  0.00    +0.003 C 
ATOM      9  C   UNL     1      36.934 -22.950 -15.477  0.00  0.00    +0.021 C 
ATOM     10  C   UNL     1      36.677 -25.399 -15.036  0.00  0.00    +0.021 C 
ATOM     11  C   UNL     1      35.477 -22.726 -15.069  0.00  0.00    +0.091 C 
ATOM     12  C   UNL     1      35.224 -25.167 -14.624  0.00  0.00    +0.091 C 
ATOM     13  C   UNL     1      38.980 -24.394 -15.217  0.00  0.00    +0.000 C 
ENDBRANCH   1   7
BRANCH   2  15
ATOM     14  O   UNL     1      33.777 -23.905 -19.112  0.00  0.00    -0.266 OA
ATOM     15  N   UNL     1      33.545 -22.397 -17.351  0.00  0.00    -0.277 N 
ATOM     16  C   UNL     1      34.026 -22.812 -18.608  0.00  0.00    +0.284 C 
ATOM     17  H   UNL     1      33.818 -21.496 -17.064  0.00  0.00    +0.155 HD
BRANCH  16  19
ATOM     18  O   UNL     1      34.323 -21.067 -20.204  0.00  0.00    -0.439 OA
ATOM     19  C   UNL     1      34.905 -21.845 -19.288  0.00  0.00    +0.200 C 
ATOM     20  C   UNL     1      36.220 -21.619 -19.132  0.00  0.00    +0.046 C 
ATOM     21  C   UNL     1      36.512 -20.581 -20.048  0.00  0.00    +0.052 C 
ATOM     22  C   UNL     1      35.326 -20.280 -20.676  0.00  0.00    +0.213 C 
BRANCH  22  24
ATOM     23  N   UNL     1      34.717 -18.554 -22.510  0.00  0.00    -0.188 NA
ATOM     24  C   UNL     1      34.994 -19.338 -21.676  0.00  0.00    +0.138 C 
ENDBRANCH  22  24
ENDBRANCH  16  19
ENDBRANCH   2  15
BRANCH   6  25
ATOM     25  C   UNL     1      29.029 -23.642 -15.892  0.00  0.00    +0.164 C 
BRANCH  25  26
ATOM     26  O   UNL     1      28.720 -23.039 -17.143  0.00  0.00    -0.377 OA
ATOM     27  H   UNL     1      27.920 -23.448 -17.509  0.00  0.00    +0.211 HD
ENDBRANCH  25  26
ENDBRANCH   6  25
TORSDOF 6
ENDMDL
MODEL 2
REMARK VINA RESULT:      -9.1      2.884      6.515
REMARK  Name = 9884318
REMARK  6 active torsions:
REMARK  status: ('A' for Active; 'I' for Inactive)
REMARK    1  A    between atoms: C_1  and  N_7
REMARK    2  A    between atoms: C_2  and  N_15
REMARK    3  A    between atoms: C_6  and  C_25
REMARK    4  A    between atoms: C_16  and  C_19
REMARK    5  A    between atoms: C_22  and  C_24
REMARK    6  A    between atoms: C_25  and  O_26
REMARK                            x       y       z     vdW  Elec       q    Type
REMARK                         _______ _______ _______ _____ _____    ______ ____
ROOT
ATOM      1  C   UNL     1      35.300 -23.243 -15.112  0.00  0.00    +0.061 C 
ATOM      2  C   UNL     1      34.339 -23.748 -14.212  0.00  0.00    +0.064 C 
ATOM      3  C   UNL     1      36.632 -23.135 -14.666  0.00  0.00    +0.016 C 
ATOM      4  C   UNL     1      34.697 -24.130 -12.919  0.00  0.00    +0.014 C 
ATOM      5  C   UNL     1      36.990 -23.517 -13.373  0.00  0.00    -0.001 C 
ATOM      6  C   UNL     1      36.023 -24.014 -12.500  0.00  0.00    +0.008 C 
ENDROOT
BRANCH   1   7
ATOM      7  N   UNL     1      34.963 -22.853 -16.415  0.00  0.00    -0.307 N 
ATOM      8  C   UNL     1      34.261 -22.189 -19.143  0.00  0.00    +0.003 C 
ATOM      9  C   UNL     1      35.451 -21.536 -18.436  0.00  0.00    +0.021 C 
ATOM     10  C   UNL     1      33.196 -22.568 -18.108  0.00  0.00    +0.021 C 
ATOM     11  C   UNL     1      36.021 -22.438 -17.340  0.00  0.00    +0.091 C 
ATOM     12  C   UNL     1      33.774 -23.469 -17.018  0.00  0.00    +0.091 C 
ATOM     13  C   UNL     1      33.680 -21.258 -20.205  0.00  0.00    +0.000 C 
ENDBRANCH   1   7
BRANCH   2  15
ATOM     14  O   UNL     1      31.850 -23.066 -12.756  0.00  0.00    -0.266 OA
ATOM     15  N   UNL     1      33.005 -23.873 -14.611  0.00  0.00    -0.277 N 
ATOM     16  C   UNL     1      31.843 -23.538 -13.890  0.00  0.00    +0.284 C 
ATOM     17  H   UNL     1      32.860 -24.242 -15.512  0.00  0.00    +0.155 HD
BRANCH  16  19
ATOM     18  O   UNL     1      29.992 -22.802 -15.199  0.00  0.00    -0.439 OA
ATOM     19  C   UNL     1      30.575 -23.831 -14.582  0.00  0.00    +0.200 C 
ATOM     20  C   UNL     1      29.903 -24.989 -14.692  0.00  0.00    +0.046 C 
ATOM     21  C   UNL     1      28.763 -24.664 -15.464  0.00  0.00    +0.052 C 
ATOM     22  C   UNL     1      28.863 -23.322 -15.748  0.00  0.00    +0.213 C 
BRANCH  22  24
ATOM     23  N   UNL     1      27.339 -21.709 -17.085  0.00  0.00    -0.188 NA
ATOM     24  C   UNL     1      28.032 -22.443 -16.478  0.00  0.00    +0.138 C 
ENDBRANCH  22  24
ENDBRANCH  16  19
ENDBRANCH   2  15
BRANCH   6  25
ATOM     25  C   UNL     1      36.406 -24.423 -11.118  0.00  0.00    +0.164 C 
BRANCH  25  26
ATOM     26  O   UNL     1      35.296 -25.048 -10.484  0.00  0.00    -0.377 OA
ATOM     27  H   UNL     1      35.592 -25.859 -10.041  0.00  0.00    +0.211 HD
ENDBRANCH  25  26
ENDBRANCH   6  25
TORSDOF 6
ENDMDL
MODEL 3
REMARK VINA RESULT:      -9.0      2.474      5.244
REMARK  Name = 9884318
REMARK  6 active torsions:
REMARK  status: ('A' for Active; 'I' for Inactive)
REMARK    1  A    between atoms: C_1  and  N_7
REMARK    2  A    between atoms: C_2  and  N_15
REMARK    3  A    between atoms: C_6  and  C_25
REMARK    4  A    between atoms: C_16  and  C_19
REMARK    5  A    between atoms: C_22  and  C_24
REMARK    6  A    between atoms: C_25  and  O_26
REMARK                            x       y       z     vdW  Elec       q    Type
REMARK                         _______ _______ _______ _____ _____    ______ ____
ROOT
ATOM      1  C   UNL     1      33.922 -23.971 -13.754  0.00  0.00    +0.061 C 
ATOM      2  C   UNL     1      34.953 -23.471 -14.576  0.00  0.00    +0.064 C 
ATOM      3  C   UNL     1      34.269 -24.447 -12.474  0.00  0.00    +0.016 C 
ATOM      4  C   UNL     1      36.276 -23.447 -14.134  0.00  0.00    +0.014 C 
ATOM      5  C   UNL     1      35.591 -24.424 -12.033  0.00  0.00    -0.001 C 
ATOM      6  C   UNL     1      36.595 -23.924 -12.862  0.00  0.00    +0.008 C 
ENDROOT
BRANCH   1   7
ATOM      7  N   UNL     1      32.588 -24.005 -14.178  0.00  0.00    -0.307 N 
ATOM      8  C   UNL     1      29.796 -23.984 -14.943  0.00  0.00    +0.003 C 
ATOM      9  C   UNL     1      30.571 -25.291 -14.760  0.00  0.00    +0.021 C 
ATOM     10  C   UNL     1      30.759 -22.875 -15.381  0.00  0.00    +0.021 C 
ATOM     11  C   UNL     1      31.732 -25.127 -13.779  0.00  0.00    +0.091 C 
ATOM     12  C   UNL     1      31.915 -22.717 -14.395  0.00  0.00    +0.091 C 
ATOM     13  C   UNL     1      28.668 -24.156 -15.956  0.00  0.00    +0.000 C 
ENDBRANCH   1   7
BRANCH   2  15
ATOM     14  O   UNL     1      36.771 -22.760 -16.806  0.00  0.00    -0.266 OA
ATOM     15  N   UNL     1      34.657 -22.988 -15.854  0.00  0.00    -0.277 N 
ATOM     16  C   UNL     1      35.549 -22.660 -16.892  0.00  0.00    +0.284 C 
ATOM     17  H   UNL     1      33.701 -22.862 -16.053  0.00  0.00    +0.155 HD
BRANCH  16  19
ATOM     18  O   UNL     1      35.624 -21.234 -18.801  0.00  0.00    -0.439 OA
ATOM     19  C   UNL     1      34.916 -22.134 -18.114  0.00  0.00    +0.200 C 
ATOM     20  C   UNL     1      33.721 -22.420 -18.656  0.00  0.00    +0.046 C 
ATOM     21  C   UNL     1      33.656 -21.615 -19.818  0.00  0.00    +0.052 C 
ATOM     22  C   UNL     1      34.838 -20.912 -19.861  0.00  0.00    +0.213 C 
BRANCH  22  24
ATOM     23  N   UNL     1      35.763 -19.169 -21.541  0.00  0.00    -0.188 NA
ATOM     24  C   UNL     1      35.342 -19.962 -20.778  0.00  0.00    +0.138 C 
ENDBRANCH  22  24
ENDBRANCH  16  19
ENDBRANCH   2  15
BRANCH   6  25
ATOM     25  C   UNL     1      38.009 -23.899 -12.389  0.00  0.00    +0.164 C 
BRANCH  25  26
ATOM     26  O   UNL     1      38.226 -22.730 -11.607  0.00  0.00    -0.377 OA
ATOM     27  H   UNL     1      37.403 -22.219 -11.557  0.00  0.00    +0.211 HD
ENDBRANCH  25  26
ENDBRANCH   6  25
TORSDOF 6
ENDMDL
MODEL 4
REMARK VINA RESULT:      -8.9      2.009      5.010
REMARK  Name = 9884318
REMARK  6 active torsions:
REMARK  status: ('A' for Active; 'I' for Inactive)
REMARK    1  A    between atoms: C_1  and  N_7
REMARK    2  A    between atoms: C_2  and  N_15
REMARK    3  A    between atoms: C_6  and  C_25
REMARK    4  A    between atoms: C_16  and  C_19
REMARK    5  A    between atoms: C_22  and  C_24
REMARK    6  A    between atoms: C_25  and  O_26
REMARK                            x       y       z     vdW  Elec       q    Type
REMARK                         _______ _______ _______ _____ _____    ______ ____
ROOT
ATOM      1  C   UNL     1      34.158 -23.784 -15.040  0.00  0.00    +0.061 C 
ATOM      2  C   UNL     1      35.103 -23.317 -15.977  0.00  0.00    +0.064 C 
ATOM      3  C   UNL     1      34.634 -24.488 -13.916  0.00  0.00    +0.016 C 
ATOM      4  C   UNL     1      36.467 -23.545 -15.796  0.00  0.00    +0.014 C 
ATOM      5  C   UNL     1      35.998 -24.716 -13.736  0.00  0.00    -0.001 C 
ATOM      6  C   UNL     1      36.914 -24.245 -14.675  0.00  0.00    +0.008 C 
ENDROOT
BRANCH   1   7
ATOM      7  N   UNL     1      32.784 -23.567 -15.202  0.00  0.00    -0.307 N 
ATOM      8  C   UNL     1      29.921 -23.260 -15.503  0.00  0.00    +0.003 C 
ATOM      9  C   UNL     1      30.899 -22.792 -16.584  0.00  0.00    +0.021 C 
ATOM     10  C   UNL     1      30.600 -23.181 -14.131  0.00  0.00    +0.021 C 
ATOM     11  C   UNL     1      32.204 -23.590 -16.548  0.00  0.00    +0.091 C 
ATOM     12  C   UNL     1      31.900 -23.981 -14.104  0.00  0.00    +0.091 C 
ATOM     13  C   UNL     1      28.644 -22.426 -15.527  0.00  0.00    +0.000 C 
ENDBRANCH   1   7
BRANCH   2  15
ATOM     14  O   UNL     1      36.688 -22.121 -18.178  0.00  0.00    -0.266 OA
ATOM     15  N   UNL     1      34.677 -22.613 -17.107  0.00  0.00    -0.277 N 
ATOM     16  C   UNL     1      35.461 -22.057 -18.137  0.00  0.00    +0.284 C 
ATOM     17  H   UNL     1      33.705 -22.492 -17.196  0.00  0.00    +0.155 HD
BRANCH  16  19
ATOM     18  O   UNL     1      35.413 -20.513 -19.952  0.00  0.00    -0.439 OA
ATOM     19  C   UNL     1      34.705 -21.336 -19.175  0.00  0.00    +0.200 C 
ATOM     20  C   UNL     1      33.395 -21.375 -19.469  0.00  0.00    +0.046 C 
ATOM     21  C   UNL     1      33.248 -20.478 -20.554  0.00  0.00    +0.052 C 
ATOM     22  C   UNL     1      34.504 -19.980 -20.810  0.00  0.00    +0.213 C 
BRANCH  22  24
ATOM     23  N   UNL     1      35.379 -18.286 -22.565  0.00  0.00    -0.188 NA
ATOM     24  C   UNL     1      34.981 -19.056 -21.767  0.00  0.00    +0.138 C 
ENDBRANCH  22  24
ENDBRANCH  16  19
ENDBRANCH   2  15
BRANCH   6  25
ATOM     25  C   UNL     1      38.373 -24.488 -14.481  0.00  0.00    +0.164 C 
BRANCH  25  26
ATOM     26  O   UNL     1      39.090 -23.980 -15.599  0.00  0.00    -0.377 OA
ATOM     27  H   UNL     1      38.822 -24.458 -16.400  0.00  0.00    +0.211 HD
ENDBRANCH  25  26
ENDBRANCH   6  25
TORSDOF 6
ENDMDL
MODEL 5
REMARK VINA RESULT:      -8.8      2.613      5.193
REMARK  Name = 9884318
REMARK  6 active torsions:
REMARK  status: ('A' for Active; 'I' for Inactive)
REMARK    1  A    between atoms: C_1  and  N_7
REMARK    2  A    between atoms: C_2  and  N_15
REMARK    3  A    between atoms: C_6  and  C_25
REMARK    4  A    between atoms: C_16  and  C_19
REMARK    5  A    between atoms: C_22  and  C_24
REMARK    6  A    between atoms: C_25  and  O_26
REMARK                            x       y       z     vdW  Elec       q    Type
REMARK                         _______ _______ _______ _____ _____    ______ ____
ROOT
ATOM      1  C   UNL     1      34.377 -23.644 -14.139  0.00  0.00    +0.061 C 
ATOM      2  C   UNL     1      35.569 -23.266 -14.789  0.00  0.00    +0.064 C 
ATOM      3  C   UNL     1      34.474 -24.178 -12.838  0.00  0.00    +0.016 C 
ATOM      4  C   UNL     1      36.807 -23.415 -14.164  0.00  0.00    +0.014 C 
ATOM      5  C   UNL     1      35.711 -24.327 -12.214  0.00  0.00    -0.001 C 
ATOM      6  C   UNL     1      36.878 -23.946 -12.876  0.00  0.00    +0.008 C 
ENDROOT
BRANCH   1   7
ATOM      7  N   UNL     1      33.123 -23.504 -14.748  0.00  0.00    -0.307 N 
ATOM      8  C   UNL     1      30.500 -23.351 -15.963  0.00  0.00    +0.003 C 
ATOM      9  C   UNL     1      31.769 -22.979 -16.735  0.00  0.00    +0.021 C 
ATOM     10  C   UNL     1      30.713 -23.079 -14.470  0.00  0.00    +0.021 C 
ATOM     11  C   UNL     1      32.995 -23.713 -16.193  0.00  0.00    +0.091 C 
ATOM     12  C   UNL     1      31.939 -23.817 -13.936  0.00  0.00    +0.091 C 
ATOM     13  C   UNL     1      29.295 -22.578 -16.490  0.00  0.00    +0.000 C 
ENDBRANCH   1   7
BRANCH   2  15
ATOM     14  O   UNL     1      37.771 -22.337 -16.542  0.00  0.00    -0.266 OA
ATOM     15  N   UNL     1      35.521 -22.731 -16.080  0.00  0.00    -0.277 N 
ATOM     16  C   UNL     1      36.592 -22.299 -16.886  0.00  0.00    +0.284 C 
ATOM     17  H   UNL     1      34.625 -22.648 -16.476  0.00  0.00    +0.155 HD
BRANCH  16  19
ATOM     18  O   UNL     1      34.889 -21.628 -18.414  0.00  0.00    -0.439 OA
ATOM     19  C   UNL     1      36.201 -21.743 -18.194  0.00  0.00    +0.200 C 
ATOM     20  C   UNL     1      36.967 -21.326 -19.216  0.00  0.00    +0.046 C 
ATOM     21  C   UNL     1      36.044 -20.898 -20.199  0.00  0.00    +0.052 C 
ATOM     22  C   UNL     1      34.793 -21.102 -19.663  0.00  0.00    +0.213 C 
BRANCH  22  24
ATOM     23  N   UNL     1      32.412 -20.669 -20.590  0.00  0.00    -0.188 NA
ATOM     24  C   UNL     1      33.495 -20.866 -20.169  0.00  0.00    +0.138 C 
ENDBRANCH  22  24
ENDBRANCH  16  19
ENDBRANCH   2  15
BRANCH   6  25
ATOM     25  C   UNL     1      38.201 -24.105 -12.207  0.00  0.00    +0.164 C 
BRANCH  25  26
ATOM     26  O   UNL     1      38.557 -22.887 -11.566  0.00  0.00    -0.377 OA
ATOM     27  H   UNL     1      38.554 -22.167 -12.217  0.00  0.00    +0.211 HD
ENDBRANCH  25  26
ENDBRANCH   6  25
TORSDOF 6
ENDMDL
MODEL 6
REMARK VINA RESULT:      -8.7      2.205      6.011
REMARK  Name = 9884318
REMARK  6 active torsions:
REMARK  status: ('A' for Active; 'I' for Inactive)
REMARK    1  A    between atoms: C_1  and  N_7
REMARK    2  A    between atoms: C_2  and  N_15
REMARK    3  A    between atoms: C_6  and  C_25
REMARK    4  A    between atoms: C_16  and  C_19
REMARK    5  A    between atoms: C_22  and  C_24
REMARK    6  A    between atoms: C_25  and  O_26
REMARK                            x       y       z     vdW  Elec       q    Type
REMARK                         _______ _______ _______ _____ _____    ______ ____
ROOT
ATOM      1  C   UNL     1      35.946 -22.787 -16.034  0.00  0.00    +0.061 C 
ATOM      2  C   UNL     1      34.822 -22.620 -16.868  0.00  0.00    +0.064 C 
ATOM      3  C   UNL     1      37.207 -22.411 -16.539  0.00  0.00    +0.016 C 
ATOM      4  C   UNL     1      34.955 -22.096 -18.155  0.00  0.00    +0.014 C 
ATOM      5  C   UNL     1      37.339 -21.888 -17.824  0.00  0.00    -0.001 C 
ATOM      6  C   UNL     1      36.213 -21.731 -18.632  0.00  0.00    +0.008 C 
ENDROOT
BRANCH   1   7
ATOM      7  N   UNL     1      35.837 -23.311 -14.740  0.00  0.00    -0.307 N 
ATOM      8  C   UNL     1      35.725 -24.482 -12.094  0.00  0.00    +0.003 C 
ATOM      9  C   UNL     1      34.482 -24.378 -12.982  0.00  0.00    +0.021 C 
ATOM     10  C   UNL     1      36.688 -23.337 -12.428  0.00  0.00    +0.021 C 
ATOM     11  C   UNL     1      34.850 -24.360 -14.467  0.00  0.00    +0.091 C 
ATOM     12  C   UNL     1      37.051 -23.328 -13.912  0.00  0.00    +0.091 C 
ATOM     13  C   UNL     1      35.342 -24.457 -10.617  0.00  0.00    +0.000 C 
ENDBRANCH   1   7
BRANCH   2  15
ATOM     14  O   UNL     1      32.191 -22.422 -18.218  0.00  0.00    -0.266 OA
ATOM     15  N   UNL     1      33.552 -22.979 -16.410  0.00  0.00    -0.277 N 
ATOM     16  C   UNL     1      32.318 -22.871 -17.081  0.00  0.00    +0.284 C 
ATOM     17  H   UNL     1      33.515 -23.357 -15.503  0.00  0.00    +0.155 HD
BRANCH  16  19
ATOM     18  O   UNL     1      29.997 -22.679 -16.573  0.00  0.00    -0.439 OA
ATOM     19  C   UNL     1      31.146 -23.303 -16.302  0.00  0.00    +0.200 C 
ATOM     20  C   UNL     1      31.046 -24.242 -15.346  0.00  0.00    +0.046 C 
ATOM     21  C   UNL     1      29.684 -24.215 -14.963  0.00  0.00    +0.052 C 
ATOM     22  C   UNL     1      29.088 -23.247 -15.739  0.00  0.00    +0.213 C 
BRANCH  22  24
ATOM     23  N   UNL     1      26.651 -22.377 -15.866  0.00  0.00    -0.188 NA
ATOM     24  C   UNL     1      27.759 -22.773 -15.808  0.00  0.00    +0.138 C 
ENDBRANCH  22  24
ENDBRANCH  16  19
ENDBRANCH   2  15
BRANCH   6  25
ATOM     25  C   UNL     1      36.355 -21.170 -20.008  0.00  0.00    +0.164 C 
BRANCH  25  26
ATOM     26  O   UNL     1      36.721 -19.798 -19.924  0.00  0.00    -0.377 OA
ATOM     27  H   UNL     1      37.613 -19.725 -19.548  0.00  0.00    +0.211 HD
ENDBRANCH  25  26
ENDBRANCH   6  25
TORSDOF 6
ENDMDL
MODEL 7
REMARK VINA RESULT:      -8.7      2.513      5.178
REMARK  Name = 9884318
REMARK  6 active torsions:
REMARK  status: ('A' for Active; 'I' for Inactive)
REMARK    1  A    between atoms: C_1  and  N_7
REMARK    2  A    between atoms: C_2  and  N_15
REMARK    3  A    between atoms: C_6  and  C_25
REMARK    4  A    between atoms: C_16  and  C_19
REMARK    5  A    between atoms: C_22  and  C_24
REMARK    6  A    between atoms: C_25  and  O_26
REMARK                            x       y       z     vdW  Elec       q    Type
REMARK                         _______ _______ _______ _____ _____    ______ ____
ROOT
ATOM      1  C   UNL     1      34.420 -23.751 -14.185  0.00  0.00    +0.061 C 
ATOM      2  C   UNL     1      35.570 -23.425 -14.933  0.00  0.00    +0.064 C 
ATOM      3  C   UNL     1      34.599 -24.261 -12.884  0.00  0.00    +0.016 C 
ATOM      4  C   UNL     1      36.847 -23.602 -14.400  0.00  0.00    +0.014 C 
ATOM      5  C   UNL     1      35.876 -24.437 -12.351  0.00  0.00    -0.001 C 
ATOM      6  C   UNL     1      37.000 -24.108 -13.109  0.00  0.00    +0.008 C 
ENDROOT
BRANCH   1   7
ATOM      7  N   UNL     1      33.128 -23.582 -14.701  0.00  0.00    -0.307 N 
ATOM      8  C   UNL     1      30.429 -23.372 -15.725  0.00  0.00    +0.003 C 
ATOM      9  C   UNL     1      31.644 -22.979 -16.570  0.00  0.00    +0.021 C 
ATOM     10  C   UNL     1      30.746 -23.155 -14.242  0.00  0.00    +0.021 C 
ATOM     11  C   UNL     1      32.900 -23.739 -16.140  0.00  0.00    +0.091 C 
ATOM     12  C   UNL     1      32.001 -23.919 -13.821  0.00  0.00    +0.091 C 
ATOM     13  C   UNL     1      29.196 -22.574 -16.140  0.00  0.00    +0.000 C 
ENDBRANCH   1   7
BRANCH   2  15
ATOM     14  O   UNL     1      37.446 -21.768 -16.518  0.00  0.00    -0.266 OA
ATOM     15  N   UNL     1      35.440 -22.917 -16.229  0.00  0.00    -0.277 N 
ATOM     16  C   UNL     1      36.356 -22.129 -16.953  0.00  0.00    +0.284 C 
ATOM     17  H   UNL     1      34.602 -23.138 -16.694  0.00  0.00    +0.155 HD
BRANCH  16  19
ATOM     18  O   UNL     1      36.554 -20.695 -18.846  0.00  0.00    -0.439 OA
ATOM     19  C   UNL     1      35.899 -21.718 -18.292  0.00  0.00    +0.200 C 
ATOM     20  C   UNL     1      34.913 -22.217 -19.057  0.00  0.00    +0.046 C 
ATOM     21  C   UNL     1      34.939 -21.425 -20.229  0.00  0.00    +0.052 C 
ATOM     22  C   UNL     1      35.955 -20.514 -20.053  0.00  0.00    +0.213 C 
BRANCH  22  24
ATOM     23  N   UNL     1      36.865 -18.612 -21.559  0.00  0.00    -0.188 NA
ATOM     24  C   UNL     1      36.452 -19.477 -20.874  0.00  0.00    +0.138 C 
ENDBRANCH  22  24
ENDBRANCH  16  19
ENDBRANCH   2  15
BRANCH   6  25
ATOM     25  C   UNL     1      38.365 -24.297 -12.539  0.00  0.00    +0.164 C 
BRANCH  25  26
ATOM     26  O   UNL     1      38.647 -23.241 -11.628  0.00  0.00    -0.377 OA
ATOM     27  H   UNL     1      39.210 -22.582 -12.063  0.00  0.00    +0.211 HD
ENDBRANCH  25  26
ENDBRANCH   6  25
TORSDOF 6
ENDMDL
MODEL 8
REMARK VINA RESULT:      -8.6      2.870      6.672
REMARK  Name = 9884318
REMARK  6 active torsions:
REMARK  status: ('A' for Active; 'I' for Inactive)
REMARK    1  A    between atoms: C_1  and  N_7
REMARK    2  A    between atoms: C_2  and  N_15
REMARK    3  A    between atoms: C_6  and  C_25
REMARK    4  A    between atoms: C_16  and  C_19
REMARK    5  A    between atoms: C_22  and  C_24
REMARK    6  A    between atoms: C_25  and  O_26
REMARK                            x       y       z     vdW  Elec       q    Type
REMARK                         _______ _______ _______ _____ _____    ______ ____
ROOT
ATOM      1  C   UNL     1      33.704 -22.433 -17.644  0.00  0.00    +0.061 C 
ATOM      2  C   UNL     1      35.114 -22.431 -17.654  0.00  0.00    +0.064 C 
ATOM      3  C   UNL     1      33.034 -21.806 -18.714  0.00  0.00    +0.016 C 
ATOM      4  C   UNL     1      35.824 -21.827 -18.692  0.00  0.00    +0.014 C 
ATOM      5  C   UNL     1      33.744 -21.202 -19.751  0.00  0.00    -0.001 C 
ATOM      6  C   UNL     1      35.138 -21.212 -19.740  0.00  0.00    +0.008 C 
ENDROOT
BRANCH   1   7
ATOM      7  N   UNL     1      32.971 -23.033 -16.612  0.00  0.00    -0.307 N 
ATOM      8  C   UNL     1      31.383 -24.146 -14.463  0.00  0.00    +0.003 C 
ATOM      9  C   UNL     1      32.910 -24.251 -14.474  0.00  0.00    +0.021 C 
ATOM     10  C   UNL     1      30.864 -24.095 -15.904  0.00  0.00    +0.021 C 
ATOM     11  C   UNL     1      33.549 -23.111 -15.268  0.00  0.00    +0.091 C 
ATOM     12  C   UNL     1      31.506 -22.952 -16.689  0.00  0.00    +0.091 C 
ATOM     13  C   UNL     1      30.762 -25.314 -13.703  0.00  0.00    +0.000 C 
ENDBRANCH   1   7
BRANCH   2  15
ATOM     14  O   UNL     1      37.572 -21.547 -16.255  0.00  0.00    -0.266 OA
ATOM     15  N   UNL     1      35.821 -23.041 -16.614  0.00  0.00    -0.277 N 
ATOM     16  C   UNL     1      36.990 -22.591 -15.971  0.00  0.00    +0.284 C 
ATOM     17  H   UNL     1      35.454 -23.895 -16.290  0.00  0.00    +0.155 HD
BRANCH  16  19
ATOM     18  O   UNL     1      38.625 -24.166 -15.243  0.00  0.00    -0.439 OA
ATOM     19  C   UNL     1      37.515 -23.493 -14.931  0.00  0.00    +0.200 C 
ATOM     20  C   UNL     1      37.047 -23.750 -13.698  0.00  0.00    +0.046 C 
ATOM     21  C   UNL     1      37.957 -24.691 -13.162  0.00  0.00    +0.052 C 
ATOM     22  C   UNL     1      38.899 -24.911 -14.141  0.00  0.00    +0.213 C 
BRANCH  22  24
ATOM     23  N   UNL     1      40.996 -26.430 -14.225  0.00  0.00    -0.188 NA
ATOM     24  C   UNL     1      40.043 -25.740 -14.187  0.00  0.00    +0.138 C 
ENDBRANCH  22  24
ENDBRANCH  16  19
ENDBRANCH   2  15
BRANCH   6  25
ATOM     25  C   UNL     1      35.897 -20.567 -20.850  0.00  0.00    +0.164 C 
BRANCH  25  26
ATOM     26  O   UNL     1      36.047 -19.179 -20.577  0.00  0.00    -0.377 OA
ATOM     27  H   UNL     1      35.343 -18.891 -19.975  0.00  0.00    +0.211 HD
ENDBRANCH  25  26
ENDBRANCH   6  25
TORSDOF 6
ENDMDL
MODEL 9
REMARK VINA RESULT:      -8.5      2.408      5.502
REMARK  Name = 9884318
REMARK  6 active torsions:
REMARK  status: ('A' for Active; 'I' for Inactive)
REMARK    1  A    between atoms: C_1  and  N_7
REMARK    2  A    between atoms: C_2  and  N_15
REMARK    3  A    between atoms: C_6  and  C_25
REMARK    4  A    between atoms: C_16  and  C_19
REMARK    5  A    between atoms: C_22  and  C_24
REMARK    6  A    between atoms: C_25  and  O_26
REMARK                            x       y       z     vdW  Elec       q    Type
REMARK                         _______ _______ _______ _____ _____    ______ ____
ROOT
ATOM      1  C   UNL     1      35.966 -24.473 -14.178  0.00  0.00    +0.061 C 
ATOM      2  C   UNL     1      36.881 -24.128 -15.193  0.00  0.00    +0.064 C 
ATOM      3  C   UNL     1      36.463 -25.135 -13.037  0.00  0.00    +0.016 C 
ATOM      4  C   UNL     1      38.237 -24.430 -15.071  0.00  0.00    +0.014 C 
ATOM      5  C   UNL     1      37.819 -25.437 -12.915  0.00  0.00    -0.001 C 
ATOM      6  C   UNL     1      38.706 -25.085 -13.932  0.00  0.00    +0.008 C 
ENDROOT
BRANCH   1   7
ATOM      7  N   UNL     1      34.600 -24.180 -14.280  0.00  0.00    -0.307 N 
ATOM      8  C   UNL     1      31.807 -23.439 -14.440  0.00  0.00    +0.003 C 
ATOM      9  C   UNL     1      32.260 -24.725 -13.743  0.00  0.00    +0.021 C 
ATOM     10  C   UNL     1      32.799 -23.083 -15.552  0.00  0.00    +0.021 C 
ATOM     11  C   UNL     1      33.689 -24.605 -13.213  0.00  0.00    +0.091 C 
ATOM     12  C   UNL     1      34.223 -22.964 -15.013  0.00  0.00    +0.091 C 
ATOM     13  C   UNL     1      30.395 -23.591 -14.998  0.00  0.00    +0.000 C 
ENDBRANCH   1   7
BRANCH   2  15
ATOM     14  O   UNL     1      37.654 -21.487 -16.294  0.00  0.00    -0.266 OA
ATOM     15  N   UNL     1      36.434 -23.471 -16.343  0.00  0.00    -0.277 N 
ATOM     16  C   UNL     1      36.825 -22.212 -16.838  0.00  0.00    +0.284 C 
ATOM     17  H   UNL     1      35.761 -23.951 -16.876  0.00  0.00    +0.155 HD
BRANCH  16  19
ATOM     18  O   UNL     1      36.700 -20.783 -18.742  0.00  0.00    -0.439 OA
ATOM     19  C   UNL     1      36.130 -21.782 -18.064  0.00  0.00    +0.200 C 
ATOM     20  C   UNL     1      34.996 -22.242 -18.617  0.00  0.00    +0.046 C 
ATOM     21  C   UNL     1      34.821 -21.451 -19.777  0.00  0.00    +0.052 C 
ATOM     22  C   UNL     1      35.884 -20.579 -19.808  0.00  0.00    +0.213 C 
BRANCH  22  24
ATOM     23  N   UNL     1      36.551 -18.711 -21.476  0.00  0.00    -0.188 NA
ATOM     24  C   UNL     1      36.248 -19.560 -20.718  0.00  0.00    +0.138 C 
ENDBRANCH  22  24
ENDBRANCH  16  19
ENDBRANCH   2  15
BRANCH   6  25
ATOM     25  C   UNL     1      40.156 -25.408 -13.801  0.00  0.00    +0.164 C 
BRANCH  25  26
ATOM     26  O   UNL     1      40.753 -25.434 -15.092  0.00  0.00    -0.377 OA
ATOM     27  H   UNL     1      41.113 -26.319 -15.263  0.00  0.00    +0.211 HD
ENDBRANCH  25  26
ENDBRANCH   6  25
TORSDOF 6
ENDMDL
