MODEL 1
REMARK VINA RESULT:      -5.2      0.000      0.000
REMARK  Name = 2450
REMARK  5 active torsions:
REMARK  status: ('A' for Active; 'I' for Inactive)
REMARK    1  A    between atoms: C_2  and  N_5
REMARK    2  A    between atoms: C_2  and  C_6
REMARK    3  A    between atoms: C_2  and  C_9
REMARK    4  A    between atoms: C_6  and  O_7
REMARK    5  A    between atoms: C_9  and  O_10
REMARK                            x       y       z     vdW  Elec       q    Type
REMARK                         _______ _______ _______ _____ _____    ______ ____
ROOT
ATOM      1 BR   UNL     1      38.327 -24.765 -12.434  0.00  0.00    -0.047 Br
ATOM      2  C   UNL     1      38.396 -25.225 -14.338  0.00  0.00    +0.243 C 
ENDROOT
BRANCH   2   5
ATOM      3  O   UNL     1      40.270 -26.095 -15.507  0.00  0.00    -0.130 OA
ATOM      4  O   UNL     1      40.657 -24.660 -13.897  0.00  0.00    -0.130 OA
ATOM      5  N   UNL     1      39.895 -25.330 -14.608  0.00  0.00    +0.045 N 
ENDBRANCH   2   5
BRANCH   2   6
ATOM      6  C   UNL     1      37.800 -24.083 -15.168  0.00  0.00    +0.178 C 
BRANCH   6   7
ATOM      7  O   UNL     1      38.802 -23.480 -15.981  0.00  0.00    -0.379 OA
ATOM      8  H   UNL     1      39.670 -23.845 -15.747  0.00  0.00    +0.211 HD
ENDBRANCH   6   7
ENDBRANCH   2   6
BRANCH   2   9
ATOM      9  C   UNL     1      37.706 -26.576 -14.545  0.00  0.00    +0.178 C 
BRANCH   9  10
ATOM     10  O   UNL     1      37.362 -26.746 -15.915  0.00  0.00    -0.379 OA
ATOM     11  H   UNL     1      36.689 -26.093 -16.163  0.00  0.00    +0.211 HD
ENDBRANCH   9  10
ENDBRANCH   2   9
TORSDOF 5
ENDMDL
MODEL 2
REMARK VINA RESULT:      -5.1      1.308      2.703
REMARK  Name = 2450
REMARK  5 active torsions:
REMARK  status: ('A' for Active; 'I' for Inactive)
REMARK    1  A    between atoms: C_2  and  N_5
REMARK    2  A    between atoms: C_2  and  C_6
REMARK    3  A    between atoms: C_2  and  C_9
REMARK    4  A    between atoms: C_6  and  O_7
REMARK    5  A    between atoms: C_9  and  O_10
REMARK                            x       y       z     vdW  Elec       q    Type
REMARK                         _______ _______ _______ _____ _____    ______ ____
ROOT
ATOM      1 BR   UNL     1      38.100 -24.909 -12.507  0.00  0.00    -0.047 Br
ATOM      2  C   UNL     1      38.386 -25.514 -14.348  0.00  0.00    +0.243 C 
ENDROOT
BRANCH   2   5
ATOM      3  O   UNL     1      36.648 -24.399 -15.520  0.00  0.00    -0.130 OA
ATOM      4  O   UNL     1      38.620 -23.444 -15.481  0.00  0.00    -0.130 OA
ATOM      5  N   UNL     1      37.838 -24.355 -15.177  0.00  0.00    +0.045 N 
ENDBRANCH   2   5
BRANCH   2   6
ATOM      6  C   UNL     1      37.559 -26.777 -14.614  0.00  0.00    +0.178 C 
BRANCH   6   7
ATOM      7  O   UNL     1      37.368 -26.964 -16.013  0.00  0.00    -0.379 OA
ATOM      8  H   UNL     1      36.716 -26.323 -16.338  0.00  0.00    +0.211 HD
ENDBRANCH   6   7
ENDBRANCH   2   6
BRANCH   2   9
ATOM      9  C   UNL     1      39.889 -25.691 -14.582  0.00  0.00    +0.178 C 
BRANCH   9  10
ATOM     10  O   UNL     1      40.155 -25.858 -15.970  0.00  0.00    -0.379 OA
ATOM     11  H   UNL     1      41.060 -25.567 -16.163  0.00  0.00    +0.211 HD
ENDBRANCH   9  10
ENDBRANCH   2   9
TORSDOF 5
ENDMDL
MODEL 3
REMARK VINA RESULT:      -5.0      1.339      2.780
REMARK  Name = 2450
REMARK  5 active torsions:
REMARK  status: ('A' for Active; 'I' for Inactive)
REMARK    1  A    between atoms: C_2  and  N_5
REMARK    2  A    between atoms: C_2  and  C_6
REMARK    3  A    between atoms: C_2  and  C_9
REMARK    4  A    between atoms: C_6  and  O_7
REMARK    5  A    between atoms: C_9  and  O_10
REMARK                            x       y       z     vdW  Elec       q    Type
REMARK                         _______ _______ _______ _____ _____    ______ ____
ROOT
ATOM      1 BR   UNL     1      37.842 -25.232 -12.527  0.00  0.00    -0.047 Br
ATOM      2  C   UNL     1      38.311 -25.162 -14.428  0.00  0.00    +0.243 C 
ENDROOT
BRANCH   2   5
ATOM      3  O   UNL     1      38.201 -27.496 -14.849  0.00  0.00    -0.130 OA
ATOM      4  O   UNL     1      36.554 -26.254 -15.586  0.00  0.00    -0.130 OA
ATOM      5  N   UNL     1      37.630 -26.406 -14.993  0.00  0.00    +0.045 N 
ENDBRANCH   2   5
BRANCH   2   6
ATOM      6  C   UNL     1      39.830 -25.284 -14.592  0.00  0.00    +0.178 C 
BRANCH   6   7
ATOM      7  O   UNL     1      40.154 -25.787 -15.884  0.00  0.00    -0.379 OA
ATOM      8  H   UNL     1      39.865 -26.711 -15.953  0.00  0.00    +0.211 HD
ENDBRANCH   6   7
ENDBRANCH   2   6
BRANCH   2   9
ATOM      9  C   UNL     1      37.717 -23.888 -15.037  0.00  0.00    +0.178 C 
BRANCH   9  10
ATOM     10  O   UNL     1      38.615 -23.335 -15.992  0.00  0.00    -0.379 OA
ATOM     11  H   UNL     1      39.303 -22.829 -15.533  0.00  0.00    +0.211 HD
ENDBRANCH   9  10
ENDBRANCH   2   9
TORSDOF 5
ENDMDL
MODEL 4
REMARK VINA RESULT:      -5.0      4.227      4.566
REMARK  Name = 2450
REMARK  5 active torsions:
REMARK  status: ('A' for Active; 'I' for Inactive)
REMARK    1  A    between atoms: C_2  and  N_5
REMARK    2  A    between atoms: C_2  and  C_6
REMARK    3  A    between atoms: C_2  and  C_9
REMARK    4  A    between atoms: C_6  and  O_7
REMARK    5  A    between atoms: C_9  and  O_10
REMARK                            x       y       z     vdW  Elec       q    Type
REMARK                         _______ _______ _______ _____ _____    ______ ____
ROOT
ATOM      1 BR   UNL     1      35.172 -23.882 -13.521  0.00  0.00    -0.047 Br
ATOM      2  C   UNL     1      36.651 -24.159 -12.266  0.00  0.00    +0.243 C 
ENDROOT
BRANCH   2   5
ATOM      3  O   UNL     1      34.878 -25.064 -10.973  0.00  0.00    -0.130 OA
ATOM      4  O   UNL     1      36.433 -23.940  -9.915  0.00  0.00    -0.130 OA
ATOM      5  N   UNL     1      35.933 -24.416 -10.944  0.00  0.00    +0.045 N 
ENDBRANCH   2   5
BRANCH   2   6
ATOM      6  C   UNL     1      37.488 -22.879 -12.161  0.00  0.00    +0.178 C 
BRANCH   6   7
ATOM      7  O   UNL     1      38.742 -23.152 -11.544  0.00  0.00    -0.379 OA
ATOM      8  H   UNL     1      39.006 -24.065 -11.739  0.00  0.00    +0.211 HD
ENDBRANCH   6   7
ENDBRANCH   2   6
BRANCH   2   9
ATOM      9  C   UNL     1      37.447 -25.391 -12.706  0.00  0.00    +0.178 C 
BRANCH   9  10
ATOM     10  O   UNL     1      37.244 -26.460 -11.788  0.00  0.00    -0.379 OA
ATOM     11  H   UNL     1      37.114 -27.287 -12.278  0.00  0.00    +0.211 HD
ENDBRANCH   9  10
ENDBRANCH   2   9
TORSDOF 5
ENDMDL
MODEL 5
REMARK VINA RESULT:      -4.9      1.560      2.412
REMARK  Name = 2450
REMARK  5 active torsions:
REMARK  status: ('A' for Active; 'I' for Inactive)
REMARK    1  A    between atoms: C_2  and  N_5
REMARK    2  A    between atoms: C_2  and  C_6
REMARK    3  A    between atoms: C_2  and  C_9
REMARK    4  A    between atoms: C_6  and  O_7
REMARK    5  A    between atoms: C_9  and  O_10
REMARK                            x       y       z     vdW  Elec       q    Type
REMARK                         _______ _______ _______ _____ _____    ______ ____
ROOT
ATOM      1 BR   UNL     1      37.264 -26.671 -14.579  0.00  0.00    -0.047 Br
ATOM      2  C   UNL     1      38.322 -25.119 -14.019  0.00  0.00    +0.243 C 
ENDROOT
BRANCH   2   5
ATOM      3  O   UNL     1      39.923 -26.657 -14.860  0.00  0.00    -0.130 OA
ATOM      4  O   UNL     1      40.671 -24.794 -13.982  0.00  0.00    -0.130 OA
ATOM      5  N   UNL     1      39.753 -25.556 -14.319  0.00  0.00    +0.045 N 
ENDBRANCH   2   5
BRANCH   2   6
ATOM      6  C   UNL     1      38.154 -24.894 -12.512  0.00  0.00    +0.178 C 
BRANCH   6   7
ATOM      7  O   UNL     1      38.771 -23.673 -12.118  0.00  0.00    -0.379 OA
ATOM      8  H   UNL     1      39.347 -23.834 -11.353  0.00  0.00    +0.211 HD
ENDBRANCH   6   7
ENDBRANCH   2   6
BRANCH   2   9
ATOM      9  C   UNL     1      37.925 -23.915 -14.878  0.00  0.00    +0.178 C 
BRANCH   9  10
ATOM     10  O   UNL     1      38.908 -23.682 -15.880  0.00  0.00    -0.379 OA
ATOM     11  H   UNL     1      39.528 -23.002 -15.573  0.00  0.00    +0.211 HD
ENDBRANCH   9  10
ENDBRANCH   2   9
TORSDOF 5
ENDMDL
MODEL 6
REMARK VINA RESULT:      -4.8      1.992      3.191
REMARK  Name = 2450
REMARK  5 active torsions:
REMARK  status: ('A' for Active; 'I' for Inactive)
REMARK    1  A    between atoms: C_2  and  N_5
REMARK    2  A    between atoms: C_2  and  C_6
REMARK    3  A    between atoms: C_2  and  C_9
REMARK    4  A    between atoms: C_6  and  O_7
REMARK    5  A    between atoms: C_9  and  O_10
REMARK                            x       y       z     vdW  Elec       q    Type
REMARK                         _______ _______ _______ _____ _____    ______ ____
ROOT
ATOM      1 BR   UNL     1      37.485 -23.710 -14.812  0.00  0.00    -0.047 Br
ATOM      2  C   UNL     1      38.246 -25.363 -14.085  0.00  0.00    +0.243 C 
ENDROOT
BRANCH   2   5
ATOM      3  O   UNL     1      38.036 -27.585 -14.893  0.00  0.00    -0.130 OA
ATOM      4  O   UNL     1      36.538 -26.124 -15.543  0.00  0.00    -0.130 OA
ATOM      5  N   UNL     1      37.546 -26.448 -14.900  0.00  0.00    +0.045 N 
ENDBRANCH   2   5
BRANCH   2   6
ATOM      6  C   UNL     1      37.867 -25.501 -12.606  0.00  0.00    +0.178 C 
BRANCH   6   7
ATOM      7  O   UNL     1      36.848 -26.482 -12.442  0.00  0.00    -0.379 OA
ATOM      8  H   UNL     1      37.219 -27.364 -12.603  0.00  0.00    +0.211 HD
ENDBRANCH   6   7
ENDBRANCH   2   6
BRANCH   2   9
ATOM      9  C   UNL     1      39.755 -25.368 -14.347  0.00  0.00    +0.178 C 
BRANCH   9  10
ATOM     10  O   UNL     1      40.017 -25.715 -15.702  0.00  0.00    -0.379 OA
ATOM     11  H   UNL     1      39.869 -26.665 -15.827  0.00  0.00    +0.211 HD
ENDBRANCH   9  10
ENDBRANCH   2   9
TORSDOF 5
ENDMDL
MODEL 7
REMARK VINA RESULT:      -4.8      2.250      2.376
REMARK  Name = 2450
REMARK  5 active torsions:
REMARK  status: ('A' for Active; 'I' for Inactive)
REMARK    1  A    between atoms: C_2  and  N_5
REMARK    2  A    between atoms: C_2  and  C_6
REMARK    3  A    between atoms: C_2  and  C_9
REMARK    4  A    between atoms: C_6  and  O_7
REMARK    5  A    between atoms: C_9  and  O_10
REMARK                            x       y       z     vdW  Elec       q    Type
REMARK                         _______ _______ _______ _____ _____    ______ ____
ROOT
ATOM      1 BR   UNL     1      35.355 -24.436 -12.782  0.00  0.00    -0.047 Br
ATOM      2  C   UNL     1      36.829 -25.023 -13.933  0.00  0.00    +0.243 C 
ENDROOT
BRANCH   2   5
ATOM      3  O   UNL     1      38.836 -26.120 -13.297  0.00  0.00    -0.130 OA
ATOM      4  O   UNL     1      37.074 -26.412 -12.027  0.00  0.00    -0.130 OA
ATOM      5  N   UNL     1      37.649 -25.918 -13.007  0.00  0.00    +0.045 N 
ENDBRANCH   2   5
BRANCH   2   6
ATOM      6  C   UNL     1      37.667 -23.813 -14.359  0.00  0.00    +0.178 C 
BRANCH   6   7
ATOM      7  O   UNL     1      38.642 -24.195 -15.325  0.00  0.00    -0.379 OA
ATOM      8  H   UNL     1      39.233 -23.446 -15.501  0.00  0.00    +0.211 HD
ENDBRANCH   6   7
ENDBRANCH   2   6
BRANCH   2   9
ATOM      9  C   UNL     1      36.252 -25.827 -15.102  0.00  0.00    +0.178 C 
BRANCH   9  10
ATOM     10  O   UNL     1      37.279 -26.586 -15.729  0.00  0.00    -0.379 OA
ATOM     11  H   UNL     1      36.979 -27.502 -15.845  0.00  0.00    +0.211 HD
ENDBRANCH   9  10
ENDBRANCH   2   9
TORSDOF 5
ENDMDL
MODEL 8
REMARK VINA RESULT:      -4.7      2.345      2.886
REMARK  Name = 2450
REMARK  5 active torsions:
REMARK  status: ('A' for Active; 'I' for Inactive)
REMARK    1  A    between atoms: C_2  and  N_5
REMARK    2  A    between atoms: C_2  and  C_6
REMARK    3  A    between atoms: C_2  and  C_9
REMARK    4  A    between atoms: C_6  and  O_7
REMARK    5  A    between atoms: C_9  and  O_10
REMARK                            x       y       z     vdW  Elec       q    Type
REMARK                         _______ _______ _______ _____ _____    ______ ____
ROOT
ATOM      1 BR   UNL     1      37.206 -23.982 -14.452  0.00  0.00    -0.047 Br
ATOM      2  C   UNL     1      38.011 -25.617 -13.732  0.00  0.00    +0.243 C 
ENDROOT
BRANCH   2   5
ATOM      3  O   UNL     1      36.911 -26.441 -11.796  0.00  0.00    -0.130 OA
ATOM      4  O   UNL     1      38.085 -24.602 -11.590  0.00  0.00    -0.130 OA
ATOM      5  N   UNL     1      37.645 -25.553 -12.251  0.00  0.00    +0.045 N 
ENDBRANCH   2   5
BRANCH   2   6
ATOM      6  C   UNL     1      39.534 -25.558 -13.892  0.00  0.00    +0.178 C 
BRANCH   6   7
ATOM      7  O   UNL     1      40.002 -26.679 -14.635  0.00  0.00    -0.379 OA
ATOM      8  H   UNL     1      40.965 -26.752 -14.538  0.00  0.00    +0.211 HD
ENDBRANCH   6   7
ENDBRANCH   2   6
BRANCH   2   9
ATOM      9  C   UNL     1      37.358 -26.827 -14.406  0.00  0.00    +0.178 C 
BRANCH   9  10
ATOM     10  O   UNL     1      37.310 -26.637 -15.816  0.00  0.00    -0.379 OA
ATOM     11  H   UNL     1      36.633 -25.976 -16.030  0.00  0.00    +0.211 HD
ENDBRANCH   9  10
ENDBRANCH   2   9
TORSDOF 5
ENDMDL
MODEL 9
REMARK VINA RESULT:      -4.7      2.193      2.675
REMARK  Name = 2450
REMARK  5 active torsions:
REMARK  status: ('A' for Active; 'I' for Inactive)
REMARK    1  A    between atoms: C_2  and  N_5
REMARK    2  A    between atoms: C_2  and  C_6
REMARK    3  A    between atoms: C_2  and  C_9
REMARK    4  A    between atoms: C_6  and  O_7
REMARK    5  A    between atoms: C_9  and  O_10
REMARK                            x       y       z     vdW  Elec       q    Type
REMARK                         _______ _______ _______ _____ _____    ______ ____
ROOT
ATOM      1 BR   UNL     1      36.683 -23.580 -15.071  0.00  0.00    -0.047 Br
ATOM      2  C   UNL     1      37.130 -25.263 -14.171  0.00  0.00    +0.243 C 
ENDROOT
BRANCH   2   5
ATOM      3  O   UNL     1      39.225 -24.427 -14.912  0.00  0.00    -0.130 OA
ATOM      4  O   UNL     1      39.241 -26.149 -13.556  0.00  0.00    -0.130 OA
ATOM      5  N   UNL     1      38.656 -25.275 -14.210  0.00  0.00    +0.045 N 
ENDBRANCH   2   5
BRANCH   2   6
ATOM      6  C   UNL     1      36.582 -26.444 -14.980  0.00  0.00    +0.178 C 
BRANCH   6   7
ATOM      7  O   UNL     1      37.508 -26.830 -15.991  0.00  0.00    -0.379 OA
ATOM      8  H   UNL     1      37.806 -26.042 -16.473  0.00  0.00    +0.211 HD
ENDBRANCH   6   7
ENDBRANCH   2   6
BRANCH   2   9
ATOM      9  C   UNL     1      36.619 -25.202 -12.729  0.00  0.00    +0.178 C 
BRANCH   9  10
ATOM     10  O   UNL     1      36.840 -26.447 -12.077  0.00  0.00    -0.379 OA
ATOM     11  H   UNL     1      36.071 -27.022 -12.209  0.00  0.00    +0.211 HD
ENDBRANCH   9  10
ENDBRANCH   2   9
TORSDOF 5
ENDMDL
