MODEL 1
REMARK VINA RESULT:      -9.2      0.000      0.000
REMARK  Name = 60867
REMARK  5 active torsions:
REMARK  status: ('A' for Active; 'I' for Inactive)
REMARK    1  A    between atoms: C_1  and  C_12
REMARK    2  A    between atoms: C_6  and  N_16
REMARK    3  A    between atoms: N_16  and  N_18
REMARK    4  A    between atoms: C_19  and  C_21
REMARK    5  A    between atoms: C_19  and  C_23
REMARK                            x       y       z     vdW  Elec       q    Type
REMARK                         _______ _______ _______ _____ _____    ______ ____
ROOT
ATOM      1  C   UNL     1      31.803 -23.286 -15.882  0.00  0.00    +0.015 C 
ATOM      2  C   UNL     1      32.629 -23.113 -16.988  0.00  0.00    +0.003 C 
ATOM      3  C   UNL     1      32.343 -23.636 -14.647  0.00  0.00    +0.003 C 
ATOM      4  C   UNL     1      34.007 -23.291 -16.860  0.00  0.00    +0.016 C 
ATOM      5  C   UNL     1      33.720 -23.815 -14.519  0.00  0.00    +0.016 C 
ATOM      6  C   UNL     1      34.552 -23.642 -15.626  0.00  0.00    +0.065 C 
ENDROOT
BRANCH   1  12
ATOM      7  O   UNL     1      26.436 -22.125 -16.396  0.00  0.00    -0.273 OA
ATOM      8  N   UNL     1      29.850 -22.695 -17.162  0.00  0.00    -0.184 NA
ATOM      9  N   UNL     1      28.521 -22.476 -17.282  0.00  0.00    -0.206 N 
ATOM     10  C   UNL     1      29.412 -23.401 -14.839  0.00  0.00    +0.051 C 
ATOM     11  C   UNL     1      28.246 -22.423 -14.866  0.00  0.00    +0.093 C 
ATOM     12  C   UNL     1      30.322 -23.094 -16.019  0.00  0.00    +0.076 C 
ATOM     13  C   UNL     1      28.932 -24.852 -14.906  0.00  0.00    +0.007 C 
ATOM     14  C   UNL     1      27.636 -22.349 -16.238  0.00  0.00    +0.241 C 
ATOM     15  H   UNL     1      28.157 -22.400 -18.194  0.00  0.00    +0.177 HD
ENDBRANCH   1  12
BRANCH   6  16
ATOM     16  N   UNL     1      35.946 -23.822 -15.496  0.00  0.00    -0.235 N 
ATOM     17  H   UNL     1      36.532 -23.688 -16.275  0.00  0.00    +0.174 HD
BRANCH  16  18
ATOM     18  N   UNL     1      36.476 -24.178 -14.312  0.00  0.00    -0.160 NA
ATOM     19  C   UNL     1      36.862 -25.400 -14.152  0.00  0.00    +0.234 C 
BRANCH  19  21
ATOM     20  N   UNL     1      37.851 -25.850 -11.797  0.00  0.00    -0.188 NA
ATOM     21  C   UNL     1      37.409 -25.650 -12.851  0.00  0.00    +0.132 C 
ENDBRANCH  19  21
BRANCH  19  23
ATOM     22  N   UNL     1      36.653 -27.183 -16.023  0.00  0.00    -0.188 NA
ATOM     23  C   UNL     1      36.747 -26.384 -15.187  0.00  0.00    +0.132 C 
ENDBRANCH  19  23
ENDBRANCH  16  18
ENDBRANCH   6  16
TORSDOF 5
ENDMDL
MODEL 2
REMARK VINA RESULT:      -9.2      7.073      8.349
REMARK  Name = 60867
REMARK  5 active torsions:
REMARK  status: ('A' for Active; 'I' for Inactive)
REMARK    1  A    between atoms: C_1  and  C_12
REMARK    2  A    between atoms: C_6  and  N_16
REMARK    3  A    between atoms: N_16  and  N_18
REMARK    4  A    between atoms: C_19  and  C_21
REMARK    5  A    between atoms: C_19  and  C_23
REMARK                            x       y       z     vdW  Elec       q    Type
REMARK                         _______ _______ _______ _____ _____    ______ ____
ROOT
ATOM      1  C   UNL     1      34.695 -18.339 -21.264  0.00  0.00    +0.015 C 
ATOM      2  C   UNL     1      36.010 -18.713 -21.005  0.00  0.00    +0.003 C 
ATOM      3  C   UNL     1      33.641 -19.179 -20.916  0.00  0.00    +0.003 C 
ATOM      4  C   UNL     1      36.275 -19.938 -20.393  0.00  0.00    +0.016 C 
ATOM      5  C   UNL     1      33.906 -20.404 -20.303  0.00  0.00    +0.016 C 
ATOM      6  C   UNL     1      35.223 -20.784 -20.041  0.00  0.00    +0.065 C 
ENDROOT
BRANCH   1  12
ATOM      7  O   UNL     1      34.098 -13.471 -23.786  0.00  0.00    -0.273 OA
ATOM      8  N   UNL     1      34.462 -16.952 -23.219  0.00  0.00    -0.184 NA
ATOM      9  N   UNL     1      34.251 -15.758 -23.820  0.00  0.00    -0.206 N 
ATOM     10  C   UNL     1      34.038 -15.819 -21.069  0.00  0.00    +0.051 C 
ATOM     11  C   UNL     1      34.604 -14.570 -21.727  0.00  0.00    +0.093 C 
ATOM     12  C   UNL     1      34.410 -17.022 -21.923  0.00  0.00    +0.076 C 
ATOM     13  C   UNL     1      32.518 -15.734 -20.912  0.00  0.00    +0.007 C 
ATOM     14  C   UNL     1      34.272 -14.535 -23.193  0.00  0.00    +0.241 C 
ATOM     15  H   UNL     1      34.068 -15.766 -24.788  0.00  0.00    +0.177 HD
ENDBRANCH   1  12
BRANCH   6  16
ATOM     16  N   UNL     1      35.490 -22.023 -19.421  0.00  0.00    -0.235 N 
ATOM     17  H   UNL     1      35.101 -22.848 -19.789  0.00  0.00    +0.174 HD
BRANCH  16  18
ATOM     18  N   UNL     1      36.275 -22.079 -18.330  0.00  0.00    -0.160 NA
ATOM     19  C   UNL     1      35.763 -22.509 -17.225  0.00  0.00    +0.234 C 
BRANCH  19  21
ATOM     20  N   UNL     1      37.456 -22.536 -15.261  0.00  0.00    -0.188 NA
ATOM     21  C   UNL     1      36.700 -22.523 -16.140  0.00  0.00    +0.132 C 
ENDBRANCH  19  21
BRANCH  19  23
ATOM     22  N   UNL     1      33.290 -23.270 -17.043  0.00  0.00    -0.188 NA
ATOM     23  C   UNL     1      34.396 -22.927 -17.123  0.00  0.00    +0.132 C 
ENDBRANCH  19  23
ENDBRANCH  16  18
ENDBRANCH   6  16
TORSDOF 5
ENDMDL
MODEL 3
REMARK VINA RESULT:      -9.1      6.079      7.911
REMARK  Name = 60867
REMARK  5 active torsions:
REMARK  status: ('A' for Active; 'I' for Inactive)
REMARK    1  A    between atoms: C_1  and  C_12
REMARK    2  A    between atoms: C_6  and  N_16
REMARK    3  A    between atoms: N_16  and  N_18
REMARK    4  A    between atoms: C_19  and  C_21
REMARK    5  A    between atoms: C_19  and  C_23
REMARK                            x       y       z     vdW  Elec       q    Type
REMARK                         _______ _______ _______ _____ _____    ______ ____
ROOT
ATOM      1  C   UNL     1      34.362 -19.808 -20.668  0.00  0.00    +0.015 C 
ATOM      2  C   UNL     1      35.398 -20.632 -20.241  0.00  0.00    +0.003 C 
ATOM      3  C   UNL     1      33.039 -20.123 -20.368  0.00  0.00    +0.003 C 
ATOM      4  C   UNL     1      35.111 -21.784 -19.508  0.00  0.00    +0.016 C 
ATOM      5  C   UNL     1      32.752 -21.275 -19.635  0.00  0.00    +0.016 C 
ATOM      6  C   UNL     1      33.788 -22.105 -19.205  0.00  0.00    +0.065 C 
ENDROOT
BRANCH   1  12
ATOM      7  O   UNL     1      35.053 -15.253 -23.700  0.00  0.00    -0.273 OA
ATOM      8  N   UNL     1      34.199 -17.433 -21.039  0.00  0.00    -0.184 NA
ATOM      9  N   UNL     1      34.433 -16.318 -21.767  0.00  0.00    -0.206 N 
ATOM     10  C   UNL     1      35.547 -18.666 -22.696  0.00  0.00    +0.051 C 
ATOM     11  C   UNL     1      35.060 -17.641 -23.709  0.00  0.00    +0.093 C 
ATOM     12  C   UNL     1      34.670 -18.569 -21.457  0.00  0.00    +0.076 C 
ATOM     13  C   UNL     1      37.014 -18.437 -22.324  0.00  0.00    +0.007 C 
ATOM     14  C   UNL     1      34.877 -16.294 -23.069  0.00  0.00    +0.241 C 
ATOM     15  H   UNL     1      34.273 -15.450 -21.329  0.00  0.00    +0.177 HD
ENDBRANCH   1  12
BRANCH   6  16
ATOM     16  N   UNL     1      33.497 -23.269 -18.463  0.00  0.00    -0.235 N 
ATOM     17  H   UNL     1      32.881 -23.943 -18.831  0.00  0.00    +0.174 HD
BRANCH  16  18
ATOM     18  N   UNL     1      34.058 -23.462 -17.256  0.00  0.00    -0.160 NA
ATOM     19  C   UNL     1      33.299 -23.432 -16.211  0.00  0.00    +0.234 C 
BRANCH  19  21
ATOM     20  N   UNL     1      34.598 -23.828 -14.002  0.00  0.00    -0.188 NA
ATOM     21  C   UNL     1      34.015 -23.652 -14.990  0.00  0.00    +0.132 C 
ENDBRANCH  19  21
BRANCH  19  23
ATOM     22  N   UNL     1      30.743 -23.020 -16.368  0.00  0.00    -0.188 NA
ATOM     23  C   UNL     1      31.887 -23.205 -16.295  0.00  0.00    +0.132 C 
ENDBRANCH  19  23
ENDBRANCH  16  18
ENDBRANCH   6  16
TORSDOF 5
ENDMDL
MODEL 4
REMARK VINA RESULT:      -9.1      7.107      8.494
REMARK  Name = 60867
REMARK  5 active torsions:
REMARK  status: ('A' for Active; 'I' for Inactive)
REMARK    1  A    between atoms: C_1  and  C_12
REMARK    2  A    between atoms: C_6  and  N_16
REMARK    3  A    between atoms: N_16  and  N_18
REMARK    4  A    between atoms: C_19  and  C_21
REMARK    5  A    between atoms: C_19  and  C_23
REMARK                            x       y       z     vdW  Elec       q    Type
REMARK                         _______ _______ _______ _____ _____    ______ ____
ROOT
ATOM      1  C   UNL     1      34.763 -18.337 -21.317  0.00  0.00    +0.015 C 
ATOM      2  C   UNL     1      33.727 -19.192 -20.958  0.00  0.00    +0.003 C 
ATOM      3  C   UNL     1      36.088 -18.689 -21.070  0.00  0.00    +0.003 C 
ATOM      4  C   UNL     1      34.015 -20.412 -20.344  0.00  0.00    +0.016 C 
ATOM      5  C   UNL     1      36.376 -19.909 -20.457  0.00  0.00    +0.016 C 
ATOM      6  C   UNL     1      35.339 -20.770 -20.094  0.00  0.00    +0.065 C 
ENDROOT
BRANCH   1  12
ATOM      7  O   UNL     1      34.072 -13.491 -23.859  0.00  0.00    -0.273 OA
ATOM      8  N   UNL     1      34.457 -16.967 -23.275  0.00  0.00    -0.184 NA
ATOM      9  N   UNL     1      34.224 -15.779 -23.878  0.00  0.00    -0.206 N 
ATOM     10  C   UNL     1      34.114 -15.815 -21.120  0.00  0.00    +0.051 C 
ATOM     11  C   UNL     1      34.655 -14.572 -21.811  0.00  0.00    +0.093 C 
ATOM     12  C   UNL     1      34.454 -17.026 -21.977  0.00  0.00    +0.076 C 
ATOM     13  C   UNL     1      32.601 -15.728 -20.907  0.00  0.00    +0.007 C 
ATOM     14  C   UNL     1      34.268 -14.550 -23.263  0.00  0.00    +0.241 C 
ATOM     15  H   UNL     1      34.004 -15.795 -24.838  0.00  0.00    +0.177 HD
ENDBRANCH   1  12
BRANCH   6  16
ATOM     16  N   UNL     1      35.631 -22.003 -19.474  0.00  0.00    -0.235 N 
ATOM     17  H   UNL     1      36.462 -22.481 -19.700  0.00  0.00    +0.174 HD
BRANCH  16  18
ATOM     18  N   UNL     1      34.779 -22.529 -18.576  0.00  0.00    -0.160 NA
ATOM     19  C   UNL     1      35.153 -22.605 -17.342  0.00  0.00    +0.234 C 
BRANCH  19  21
ATOM     20  N   UNL     1      33.348 -23.643 -15.796  0.00  0.00    -0.188 NA
ATOM     21  C   UNL     1      34.157 -23.180 -16.488  0.00  0.00    +0.132 C 
ENDBRANCH  19  21
BRANCH  19  23
ATOM     22  N   UNL     1      37.480 -21.784 -16.543  0.00  0.00    -0.188 NA
ATOM     23  C   UNL     1      36.438 -22.149 -16.900  0.00  0.00    +0.132 C 
ENDBRANCH  19  23
ENDBRANCH  16  18
ENDBRANCH   6  16
TORSDOF 5
ENDMDL
MODEL 5
REMARK VINA RESULT:      -9.1      6.079      7.866
REMARK  Name = 60867
REMARK  5 active torsions:
REMARK  status: ('A' for Active; 'I' for Inactive)
REMARK    1  A    between atoms: C_1  and  C_12
REMARK    2  A    between atoms: C_6  and  N_16
REMARK    3  A    between atoms: N_16  and  N_18
REMARK    4  A    between atoms: C_19  and  C_21
REMARK    5  A    between atoms: C_19  and  C_23
REMARK                            x       y       z     vdW  Elec       q    Type
REMARK                         _______ _______ _______ _____ _____    ______ ____
ROOT
ATOM      1  C   UNL     1      34.347 -19.838 -20.624  0.00  0.00    +0.015 C 
ATOM      2  C   UNL     1      33.023 -20.138 -20.317  0.00  0.00    +0.003 C 
ATOM      3  C   UNL     1      35.379 -20.659 -20.176  0.00  0.00    +0.003 C 
ATOM      4  C   UNL     1      32.727 -21.268 -19.555  0.00  0.00    +0.016 C 
ATOM      5  C   UNL     1      35.083 -21.789 -19.414  0.00  0.00    +0.016 C 
ATOM      6  C   UNL     1      33.756 -22.094 -19.104  0.00  0.00    +0.065 C 
ENDROOT
BRANCH   1  12
ATOM      7  O   UNL     1      35.079 -15.372 -23.776  0.00  0.00    -0.273 OA
ATOM      8  N   UNL     1      34.189 -17.475 -21.064  0.00  0.00    -0.184 NA
ATOM      9  N   UNL     1      34.434 -16.381 -21.821  0.00  0.00    -0.206 N 
ATOM     10  C   UNL     1      35.560 -18.755 -22.668  0.00  0.00    +0.051 C 
ATOM     11  C   UNL     1      35.086 -17.759 -23.716  0.00  0.00    +0.093 C 
ATOM     12  C   UNL     1      34.666 -18.623 -21.443  0.00  0.00    +0.076 C 
ATOM     13  C   UNL     1      37.021 -18.515 -22.283  0.00  0.00    +0.007 C 
ATOM     14  C   UNL     1      34.894 -16.394 -23.117  0.00  0.00    +0.241 C 
ATOM     15  H   UNL     1      34.267 -15.501 -21.410  0.00  0.00    +0.177 HD
ENDBRANCH   1  12
BRANCH   6  16
ATOM     16  N   UNL     1      33.457 -23.237 -18.333  0.00  0.00    -0.235 N 
ATOM     17  H   UNL     1      33.808 -24.116 -18.604  0.00  0.00    +0.174 HD
BRANCH  16  18
ATOM     18  N   UNL     1      32.692 -23.131 -17.231  0.00  0.00    -0.160 NA
ATOM     19  C   UNL     1      33.234 -23.358 -16.081  0.00  0.00    +0.234 C 
BRANCH  19  21
ATOM     20  N   UNL     1      31.577 -23.091 -14.104  0.00  0.00    -0.188 NA
ATOM     21  C   UNL     1      32.318 -23.210 -14.990  0.00  0.00    +0.132 C 
ENDBRANCH  19  21
BRANCH  19  23
ATOM     22  N   UNL     1      35.734 -24.004 -15.830  0.00  0.00    -0.188 NA
ATOM     23  C   UNL     1      34.615 -23.716 -15.940  0.00  0.00    +0.132 C 
ENDBRANCH  19  23
ENDBRANCH  16  18
ENDBRANCH   6  16
TORSDOF 5
ENDMDL
MODEL 6
REMARK VINA RESULT:      -9.1      6.381      7.860
REMARK  Name = 60867
REMARK  5 active torsions:
REMARK  status: ('A' for Active; 'I' for Inactive)
REMARK    1  A    between atoms: C_1  and  C_12
REMARK    2  A    between atoms: C_6  and  N_16
REMARK    3  A    between atoms: N_16  and  N_18
REMARK    4  A    between atoms: C_19  and  C_21
REMARK    5  A    between atoms: C_19  and  C_23
REMARK                            x       y       z     vdW  Elec       q    Type
REMARK                         _______ _______ _______ _____ _____    ______ ____
ROOT
ATOM      1  C   UNL     1      34.601 -19.900 -21.201  0.00  0.00    +0.015 C 
ATOM      2  C   UNL     1      33.396 -20.316 -20.644  0.00  0.00    +0.003 C 
ATOM      3  C   UNL     1      35.811 -20.369 -20.697  0.00  0.00    +0.003 C 
ATOM      4  C   UNL     1      33.399 -21.209 -19.572  0.00  0.00    +0.016 C 
ATOM      5  C   UNL     1      35.814 -21.262 -19.625  0.00  0.00    +0.016 C 
ATOM      6  C   UNL     1      34.608 -21.682 -19.063  0.00  0.00    +0.065 C 
ENDROOT
BRANCH   1  12
ATOM      7  O   UNL     1      34.961 -16.592 -25.600  0.00  0.00    -0.273 OA
ATOM      8  N   UNL     1      34.241 -19.375 -23.524  0.00  0.00    -0.184 NA
ATOM      9  N   UNL     1      34.279 -18.528 -24.579  0.00  0.00    -0.206 N 
ATOM     10  C   UNL     1      34.977 -17.484 -22.121  0.00  0.00    +0.051 C 
ATOM     11  C   UNL     1      35.695 -16.971 -23.359  0.00  0.00    +0.093 C 
ATOM     12  C   UNL     1      34.598 -18.939 -22.353  0.00  0.00    +0.076 C 
ATOM     13  C   UNL     1      33.727 -16.657 -21.811  0.00  0.00    +0.007 C 
ATOM     14  C   UNL     1      34.934 -17.319 -24.608  0.00  0.00    +0.241 C 
ATOM     15  H   UNL     1      33.797 -18.800 -25.394  0.00  0.00    +0.177 HD
ENDBRANCH   1  12
BRANCH   6  16
ATOM     16  N   UNL     1      34.611 -22.586 -17.980  0.00  0.00    -0.235 N 
ATOM     17  H   UNL     1      33.819 -23.142 -17.803  0.00  0.00    +0.174 HD
BRANCH  16  18
ATOM     18  N   UNL     1      35.693 -22.689 -17.187  0.00  0.00    -0.160 NA
ATOM     19  C   UNL     1      35.518 -22.965 -15.937  0.00  0.00    +0.234 C 
BRANCH  19  21
ATOM     20  N   UNL     1      37.738 -23.116 -14.606  0.00  0.00    -0.188 NA
ATOM     21  C   UNL     1      36.746 -23.049 -15.203  0.00  0.00    +0.132 C 
ENDBRANCH  19  21
BRANCH  19  23
ATOM     22  N   UNL     1      33.161 -23.327 -14.916  0.00  0.00    -0.188 NA
ATOM     23  C   UNL     1      34.217 -23.166 -15.371  0.00  0.00    +0.132 C 
ENDBRANCH  19  23
ENDBRANCH  16  18
ENDBRANCH   6  16
TORSDOF 5
ENDMDL
MODEL 7
REMARK VINA RESULT:      -8.9      4.539      7.766
REMARK  Name = 60867
REMARK  5 active torsions:
REMARK  status: ('A' for Active; 'I' for Inactive)
REMARK    1  A    between atoms: C_1  and  C_12
REMARK    2  A    between atoms: C_6  and  N_16
REMARK    3  A    between atoms: N_16  and  N_18
REMARK    4  A    between atoms: C_19  and  C_21
REMARK    5  A    between atoms: C_19  and  C_23
REMARK                            x       y       z     vdW  Elec       q    Type
REMARK                         _______ _______ _______ _____ _____    ______ ____
ROOT
ATOM      1  C   UNL     1      35.626 -23.125 -15.250  0.00  0.00    +0.015 C 
ATOM      2  C   UNL     1      36.591 -22.451 -15.991  0.00  0.00    +0.003 C 
ATOM      3  C   UNL     1      34.403 -23.462 -15.825  0.00  0.00    +0.003 C 
ATOM      4  C   UNL     1      36.334 -22.110 -17.319  0.00  0.00    +0.016 C 
ATOM      5  C   UNL     1      34.145 -23.121 -17.153  0.00  0.00    +0.016 C 
ATOM      6  C   UNL     1      35.111 -22.445 -17.900  0.00  0.00    +0.065 C 
ENDROOT
BRANCH   1  12
ATOM      7  O   UNL     1      36.401 -24.099  -9.877  0.00  0.00    -0.273 OA
ATOM      8  N   UNL     1      34.925 -23.947 -13.097  0.00  0.00    -0.184 NA
ATOM      9  N   UNL     1      35.154 -24.238 -11.796  0.00  0.00    -0.206 N 
ATOM     10  C   UNL     1      37.314 -23.355 -13.271  0.00  0.00    +0.051 C 
ATOM     11  C   UNL     1      37.219 -22.953 -11.806  0.00  0.00    +0.093 C 
ATOM     12  C   UNL     1      35.902 -23.491 -13.822  0.00  0.00    +0.076 C 
ATOM     13  C   UNL     1      38.078 -24.668 -13.447  0.00  0.00    +0.007 C 
ATOM     14  C   UNL     1      36.247 -23.830 -11.068  0.00  0.00    +0.241 C 
ATOM     15  H   UNL     1      34.482 -24.787 -11.331  0.00  0.00    +0.177 HD
ENDBRANCH   1  12
BRANCH   6  16
ATOM     16  N   UNL     1      34.850 -22.101 -19.243  0.00  0.00    -0.235 N 
ATOM     17  H   UNL     1      34.133 -22.561 -19.736  0.00  0.00    +0.174 HD
BRANCH  16  18
ATOM     18  N   UNL     1      35.578 -21.147 -19.852  0.00  0.00    -0.160 NA
ATOM     19  C   UNL     1      34.958 -20.218 -20.500  0.00  0.00    +0.234 C 
BRANCH  19  21
ATOM     20  N   UNL     1      36.559 -18.490 -21.585  0.00  0.00    -0.188 NA
ATOM     21  C   UNL     1      35.844 -19.265 -21.099  0.00  0.00    +0.132 C 
ENDBRANCH  19  21
BRANCH  19  23
ATOM     22  N   UNL     1      32.371 -20.128 -20.658  0.00  0.00    -0.188 NA
ATOM     23  C   UNL     1      33.529 -20.168 -20.590  0.00  0.00    +0.132 C 
ENDBRANCH  19  23
ENDBRANCH  16  18
ENDBRANCH   6  16
TORSDOF 5
ENDMDL
MODEL 8
REMARK VINA RESULT:      -8.9      1.578      2.192
REMARK  Name = 60867
REMARK  5 active torsions:
REMARK  status: ('A' for Active; 'I' for Inactive)
REMARK    1  A    between atoms: C_1  and  C_12
REMARK    2  A    between atoms: C_6  and  N_16
REMARK    3  A    between atoms: N_16  and  N_18
REMARK    4  A    between atoms: C_19  and  C_21
REMARK    5  A    between atoms: C_19  and  C_23
REMARK                            x       y       z     vdW  Elec       q    Type
REMARK                         _______ _______ _______ _____ _____    ______ ____
ROOT
ATOM      1  C   UNL     1      33.086 -23.359 -14.927  0.00  0.00    +0.015 C 
ATOM      2  C   UNL     1      34.138 -22.936 -15.733  0.00  0.00    +0.003 C 
ATOM      3  C   UNL     1      33.326 -23.808 -13.631  0.00  0.00    +0.003 C 
ATOM      4  C   UNL     1      35.443 -22.961 -15.240  0.00  0.00    +0.016 C 
ATOM      5  C   UNL     1      34.630 -23.833 -13.138  0.00  0.00    +0.016 C 
ATOM      6  C   UNL     1      35.689 -23.409 -13.942  0.00  0.00    +0.065 C 
ENDROOT
BRANCH   1  12
ATOM      7  O   UNL     1      27.941 -22.801 -16.833  0.00  0.00    -0.273 OA
ATOM      8  N   UNL     1      31.481 -22.878 -16.658  0.00  0.00    -0.184 NA
ATOM      9  N   UNL     1      30.214 -22.808 -17.127  0.00  0.00    -0.206 N 
ATOM     10  C   UNL     1      30.545 -23.864 -14.599  0.00  0.00    +0.051 C 
ATOM     11  C   UNL     1      29.302 -23.036 -14.884  0.00  0.00    +0.093 C 
ATOM     12  C   UNL     1      31.683 -23.333 -15.457  0.00  0.00    +0.076 C 
ATOM     13  C   UNL     1      30.312 -25.348 -14.891  0.00  0.00    +0.007 C 
ATOM     14  C   UNL     1      29.074 -22.895 -16.364  0.00  0.00    +0.241 C 
ATOM     15  H   UNL     1      30.099 -22.683 -18.098  0.00  0.00    +0.177 HD
ENDBRANCH   1  12
BRANCH   6  16
ATOM     16  N   UNL     1      37.008 -23.434 -13.443  0.00  0.00    -0.235 N 
ATOM     17  H   UNL     1      37.209 -23.031 -12.568  0.00  0.00    +0.174 HD
BRANCH  16  18
ATOM     18  N   UNL     1      37.993 -24.006 -14.159  0.00  0.00    -0.160 NA
ATOM     19  C   UNL     1      38.385 -25.192 -13.831  0.00  0.00    +0.234 C 
BRANCH  19  21
ATOM     20  N   UNL     1      40.287 -26.087 -15.350  0.00  0.00    -0.188 NA
ATOM     21  C   UNL     1      39.435 -25.688 -14.671  0.00  0.00    +0.132 C 
ENDBRANCH  19  21
BRANCH  19  23
ATOM     22  N   UNL     1      37.337 -26.502 -11.853  0.00  0.00    -0.188 NA
ATOM     23  C   UNL     1      37.809 -25.916 -12.737  0.00  0.00    +0.132 C 
ENDBRANCH  19  23
ENDBRANCH  16  18
ENDBRANCH   6  16
TORSDOF 5
ENDMDL
MODEL 9
REMARK VINA RESULT:      -8.8      3.461      7.984
REMARK  Name = 60867
REMARK  5 active torsions:
REMARK  status: ('A' for Active; 'I' for Inactive)
REMARK    1  A    between atoms: C_1  and  C_12
REMARK    2  A    between atoms: C_6  and  N_16
REMARK    3  A    between atoms: N_16  and  N_18
REMARK    4  A    between atoms: C_19  and  C_21
REMARK    5  A    between atoms: C_19  and  C_23
REMARK                            x       y       z     vdW  Elec       q    Type
REMARK                         _______ _______ _______ _____ _____    ______ ____
ROOT
ATOM      1  C   UNL     1      34.484 -24.210 -14.818  0.00  0.00    +0.015 C 
ATOM      2  C   UNL     1      33.804 -24.264 -13.606  0.00  0.00    +0.003 C 
ATOM      3  C   UNL     1      33.877 -23.657 -15.944  0.00  0.00    +0.003 C 
ATOM      4  C   UNL     1      32.505 -23.763 -13.516  0.00  0.00    +0.016 C 
ATOM      5  C   UNL     1      32.578 -23.156 -15.854  0.00  0.00    +0.016 C 
ATOM      6  C   UNL     1      31.893 -23.208 -14.639  0.00  0.00    +0.065 C 
ENDROOT
BRANCH   1  12
ATOM      7  O   UNL     1      39.512 -26.475 -14.826  0.00  0.00    -0.273 OA
ATOM      8  N   UNL     1      36.052 -25.946 -15.390  0.00  0.00    -0.184 NA
ATOM      9  N   UNL     1      37.303 -26.459 -15.439  0.00  0.00    -0.206 N 
ATOM     10  C   UNL     1      37.054 -23.877 -14.493  0.00  0.00    +0.051 C 
ATOM     11  C   UNL     1      38.123 -24.774 -13.887  0.00  0.00    +0.093 C 
ATOM     12  C   UNL     1      35.880 -24.749 -14.916  0.00  0.00    +0.076 C 
ATOM     13  C   UNL     1      37.589 -23.095 -15.694  0.00  0.00    +0.007 C 
ATOM     14  C   UNL     1      38.396 -25.960 -14.770  0.00  0.00    +0.241 C 
ATOM     15  H   UNL     1      37.443 -27.255 -16.001  0.00  0.00    +0.177 HD
ENDBRANCH   1  12
BRANCH   6  16
ATOM     16  N   UNL     1      30.579 -22.701 -14.548  0.00  0.00    -0.235 N 
ATOM     17  H   UNL     1      30.228 -22.403 -13.678  0.00  0.00    +0.174 HD
BRANCH  16  18
ATOM     18  N   UNL     1      29.805 -22.624 -15.646  0.00  0.00    -0.160 NA
ATOM     19  C   UNL     1      28.989 -23.594 -15.894  0.00  0.00    +0.234 C 
BRANCH  19  21
ATOM     20  N   UNL     1      27.602 -23.224 -18.054  0.00  0.00    -0.188 NA
ATOM     21  C   UNL     1      28.222 -23.391 -17.087  0.00  0.00    +0.132 C 
ENDBRANCH  19  21
BRANCH  19  23
ATOM     22  N   UNL     1      28.797 -25.674 -14.357  0.00  0.00    -0.188 NA
ATOM     23  C   UNL     1      28.881 -24.742 -15.044  0.00  0.00    +0.132 C 
ENDBRANCH  19  23
ENDBRANCH  16  18
ENDBRANCH   6  16
TORSDOF 5
ENDMDL
