MODEL 1
REMARK VINA RESULT:      -6.0      0.000      0.000
REMARK  Name = 2266
REMARK  10 active torsions:
REMARK  status: ('A' for Active; 'I' for Inactive)
REMARK    1  A    between atoms: C_1  and  C_2
REMARK    2  A    between atoms: C_1  and  C_9
REMARK    3  A    between atoms: C_2  and  C_3
REMARK    4  A    between atoms: C_3  and  C_4
REMARK    5  A    between atoms: C_4  and  C_6
REMARK    6  A    between atoms: C_6  and  O_7
REMARK    7  A    between atoms: C_9  and  C_10
REMARK    8  A    between atoms: C_10  and  C_11
REMARK    9  A    between atoms: C_11  and  C_13
REMARK   10  A    between atoms: C_13  and  O_14
REMARK                            x       y       z     vdW  Elec       q    Type
REMARK                         _______ _______ _______ _____ _____    ______ ____
ROOT
ATOM      1  C   UNL     1      36.699 -24.429 -15.032  0.00  0.00    +0.000 C 
ENDROOT
BRANCH   1   2
ATOM      2  C   UNL     1      36.610 -25.955 -15.087  0.00  0.00    +0.001 C 
BRANCH   2   3
ATOM      3  C   UNL     1      37.866 -26.605 -14.504  0.00  0.00    +0.012 C 
BRANCH   3   4
ATOM      4  C   UNL     1      38.946 -25.569 -14.219  0.00  0.00    +0.109 C 
BRANCH   4   6
ATOM      5  O   UNL     1      41.176 -26.496 -14.075  0.00  0.00    -0.250 OA
ATOM      6  C   UNL     1      40.276 -26.024 -14.754  0.00  0.00    +0.314 C 
BRANCH   6   7
ATOM      7  O   UNL     1      40.343 -25.862 -16.099  0.00  0.00    -0.480 OA
ATOM      8  H   UNL     1      39.793 -25.233 -16.523  0.00  0.00    +0.295 HD
ENDBRANCH   6   7
ENDBRANCH   4   6
ENDBRANCH   3   4
ENDBRANCH   2   3
ENDBRANCH   1   2
BRANCH   1   9
ATOM      9  C   UNL     1      35.371 -23.753 -14.683  0.00  0.00    +0.001 C 
BRANCH   9  10
ATOM     10  C   UNL     1      34.805 -24.184 -13.329  0.00  0.00    +0.012 C 
BRANCH  10  11
ATOM     11  C   UNL     1      35.630 -23.618 -12.180  0.00  0.00    +0.109 C 
BRANCH  11  13
ATOM     12  O   UNL     1      35.381 -24.470  -9.935  0.00  0.00    -0.250 OA
ATOM     13  C   UNL     1      35.787 -24.633 -11.078  0.00  0.00    +0.314 C 
BRANCH  13  14
ATOM     14  O   UNL     1      36.419 -25.760 -11.493  0.00  0.00    -0.480 OA
ATOM     15  H   UNL     1      36.865 -26.302 -10.873  0.00  0.00    +0.295 HD
ENDBRANCH  13  14
ENDBRANCH  11  13
ENDBRANCH  10  11
ENDBRANCH   9  10
ENDBRANCH   1   9
TORSDOF 10
ENDMDL
MODEL 2
REMARK VINA RESULT:      -6.0      9.270     11.300
REMARK  Name = 2266
REMARK  10 active torsions:
REMARK  status: ('A' for Active; 'I' for Inactive)
REMARK    1  A    between atoms: C_1  and  C_2
REMARK    2  A    between atoms: C_1  and  C_9
REMARK    3  A    between atoms: C_2  and  C_3
REMARK    4  A    between atoms: C_3  and  C_4
REMARK    5  A    between atoms: C_4  and  C_6
REMARK    6  A    between atoms: C_6  and  O_7
REMARK    7  A    between atoms: C_9  and  C_10
REMARK    8  A    between atoms: C_10  and  C_11
REMARK    9  A    between atoms: C_11  and  C_13
REMARK   10  A    between atoms: C_13  and  O_14
REMARK                            x       y       z     vdW  Elec       q    Type
REMARK                         _______ _______ _______ _____ _____    ______ ____
ROOT
ATOM      1  C   UNL     1      35.035 -20.059 -20.821  0.00  0.00    +0.000 C 
ENDROOT
BRANCH   1   2
ATOM      2  C   UNL     1      33.513 -19.944 -20.717  0.00  0.00    +0.001 C 
BRANCH   2   3
ATOM      3  C   UNL     1      32.954 -20.920 -19.679  0.00  0.00    +0.012 C 
BRANCH   3   4
ATOM      4  C   UNL     1      33.957 -22.019 -19.353  0.00  0.00    +0.109 C 
BRANCH   4   6
ATOM      5  O   UNL     1      34.295 -23.419 -17.409  0.00  0.00    -0.250 OA
ATOM      6  C   UNL     1      33.539 -22.775 -18.123  0.00  0.00    +0.314 C 
BRANCH   6   7
ATOM      7  O   UNL     1      32.210 -22.634 -17.891  0.00  0.00    -0.480 OA
ATOM      8  H   UNL     1      31.878 -21.829 -17.545  0.00  0.00    +0.295 HD
ENDBRANCH   6   7
ENDBRANCH   4   6
ENDBRANCH   3   4
ENDBRANCH   2   3
ENDBRANCH   1   2
BRANCH   1   9
ATOM      9  C   UNL     1      35.669 -18.975 -21.698  0.00  0.00    +0.001 C 
BRANCH   9  10
ATOM     10  C   UNL     1      34.651 -18.183 -22.519  0.00  0.00    +0.012 C 
BRANCH  10  11
ATOM     11  C   UNL     1      34.930 -18.307 -24.012  0.00  0.00    +0.109 C 
BRANCH  11  13
ATOM     12  O   UNL     1      34.744 -16.708 -25.812  0.00  0.00    -0.250 OA
ATOM     13  C   UNL     1      35.053 -16.948 -24.652  0.00  0.00    +0.314 C 
BRANCH  13  14
ATOM     14  O   UNL     1      35.531 -16.010 -23.796  0.00  0.00    -0.480 OA
ATOM     15  H   UNL     1      35.184 -15.947 -22.929  0.00  0.00    +0.295 HD
ENDBRANCH  13  14
ENDBRANCH  11  13
ENDBRANCH  10  11
ENDBRANCH   9  10
ENDBRANCH   1   9
TORSDOF 10
ENDMDL
MODEL 3
REMARK VINA RESULT:      -5.9     12.275     13.619
REMARK  Name = 2266
REMARK  10 active torsions:
REMARK  status: ('A' for Active; 'I' for Inactive)
REMARK    1  A    between atoms: C_1  and  C_2
REMARK    2  A    between atoms: C_1  and  C_9
REMARK    3  A    between atoms: C_2  and  C_3
REMARK    4  A    between atoms: C_3  and  C_4
REMARK    5  A    between atoms: C_4  and  C_6
REMARK    6  A    between atoms: C_6  and  O_7
REMARK    7  A    between atoms: C_9  and  C_10
REMARK    8  A    between atoms: C_10  and  C_11
REMARK    9  A    between atoms: C_11  and  C_13
REMARK   10  A    between atoms: C_13  and  O_14
REMARK                            x       y       z     vdW  Elec       q    Type
REMARK                         _______ _______ _______ _____ _____    ______ ____
ROOT
ATOM      1  C   UNL     1      34.032 -18.038 -21.215  0.00  0.00    +0.000 C 
ENDROOT
BRANCH   1   2
ATOM      2  C   UNL     1      34.577 -19.115 -22.155  0.00  0.00    +0.001 C 
BRANCH   2   3
ATOM      3  C   UNL     1      35.448 -18.502 -23.253  0.00  0.00    +0.012 C 
BRANCH   3   4
ATOM      4  C   UNL     1      34.647 -18.262 -24.527  0.00  0.00    +0.109 C 
BRANCH   4   6
ATOM      5  O   UNL     1      34.209 -16.353 -25.947  0.00  0.00    -0.250 OA
ATOM      6  C   UNL     1      34.788 -16.836 -24.984  0.00  0.00    +0.314 C 
BRANCH   6   7
ATOM      7  O   UNL     1      35.628 -16.144 -24.176  0.00  0.00    -0.480 OA
ATOM      8  H   UNL     1      35.434 -16.057 -23.264  0.00  0.00    +0.295 HD
ENDBRANCH   6   7
ENDBRANCH   4   6
ENDBRANCH   3   4
ENDBRANCH   2   3
ENDBRANCH   1   2
BRANCH   1   9
ATOM      9  C   UNL     1      35.011 -16.886 -20.974  0.00  0.00    +0.001 C 
BRANCH   9  10
ATOM     10  C   UNL     1      34.323 -15.542 -20.732  0.00  0.00    +0.012 C 
BRANCH  10  11
ATOM     11  C   UNL     1      33.072 -15.399 -21.590  0.00  0.00    +0.109 C 
BRANCH  11  13
ATOM     12  O   UNL     1      34.178 -13.867 -23.092  0.00  0.00    -0.250 OA
ATOM     13  C   UNL     1      33.166 -14.189 -22.483  0.00  0.00    +0.314 C 
BRANCH  13  14
ATOM     14  O   UNL     1      32.000 -13.499 -22.552  0.00  0.00    -0.480 OA
ATOM     15  H   UNL     1      31.200 -13.950 -22.734  0.00  0.00    +0.295 HD
ENDBRANCH  13  14
ENDBRANCH  11  13
ENDBRANCH  10  11
ENDBRANCH   9  10
ENDBRANCH   1   9
TORSDOF 10
ENDMDL
MODEL 4
REMARK VINA RESULT:      -5.9     10.621     12.437
REMARK  Name = 2266
REMARK  10 active torsions:
REMARK  status: ('A' for Active; 'I' for Inactive)
REMARK    1  A    between atoms: C_1  and  C_2
REMARK    2  A    between atoms: C_1  and  C_9
REMARK    3  A    between atoms: C_2  and  C_3
REMARK    4  A    between atoms: C_3  and  C_4
REMARK    5  A    between atoms: C_4  and  C_6
REMARK    6  A    between atoms: C_6  and  O_7
REMARK    7  A    between atoms: C_9  and  C_10
REMARK    8  A    between atoms: C_10  and  C_11
REMARK    9  A    between atoms: C_11  and  C_13
REMARK   10  A    between atoms: C_13  and  O_14
REMARK                            x       y       z     vdW  Elec       q    Type
REMARK                         _______ _______ _______ _____ _____    ______ ____
ROOT
ATOM      1  C   UNL     1      35.324 -18.684 -22.715  0.00  0.00    +0.000 C 
ENDROOT
BRANCH   1   2
ATOM      2  C   UNL     1      34.480 -18.792 -21.443  0.00  0.00    +0.001 C 
BRANCH   2   3
ATOM      3  C   UNL     1      34.780 -20.088 -20.688  0.00  0.00    +0.012 C 
BRANCH   3   4
ATOM      4  C   UNL     1      33.510 -20.702 -20.112  0.00  0.00    +0.109 C 
BRANCH   4   6
ATOM      5  O   UNL     1      34.890 -22.567 -19.426  0.00  0.00    -0.250 OA
ATOM      6  C   UNL     1      33.819 -21.978 -19.379  0.00  0.00    +0.314 C 
BRANCH   6   7
ATOM      7  O   UNL     1      32.760 -22.384 -18.636  0.00  0.00    -0.480 OA
ATOM      8  H   UNL     1      32.448 -23.265 -18.709  0.00  0.00    +0.295 HD
ENDBRANCH   6   7
ENDBRANCH   4   6
ENDBRANCH   3   4
ENDBRANCH   2   3
ENDBRANCH   1   2
BRANCH   1   9
ATOM      9  C   UNL     1      34.635 -19.259 -23.955  0.00  0.00    +0.001 C 
BRANCH   9  10
ATOM     10  C   UNL     1      34.457 -18.240 -25.081  0.00  0.00    +0.012 C 
BRANCH  10  11
ATOM     11  C   UNL     1      34.796 -16.831 -24.609  0.00  0.00    +0.109 C 
BRANCH  11  13
ATOM     12  O   UNL     1      33.614 -15.754 -26.418  0.00  0.00    -0.250 OA
ATOM     13  C   UNL     1      33.862 -15.819 -25.221  0.00  0.00    +0.314 C 
BRANCH  13  14
ATOM     14  O   UNL     1      33.311 -14.992 -24.298  0.00  0.00    -0.480 OA
ATOM     15  H   UNL     1      32.859 -14.219 -24.571  0.00  0.00    +0.295 HD
ENDBRANCH  13  14
ENDBRANCH  11  13
ENDBRANCH  10  11
ENDBRANCH   9  10
ENDBRANCH   1   9
TORSDOF 10
ENDMDL
MODEL 5
REMARK VINA RESULT:      -5.9     10.738     12.150
REMARK  Name = 2266
REMARK  10 active torsions:
REMARK  status: ('A' for Active; 'I' for Inactive)
REMARK    1  A    between atoms: C_1  and  C_2
REMARK    2  A    between atoms: C_1  and  C_9
REMARK    3  A    between atoms: C_2  and  C_3
REMARK    4  A    between atoms: C_3  and  C_4
REMARK    5  A    between atoms: C_4  and  C_6
REMARK    6  A    between atoms: C_6  and  O_7
REMARK    7  A    between atoms: C_9  and  C_10
REMARK    8  A    between atoms: C_10  and  C_11
REMARK    9  A    between atoms: C_11  and  C_13
REMARK   10  A    between atoms: C_13  and  O_14
REMARK                            x       y       z     vdW  Elec       q    Type
REMARK                         _______ _______ _______ _____ _____    ______ ____
ROOT
ATOM      1  C   UNL     1      35.393 -18.168 -22.707  0.00  0.00    +0.000 C 
ENDROOT
BRANCH   1   2
ATOM      2  C   UNL     1      34.889 -19.118 -23.796  0.00  0.00    +0.001 C 
BRANCH   2   3
ATOM      3  C   UNL     1      34.260 -18.346 -24.957  0.00  0.00    +0.012 C 
BRANCH   3   4
ATOM      4  C   UNL     1      34.898 -16.973 -25.121  0.00  0.00    +0.109 C 
BRANCH   4   6
ATOM      5  O   UNL     1      33.411 -15.263 -24.275  0.00  0.00    -0.250 OA
ATOM      6  C   UNL     1      33.845 -15.904 -25.221  0.00  0.00    +0.314 C 
BRANCH   6   7
ATOM      7  O   UNL     1      33.450 -15.725 -26.506  0.00  0.00    -0.480 OA
ATOM      8  H   UNL     1      34.082 -15.744 -27.197  0.00  0.00    +0.295 HD
ENDBRANCH   6   7
ENDBRANCH   4   6
ENDBRANCH   3   4
ENDBRANCH   2   3
ENDBRANCH   1   2
BRANCH   1   9
ATOM      9  C   UNL     1      34.753 -18.416 -21.338  0.00  0.00    +0.001 C 
BRANCH   9  10
ATOM     10  C   UNL     1      34.761 -19.887 -20.919  0.00  0.00    +0.012 C 
BRANCH  10  11
ATOM     11  C   UNL     1      33.398 -20.319 -20.393  0.00  0.00    +0.109 C 
BRANCH  11  13
ATOM     12  O   UNL     1      32.587 -22.013 -18.876  0.00  0.00    -0.250 OA
ATOM     13  C   UNL     1      33.525 -21.516 -19.486  0.00  0.00    +0.314 C 
BRANCH  13  14
ATOM     14  O   UNL     1      34.793 -21.994 -19.428  0.00  0.00    -0.480 OA
ATOM     15  H   UNL     1      34.971 -22.880 -19.673  0.00  0.00    +0.295 HD
ENDBRANCH  13  14
ENDBRANCH  11  13
ENDBRANCH  10  11
ENDBRANCH   9  10
ENDBRANCH   1   9
TORSDOF 10
ENDMDL
MODEL 6
REMARK VINA RESULT:      -5.9      9.130     10.501
REMARK  Name = 2266
REMARK  10 active torsions:
REMARK  status: ('A' for Active; 'I' for Inactive)
REMARK    1  A    between atoms: C_1  and  C_2
REMARK    2  A    between atoms: C_1  and  C_9
REMARK    3  A    between atoms: C_2  and  C_3
REMARK    4  A    between atoms: C_3  and  C_4
REMARK    5  A    between atoms: C_4  and  C_6
REMARK    6  A    between atoms: C_6  and  O_7
REMARK    7  A    between atoms: C_9  and  C_10
REMARK    8  A    between atoms: C_10  and  C_11
REMARK    9  A    between atoms: C_11  and  C_13
REMARK   10  A    between atoms: C_13  and  O_14
REMARK                            x       y       z     vdW  Elec       q    Type
REMARK                         _______ _______ _______ _____ _____    ______ ____
ROOT
ATOM      1  C   UNL     1      35.243 -20.042 -20.644  0.00  0.00    +0.000 C 
ENDROOT
BRANCH   1   2
ATOM      2  C   UNL     1      35.860 -18.860 -21.394  0.00  0.00    +0.001 C 
BRANCH   2   3
ATOM      3  C   UNL     1      34.816 -18.144 -22.254  0.00  0.00    +0.012 C 
BRANCH   3   4
ATOM      4  C   UNL     1      35.032 -18.422 -23.736  0.00  0.00    +0.109 C 
BRANCH   4   6
ATOM      5  O   UNL     1      34.387 -17.018 -25.597  0.00  0.00    -0.250 OA
ATOM      6  C   UNL     1      34.973 -17.147 -24.532  0.00  0.00    +0.314 C 
BRANCH   6   7
ATOM      7  O   UNL     1      35.638 -16.147 -23.904  0.00  0.00    -0.480 OA
ATOM      8  H   UNL     1      35.332 -15.265 -23.974  0.00  0.00    +0.295 HD
ENDBRANCH   6   7
ENDBRANCH   4   6
ENDBRANCH   3   4
ENDBRANCH   2   3
ENDBRANCH   1   2
BRANCH   1   9
ATOM      9  C   UNL     1      33.717 -19.971 -20.545  0.00  0.00    +0.001 C 
BRANCH   9  10
ATOM     10  C   UNL     1      33.087 -21.223 -19.932  0.00  0.00    +0.012 C 
BRANCH  10  11
ATOM     11  C   UNL     1      34.146 -22.127 -19.312  0.00  0.00    +0.109 C 
BRANCH  11  13
ATOM     12  O   UNL     1      34.319 -23.415 -17.278  0.00  0.00    -0.250 OA
ATOM     13  C   UNL     1      33.618 -22.807 -18.076  0.00  0.00    +0.314 C 
BRANCH  13  14
ATOM     14  O   UNL     1      32.277 -22.661 -17.933  0.00  0.00    -0.480 OA
ATOM     15  H   UNL     1      31.711 -22.783 -18.669  0.00  0.00    +0.295 HD
ENDBRANCH  13  14
ENDBRANCH  11  13
ENDBRANCH  10  11
ENDBRANCH   9  10
ENDBRANCH   1   9
TORSDOF 10
ENDMDL
MODEL 7
REMARK VINA RESULT:      -5.8      7.026      9.479
REMARK  Name = 2266
REMARK  10 active torsions:
REMARK  status: ('A' for Active; 'I' for Inactive)
REMARK    1  A    between atoms: C_1  and  C_2
REMARK    2  A    between atoms: C_1  and  C_9
REMARK    3  A    between atoms: C_2  and  C_3
REMARK    4  A    between atoms: C_3  and  C_4
REMARK    5  A    between atoms: C_4  and  C_6
REMARK    6  A    between atoms: C_6  and  O_7
REMARK    7  A    between atoms: C_9  and  C_10
REMARK    8  A    between atoms: C_10  and  C_11
REMARK    9  A    between atoms: C_11  and  C_13
REMARK   10  A    between atoms: C_13  and  O_14
REMARK                            x       y       z     vdW  Elec       q    Type
REMARK                         _______ _______ _______ _____ _____    ______ ____
ROOT
ATOM      1  C   UNL     1      30.878 -23.229 -14.385  0.00  0.00    +0.000 C 
ENDROOT
BRANCH   1   2
ATOM      2  C   UNL     1      29.880 -24.388 -14.434  0.00  0.00    +0.001 C 
BRANCH   2   3
ATOM      3  C   UNL     1      28.855 -24.190 -15.552  0.00  0.00    +0.012 C 
BRANCH   3   4
ATOM      4  C   UNL     1      28.527 -22.715 -15.749  0.00  0.00    +0.109 C 
BRANCH   4   6
ATOM      5  O   UNL     1      27.108 -21.468 -17.261  0.00  0.00    -0.250 OA
ATOM      6  C   UNL     1      27.656 -22.519 -16.959  0.00  0.00    +0.314 C 
BRANCH   6   7
ATOM      7  O   UNL     1      27.569 -23.659 -17.688  0.00  0.00    -0.480 OA
ATOM      8  H   UNL     1      26.729 -24.013 -17.905  0.00  0.00    +0.295 HD
ENDBRANCH   6   7
ENDBRANCH   4   6
ENDBRANCH   3   4
ENDBRANCH   2   3
ENDBRANCH   1   2
BRANCH   1   9
ATOM      9  C   UNL     1      32.187 -23.520 -15.123  0.00  0.00    +0.001 C 
BRANCH   9  10
ATOM     10  C   UNL     1      32.136 -23.178 -16.613  0.00  0.00    +0.012 C 
BRANCH  10  11
ATOM     11  C   UNL     1      33.537 -23.100 -17.209  0.00  0.00    +0.109 C 
BRANCH  11  13
ATOM     12  O   UNL     1      33.007 -21.619 -19.041  0.00  0.00    -0.250 OA
ATOM     13  C   UNL     1      33.483 -22.679 -18.655  0.00  0.00    +0.314 C 
BRANCH  13  14
ATOM     14  O   UNL     1      34.035 -23.597 -19.487  0.00  0.00    -0.480 OA
ATOM     15  H   UNL     1      34.447 -23.321 -20.282  0.00  0.00    +0.295 HD
ENDBRANCH  13  14
ENDBRANCH  11  13
ENDBRANCH  10  11
ENDBRANCH   9  10
ENDBRANCH   1   9
TORSDOF 10
ENDMDL
MODEL 8
REMARK VINA RESULT:      -5.7      6.605      7.858
REMARK  Name = 2266
REMARK  10 active torsions:
REMARK  status: ('A' for Active; 'I' for Inactive)
REMARK    1  A    between atoms: C_1  and  C_2
REMARK    2  A    between atoms: C_1  and  C_9
REMARK    3  A    between atoms: C_2  and  C_3
REMARK    4  A    between atoms: C_3  and  C_4
REMARK    5  A    between atoms: C_4  and  C_6
REMARK    6  A    between atoms: C_6  and  O_7
REMARK    7  A    between atoms: C_9  and  C_10
REMARK    8  A    between atoms: C_10  and  C_11
REMARK    9  A    between atoms: C_11  and  C_13
REMARK   10  A    between atoms: C_13  and  O_14
REMARK                            x       y       z     vdW  Elec       q    Type
REMARK                         _______ _______ _______ _____ _____    ______ ____
ROOT
ATOM      1  C   UNL     1      31.744 -22.788 -14.709  0.00  0.00    +0.000 C 
ENDROOT
BRANCH   1   2
ATOM      2  C   UNL     1      32.944 -23.722 -14.873  0.00  0.00    +0.001 C 
BRANCH   2   3
ATOM      3  C   UNL     1      33.809 -23.309 -16.065  0.00  0.00    +0.012 C 
BRANCH   3   4
ATOM      4  C   UNL     1      32.988 -23.226 -17.345  0.00  0.00    +0.109 C 
BRANCH   4   6
ATOM      5  O   UNL     1      35.023 -22.598 -18.492  0.00  0.00    -0.250 OA
ATOM      6  C   UNL     1      33.801 -22.633 -18.463  0.00  0.00    +0.314 C 
BRANCH   6   7
ATOM      7  O   UNL     1      33.003 -22.159 -19.450  0.00  0.00    -0.480 OA
ATOM      8  H   UNL     1      32.213 -22.611 -19.671  0.00  0.00    +0.295 HD
ENDBRANCH   6   7
ENDBRANCH   4   6
ENDBRANCH   3   4
ENDBRANCH   2   3
ENDBRANCH   1   2
BRANCH   1   9
ATOM      9  C   UNL     1      30.477 -23.501 -14.228  0.00  0.00    +0.001 C 
BRANCH   9  10
ATOM     10  C   UNL     1      29.556 -23.943 -15.366  0.00  0.00    +0.012 C 
BRANCH  10  11
ATOM     11  C   UNL     1      29.464 -22.873 -16.448  0.00  0.00    +0.109 C 
BRANCH  11  13
ATOM     12  O   UNL     1      27.561 -23.786 -17.620  0.00  0.00    -0.250 OA
ATOM     13  C   UNL     1      28.084 -22.836 -17.052  0.00  0.00    +0.314 C 
BRANCH  13  14
ATOM     14  O   UNL     1      27.474 -21.636 -16.885  0.00  0.00    -0.480 OA
ATOM     15  H   UNL     1      26.661 -21.584 -16.423  0.00  0.00    +0.295 HD
ENDBRANCH  13  14
ENDBRANCH  11  13
ENDBRANCH  10  11
ENDBRANCH   9  10
ENDBRANCH   1   9
TORSDOF 10
ENDMDL
MODEL 9
REMARK VINA RESULT:      -5.7      7.212      8.386
REMARK  Name = 2266
REMARK  10 active torsions:
REMARK  status: ('A' for Active; 'I' for Inactive)
REMARK    1  A    between atoms: C_1  and  C_2
REMARK    2  A    between atoms: C_1  and  C_9
REMARK    3  A    between atoms: C_2  and  C_3
REMARK    4  A    between atoms: C_3  and  C_4
REMARK    5  A    between atoms: C_4  and  C_6
REMARK    6  A    between atoms: C_6  and  O_7
REMARK    7  A    between atoms: C_9  and  C_10
REMARK    8  A    between atoms: C_10  and  C_11
REMARK    9  A    between atoms: C_11  and  C_13
REMARK   10  A    between atoms: C_13  and  O_14
REMARK                            x       y       z     vdW  Elec       q    Type
REMARK                         _______ _______ _______ _____ _____    ______ ____
ROOT
ATOM      1  C   UNL     1      32.527 -23.340 -15.918  0.00  0.00    +0.000 C 
ENDROOT
BRANCH   1   2
ATOM      2  C   UNL     1      33.673 -23.256 -16.928  0.00  0.00    +0.001 C 
BRANCH   2   3
ATOM      3  C   UNL     1      33.191 -22.702 -18.270  0.00  0.00    +0.012 C 
BRANCH   3   4
ATOM      4  C   UNL     1      34.334 -22.067 -19.052  0.00  0.00    +0.109 C 
BRANCH   4   6
ATOM      5  O   UNL     1      32.654 -20.712 -20.145  0.00  0.00    -0.250 OA
ATOM      6  C   UNL     1      33.832 -20.932 -19.901  0.00  0.00    +0.314 C 
BRANCH   6   7
ATOM      7  O   UNL     1      34.857 -20.166 -20.348  0.00  0.00    -0.480 OA
ATOM      8  H   UNL     1      35.624 -20.571 -20.703  0.00  0.00    +0.295 HD
ENDBRANCH   6   7
ENDBRANCH   4   6
ENDBRANCH   3   4
ENDBRANCH   2   3
ENDBRANCH   1   2
BRANCH   1   9
ATOM      9  C   UNL     1      31.175 -22.910 -16.494  0.00  0.00    +0.001 C 
BRANCH   9  10
ATOM     10  C   UNL     1      29.993 -23.699 -15.930  0.00  0.00    +0.012 C 
BRANCH  10  11
ATOM     11  C   UNL     1      28.806 -22.787 -15.645  0.00  0.00    +0.109 C 
BRANCH  11  13
ATOM     12  O   UNL     1      27.425 -21.605 -17.233  0.00  0.00    -0.250 OA
ATOM     13  C   UNL     1      27.921 -22.659 -16.858  0.00  0.00    +0.314 C 
BRANCH  13  14
ATOM     14  O   UNL     1      27.743 -23.840 -17.501  0.00  0.00    -0.480 OA
ATOM     15  H   UNL     1      27.756 -24.642 -17.018  0.00  0.00    +0.295 HD
ENDBRANCH  13  14
ENDBRANCH  11  13
ENDBRANCH  10  11
ENDBRANCH   9  10
ENDBRANCH   1   9
TORSDOF 10
ENDMDL
