MODEL 1
REMARK VINA RESULT:      -6.3      0.000      0.000
REMARK  Name = 28061
REMARK  5 active torsions:
REMARK  status: ('A' for Active; 'I' for Inactive)
REMARK    1  A    between atoms: N_1  and  C_10
REMARK    2  A    between atoms: C_4  and  N_9
REMARK    3  A    between atoms: C_10  and  C_11
REMARK    4  A    between atoms: C_11  and  C_13
REMARK    5  A    between atoms: C_11  and  O_14
REMARK                            x       y       z     vdW  Elec       q    Type
REMARK                         _______ _______ _______ _____ _____    ______ ____
ROOT
ATOM      1  N   UNL     1      36.706 -24.675 -13.485  0.00  0.00    -0.254 N 
ATOM      2  N   UNL     1      37.933 -26.493 -13.696  0.00  0.00    -0.230 NA
ATOM      3  C   UNL     1      36.948 -25.793 -14.214  0.00  0.00    +0.114 C 
ATOM      4  C   UNL     1      37.571 -24.639 -12.442  0.00  0.00    +0.218 C 
ATOM      5  C   UNL     1      38.326 -25.779 -12.592  0.00  0.00    +0.140 C 
ATOM      6  C   UNL     1      36.180 -26.139 -15.428  0.00  0.00    +0.069 C 
ENDROOT
BRANCH   4   9
ATOM      7  O   UNL     1      36.859 -23.698 -10.467  0.00  0.00    -0.125 OA
ATOM      8  O   UNL     1      38.395 -22.646 -11.637  0.00  0.00    -0.125 OA
ATOM      9  N   UNL     1      37.609 -23.624 -11.481  0.00  0.00    +0.074 N 
ENDBRANCH   4   9
BRANCH   1  10
ATOM     10  C   UNL     1      35.679 -23.674 -13.782  0.00  0.00    +0.129 C 
BRANCH  10  11
ATOM     11  C   UNL     1      34.365 -23.957 -13.045  0.00  0.00    +0.147 C 
BRANCH  11  13
ATOM     12 CL   UNL     1      33.301 -23.546 -15.559  0.00  0.00    -0.111 Cl
ATOM     13  C   UNL     1      33.215 -24.354 -13.971  0.00  0.00    +0.126 C 
ENDBRANCH  11  13
BRANCH  11  14
ATOM     14  O   UNL     1      34.559 -24.994 -12.083  0.00  0.00    -0.381 OA
ATOM     15  H   UNL     1      35.318 -24.774 -11.519  0.00  0.00    +0.210 HD
ENDBRANCH  11  14
ENDBRANCH  10  11
ENDBRANCH   1  10
TORSDOF 5
ENDMDL
MODEL 2
REMARK VINA RESULT:      -6.3     13.822     14.658
REMARK  Name = 28061
REMARK  5 active torsions:
REMARK  status: ('A' for Active; 'I' for Inactive)
REMARK    1  A    between atoms: N_1  and  C_10
REMARK    2  A    between atoms: C_4  and  N_9
REMARK    3  A    between atoms: C_10  and  C_11
REMARK    4  A    between atoms: C_11  and  C_13
REMARK    5  A    between atoms: C_11  and  O_14
REMARK                            x       y       z     vdW  Elec       q    Type
REMARK                         _______ _______ _______ _____ _____    ______ ____
ROOT
ATOM      1  N   UNL     1      34.066 -15.382 -24.309  0.00  0.00    -0.254 N 
ATOM      2  N   UNL     1      33.309 -15.902 -26.312  0.00  0.00    -0.230 NA
ATOM      3  C   UNL     1      34.029 -16.316 -25.292  0.00  0.00    +0.114 C 
ATOM      4  C   UNL     1      33.337 -14.308 -24.700  0.00  0.00    +0.218 C 
ATOM      5  C   UNL     1      32.875 -14.652 -25.949  0.00  0.00    +0.140 C 
ATOM      6  C   UNL     1      34.721 -17.616 -25.189  0.00  0.00    +0.069 C 
ENDROOT
BRANCH   4   9
ATOM      7  O   UNL     1      33.880 -12.141 -24.146  0.00  0.00    -0.125 OA
ATOM      8  O   UNL     1      32.266 -13.137 -23.032  0.00  0.00    -0.125 OA
ATOM      9  N   UNL     1      33.156 -13.154 -23.932  0.00  0.00    +0.074 N 
ENDBRANCH   4   9
BRANCH   1  10
ATOM     10  C   UNL     1      34.776 -15.520 -23.036  0.00  0.00    +0.129 C 
BRANCH  10  11
ATOM     11  C   UNL     1      33.908 -16.177 -21.957  0.00  0.00    +0.147 C 
BRANCH  11  13
ATOM     12 CL   UNL     1      34.237 -18.901 -21.660  0.00  0.00    -0.111 Cl
ATOM     13  C   UNL     1      34.642 -17.243 -21.143  0.00  0.00    +0.126 C 
ENDBRANCH  11  13
BRANCH  11  14
ATOM     14  O   UNL     1      33.404 -15.183 -21.064  0.00  0.00    -0.381 OA
ATOM     15  H   UNL     1      32.507 -14.930 -21.334  0.00  0.00    +0.210 HD
ENDBRANCH  11  14
ENDBRANCH  10  11
ENDBRANCH   1  10
TORSDOF 5
ENDMDL
MODEL 3
REMARK VINA RESULT:      -6.2      1.741      1.922
REMARK  Name = 28061
REMARK  5 active torsions:
REMARK  status: ('A' for Active; 'I' for Inactive)
REMARK    1  A    between atoms: N_1  and  C_10
REMARK    2  A    between atoms: C_4  and  N_9
REMARK    3  A    between atoms: C_10  and  C_11
REMARK    4  A    between atoms: C_11  and  C_13
REMARK    5  A    between atoms: C_11  and  O_14
REMARK                            x       y       z     vdW  Elec       q    Type
REMARK                         _______ _______ _______ _____ _____    ______ ____
ROOT
ATOM      1  N   UNL     1      36.974 -25.137 -13.637  0.00  0.00    -0.254 N 
ATOM      2  N   UNL     1      38.764 -26.334 -14.103  0.00  0.00    -0.230 NA
ATOM      3  C   UNL     1      37.507 -26.111 -14.416  0.00  0.00    +0.114 C 
ATOM      4  C   UNL     1      37.925 -24.701 -12.774  0.00  0.00    +0.218 C 
ATOM      5  C   UNL     1      39.031 -25.459 -13.080  0.00  0.00    +0.140 C 
ATOM      6  C   UNL     1      36.737 -26.803 -15.470  0.00  0.00    +0.069 C 
ENDROOT
BRANCH   4   9
ATOM      7  O   UNL     1      37.104 -23.964 -10.754  0.00  0.00    -0.125 OA
ATOM      8  O   UNL     1      38.174 -22.534 -12.037  0.00  0.00    -0.125 OA
ATOM      9  N   UNL     1      37.726 -23.697 -11.821  0.00  0.00    +0.074 N 
ENDBRANCH   4   9
BRANCH   1  10
ATOM     10  C   UNL     1      35.599 -24.640 -13.721  0.00  0.00    +0.129 C 
BRANCH  10  11
ATOM     11  C   UNL     1      35.521 -23.266 -14.396  0.00  0.00    +0.147 C 
BRANCH  11  13
ATOM     12 CL   UNL     1      37.691 -22.646 -15.986  0.00  0.00    -0.111 Cl
ATOM     13  C   UNL     1      36.023 -23.262 -15.840  0.00  0.00    +0.126 C 
ENDBRANCH  11  13
BRANCH  11  14
ATOM     14  O   UNL     1      34.175 -22.790 -14.378  0.00  0.00    -0.381 OA
ATOM     15  H   UNL     1      33.566 -23.535 -14.508  0.00  0.00    +0.210 HD
ENDBRANCH  11  14
ENDBRANCH  10  11
ENDBRANCH   1  10
TORSDOF 5
ENDMDL
MODEL 4
REMARK VINA RESULT:      -6.2      1.991      2.666
REMARK  Name = 28061
REMARK  5 active torsions:
REMARK  status: ('A' for Active; 'I' for Inactive)
REMARK    1  A    between atoms: N_1  and  C_10
REMARK    2  A    between atoms: C_4  and  N_9
REMARK    3  A    between atoms: C_10  and  C_11
REMARK    4  A    between atoms: C_11  and  C_13
REMARK    5  A    between atoms: C_11  and  O_14
REMARK                            x       y       z     vdW  Elec       q    Type
REMARK                         _______ _______ _______ _____ _____    ______ ____
ROOT
ATOM      1  N   UNL     1      36.383 -24.482 -14.830  0.00  0.00    -0.254 N 
ATOM      2  N   UNL     1      38.246 -23.427 -15.353  0.00  0.00    -0.230 NA
ATOM      3  C   UNL     1      36.942 -23.460 -15.524  0.00  0.00    +0.114 C 
ATOM      4  C   UNL     1      37.364 -25.151 -14.174  0.00  0.00    +0.218 C 
ATOM      5  C   UNL     1      38.515 -24.479 -14.513  0.00  0.00    +0.140 C 
ATOM      6  C   UNL     1      36.151 -22.525 -16.350  0.00  0.00    +0.069 C 
ENDROOT
BRANCH   4   9
ATOM      7  O   UNL     1      37.212 -27.425 -13.855  0.00  0.00    -0.125 OA
ATOM      8  O   UNL     1      36.899 -26.100 -12.129  0.00  0.00    -0.125 OA
ATOM      9  N   UNL     1      37.150 -26.266 -13.357  0.00  0.00    +0.074 N 
ENDBRANCH   4   9
BRANCH   1  10
ATOM     10  C   UNL     1      34.955 -24.804 -14.796  0.00  0.00    +0.129 C 
BRANCH  10  11
ATOM     11  C   UNL     1      34.213 -24.028 -13.702  0.00  0.00    +0.147 C 
BRANCH  11  13
ATOM     12 CL   UNL     1      32.537 -23.297 -15.770  0.00  0.00    -0.111 Cl
ATOM     13  C   UNL     1      32.757 -23.716 -14.051  0.00  0.00    +0.126 C 
ENDBRANCH  11  13
BRANCH  11  14
ATOM     14  O   UNL     1      34.245 -24.760 -12.477  0.00  0.00    -0.381 OA
ATOM     15  H   UNL     1      33.535 -24.447 -11.894  0.00  0.00    +0.210 HD
ENDBRANCH  11  14
ENDBRANCH  10  11
ENDBRANCH   1  10
TORSDOF 5
ENDMDL
MODEL 5
REMARK VINA RESULT:      -6.2     12.982     14.011
REMARK  Name = 28061
REMARK  5 active torsions:
REMARK  status: ('A' for Active; 'I' for Inactive)
REMARK    1  A    between atoms: N_1  and  C_10
REMARK    2  A    between atoms: C_4  and  N_9
REMARK    3  A    between atoms: C_10  and  C_11
REMARK    4  A    between atoms: C_11  and  C_13
REMARK    5  A    between atoms: C_11  and  O_14
REMARK                            x       y       z     vdW  Elec       q    Type
REMARK                         _______ _______ _______ _____ _____    ______ ____
ROOT
ATOM      1  N   UNL     1      34.045 -15.762 -23.085  0.00  0.00    -0.254 N 
ATOM      2  N   UNL     1      33.924 -13.577 -22.829  0.00  0.00    -0.230 NA
ATOM      3  C   UNL     1      34.031 -14.729 -22.206  0.00  0.00    +0.114 C 
ATOM      4  C   UNL     1      33.944 -15.264 -24.342  0.00  0.00    +0.218 C 
ATOM      5  C   UNL     1      33.869 -13.903 -24.161  0.00  0.00    +0.140 C 
ATOM      6  C   UNL     1      34.127 -14.921 -20.744  0.00  0.00    +0.069 C 
ENDROOT
BRANCH   4   9
ATOM      7  O   UNL     1      32.908 -16.034 -26.248  0.00  0.00    -0.125 OA
ATOM      8  O   UNL     1      34.936 -16.754 -25.792  0.00  0.00    -0.125 OA
ATOM      9  N   UNL     1      33.928 -16.046 -25.502  0.00  0.00    +0.074 N 
ENDBRANCH   4   9
BRANCH   1  10
ATOM     10  C   UNL     1      34.156 -17.178 -22.729  0.00  0.00    +0.129 C 
BRANCH  10  11
ATOM     11  C   UNL     1      35.609 -17.602 -22.487  0.00  0.00    +0.147 C 
BRANCH  11  13
ATOM     12 CL   UNL     1      34.414 -19.468 -20.842  0.00  0.00    -0.111 Cl
ATOM     13  C   UNL     1      35.807 -18.416 -21.208  0.00  0.00    +0.126 C 
ENDBRANCH  11  13
BRANCH  11  14
ATOM     14  O   UNL     1      36.085 -18.365 -23.596  0.00  0.00    -0.381 OA
ATOM     15  H   UNL     1      35.567 -19.183 -23.672  0.00  0.00    +0.210 HD
ENDBRANCH  11  14
ENDBRANCH  10  11
ENDBRANCH   1  10
TORSDOF 5
ENDMDL
MODEL 6
REMARK VINA RESULT:      -6.1      2.351      3.517
REMARK  Name = 28061
REMARK  5 active torsions:
REMARK  status: ('A' for Active; 'I' for Inactive)
REMARK    1  A    between atoms: N_1  and  C_10
REMARK    2  A    between atoms: C_4  and  N_9
REMARK    3  A    between atoms: C_10  and  C_11
REMARK    4  A    between atoms: C_11  and  C_13
REMARK    5  A    between atoms: C_11  and  O_14
REMARK                            x       y       z     vdW  Elec       q    Type
REMARK                         _______ _______ _______ _____ _____    ______ ____
ROOT
ATOM      1  N   UNL     1      35.954 -23.613 -13.713  0.00  0.00    -0.254 N 
ATOM      2  N   UNL     1      33.901 -24.141 -13.112  0.00  0.00    -0.230 NA
ATOM      3  C   UNL     1      34.687 -23.862 -14.128  0.00  0.00    +0.114 C 
ATOM      4  C   UNL     1      36.001 -23.735 -12.363  0.00  0.00    +0.218 C 
ATOM      5  C   UNL     1      34.714 -24.064 -12.009  0.00  0.00    +0.140 C 
ATOM      6  C   UNL     1      34.286 -23.815 -15.550  0.00  0.00    +0.069 C 
ENDROOT
BRANCH   4   9
ATOM      7  O   UNL     1      37.486 -22.382 -11.241  0.00  0.00    -0.125 OA
ATOM      8  O   UNL     1      37.849 -24.551 -11.258  0.00  0.00    -0.125 OA
ATOM      9  N   UNL     1      37.154 -23.549 -11.593  0.00  0.00    +0.074 N 
ENDBRANCH   4   9
BRANCH   1  10
ATOM     10  C   UNL     1      37.080 -23.271 -14.584  0.00  0.00    +0.129 C 
BRANCH  10  11
ATOM     11  C   UNL     1      38.097 -24.414 -14.689  0.00  0.00    +0.147 C 
BRANCH  11  13
ATOM     12 CL   UNL     1      37.220 -26.850 -13.733  0.00  0.00    -0.111 Cl
ATOM     13  C   UNL     1      37.481 -25.748 -15.110  0.00  0.00    +0.126 C 
ENDBRANCH  11  13
BRANCH  11  14
ATOM     14  O   UNL     1      39.125 -24.068 -15.618  0.00  0.00    -0.381 OA
ATOM     15  H   UNL     1      39.562 -24.876 -15.931  0.00  0.00    +0.210 HD
ENDBRANCH  11  14
ENDBRANCH  10  11
ENDBRANCH   1  10
TORSDOF 5
ENDMDL
MODEL 7
REMARK VINA RESULT:      -6.0      2.501      3.469
REMARK  Name = 28061
REMARK  5 active torsions:
REMARK  status: ('A' for Active; 'I' for Inactive)
REMARK    1  A    between atoms: N_1  and  C_10
REMARK    2  A    between atoms: C_4  and  N_9
REMARK    3  A    between atoms: C_10  and  C_11
REMARK    4  A    between atoms: C_11  and  C_13
REMARK    5  A    between atoms: C_11  and  O_14
REMARK                            x       y       z     vdW  Elec       q    Type
REMARK                         _______ _______ _______ _____ _____    ______ ____
ROOT
ATOM      1  N   UNL     1      37.036 -24.572 -14.449  0.00  0.00    -0.254 N 
ATOM      2  N   UNL     1      35.876 -26.190 -15.394  0.00  0.00    -0.230 NA
ATOM      3  C   UNL     1      35.816 -24.983 -14.875  0.00  0.00    +0.114 C 
ATOM      4  C   UNL     1      37.938 -25.553 -14.701  0.00  0.00    +0.218 C 
ATOM      5  C   UNL     1      37.196 -26.550 -15.289  0.00  0.00    +0.140 C 
ATOM      6  C   UNL     1      34.603 -24.149 -14.753  0.00  0.00    +0.069 C 
ENDROOT
BRANCH   4   9
ATOM      7  O   UNL     1      39.760 -26.135 -13.420  0.00  0.00    -0.125 OA
ATOM      8  O   UNL     1      40.056 -24.738 -15.093  0.00  0.00    -0.125 OA
ATOM      9  N   UNL     1      39.300 -25.472 -14.393  0.00  0.00    +0.074 N 
ENDBRANCH   4   9
BRANCH   1  10
ATOM     10  C   UNL     1      37.326 -23.280 -13.823  0.00  0.00    +0.129 C 
BRANCH  10  11
ATOM     11  C   UNL     1      37.315 -23.363 -12.293  0.00  0.00    +0.147 C 
BRANCH  11  13
ATOM     12 CL   UNL     1      35.342 -24.609 -10.818  0.00  0.00    -0.111 Cl
ATOM     13  C   UNL     1      36.856 -24.719 -11.755  0.00  0.00    +0.126 C 
ENDBRANCH  11  13
BRANCH  11  14
ATOM     14  O   UNL     1      38.617 -23.082 -11.780  0.00  0.00    -0.381 OA
ATOM     15  H   UNL     1      39.213 -22.862 -12.514  0.00  0.00    +0.210 HD
ENDBRANCH  11  14
ENDBRANCH  10  11
ENDBRANCH   1  10
TORSDOF 5
ENDMDL
MODEL 8
REMARK VINA RESULT:      -5.9      2.393      3.313
REMARK  Name = 28061
REMARK  5 active torsions:
REMARK  status: ('A' for Active; 'I' for Inactive)
REMARK    1  A    between atoms: N_1  and  C_10
REMARK    2  A    between atoms: C_4  and  N_9
REMARK    3  A    between atoms: C_10  and  C_11
REMARK    4  A    between atoms: C_11  and  C_13
REMARK    5  A    between atoms: C_11  and  O_14
REMARK                            x       y       z     vdW  Elec       q    Type
REMARK                         _______ _______ _______ _____ _____    ______ ____
ROOT
ATOM      1  N   UNL     1      36.809 -25.031 -13.850  0.00  0.00    -0.254 N 
ATOM      2  N   UNL     1      36.461 -25.311 -11.692  0.00  0.00    -0.230 NA
ATOM      3  C   UNL     1      35.932 -24.901 -12.824  0.00  0.00    +0.114 C 
ATOM      4  C   UNL     1      37.966 -25.551 -13.370  0.00  0.00    +0.218 C 
ATOM      5  C   UNL     1      37.729 -25.718 -12.026  0.00  0.00    +0.140 C 
ATOM      6  C   UNL     1      34.566 -24.365 -13.000  0.00  0.00    +0.069 C 
ENDROOT
BRANCH   4   9
ATOM      7  O   UNL     1      39.976 -24.930 -14.303  0.00  0.00    -0.125 OA
ATOM      8  O   UNL     1      39.218 -26.957 -14.695  0.00  0.00    -0.125 OA
ATOM      9  N   UNL     1      39.094 -25.822 -14.151  0.00  0.00    +0.074 N 
ENDBRANCH   4   9
BRANCH   1  10
ATOM     10  C   UNL     1      36.543 -24.671 -15.244  0.00  0.00    +0.129 C 
BRANCH  10  11
ATOM     11  C   UNL     1      37.124 -23.300 -15.608  0.00  0.00    +0.147 C 
BRANCH  11  13
ATOM     12 CL   UNL     1      34.508 -23.102 -16.464  0.00  0.00    -0.111 Cl
ATOM     13  C   UNL     1      36.098 -22.337 -16.206  0.00  0.00    +0.126 C 
ENDBRANCH  11  13
BRANCH  11  14
ATOM     14  O   UNL     1      37.704 -22.694 -14.453  0.00  0.00    -0.381 OA
ATOM     15  H   UNL     1      37.043 -22.653 -13.743  0.00  0.00    +0.210 HD
ENDBRANCH  11  14
ENDBRANCH  10  11
ENDBRANCH   1  10
TORSDOF 5
ENDMDL
MODEL 9
REMARK VINA RESULT:      -5.9     13.313     14.177
REMARK  Name = 28061
REMARK  5 active torsions:
REMARK  status: ('A' for Active; 'I' for Inactive)
REMARK    1  A    between atoms: N_1  and  C_10
REMARK    2  A    between atoms: C_4  and  N_9
REMARK    3  A    between atoms: C_10  and  C_11
REMARK    4  A    between atoms: C_11  and  C_13
REMARK    5  A    between atoms: C_11  and  O_14
REMARK                            x       y       z     vdW  Elec       q    Type
REMARK                         _______ _______ _______ _____ _____    ______ ____
ROOT
ATOM      1  N   UNL     1      34.302 -16.342 -22.834  0.00  0.00    -0.254 N 
ATOM      2  N   UNL     1      35.625 -17.468 -21.479  0.00  0.00    -0.230 NA
ATOM      3  C   UNL     1      34.808 -16.443 -21.580  0.00  0.00    +0.114 C 
ATOM      4  C   UNL     1      34.810 -17.346 -23.591  0.00  0.00    +0.218 C 
ATOM      5  C   UNL     1      35.631 -18.035 -22.729  0.00  0.00    +0.140 C 
ATOM      6  C   UNL     1      34.456 -15.502 -20.496  0.00  0.00    +0.069 C 
ENDROOT
BRANCH   4   9
ATOM      7  O   UNL     1      34.999 -16.786 -25.815  0.00  0.00    -0.125 OA
ATOM      8  O   UNL     1      33.736 -18.501 -25.268  0.00  0.00    -0.125 OA
ATOM      9  N   UNL     1      34.504 -17.551 -24.940  0.00  0.00    +0.074 N 
ENDBRANCH   4   9
BRANCH   1  10
ATOM     10  C   UNL     1      33.360 -15.317 -23.289  0.00  0.00    +0.129 C 
BRANCH  10  11
ATOM     11  C   UNL     1      34.069 -14.146 -23.980  0.00  0.00    +0.147 C 
BRANCH  11  13
ATOM     12 CL   UNL     1      33.773 -11.934 -25.604  0.00  0.00    -0.111 Cl
ATOM     13  C   UNL     1      33.322 -13.612 -25.202  0.00  0.00    +0.126 C 
ENDBRANCH  11  13
BRANCH  11  14
ATOM     14  O   UNL     1      34.258 -13.076 -23.054  0.00  0.00    -0.381 OA
ATOM     15  H   UNL     1      34.439 -12.255 -23.540  0.00  0.00    +0.210 HD
ENDBRANCH  11  14
ENDBRANCH  10  11
ENDBRANCH   1  10
TORSDOF 5
ENDMDL
