MODEL 1
REMARK VINA RESULT:      -6.0      0.000      0.000
REMARK  Name = 5287612
REMARK  5 active torsions:
REMARK  status: ('A' for Active; 'I' for Inactive)
REMARK    1  A    between atoms: C_1  and  O_11
REMARK    2  A    between atoms: C_2  and  O_13
REMARK    3  A    between atoms: C_3  and  N_7
REMARK    4  A    between atoms: C_5  and  C_15
REMARK    5  A    between atoms: C_15  and  O_16
REMARK                            x       y       z     vdW  Elec       q    Type
REMARK                         _______ _______ _______ _____ _____    ______ ____
ROOT
ATOM      1  C   UNL     1      36.512 -25.348 -12.946  0.00  0.00    +0.122 C 
ATOM      2  C   UNL     1      36.590 -25.932 -14.358  0.00  0.00    +0.139 C 
ATOM      3  C   UNL     1      37.575 -24.248 -12.739  0.00  0.00    -0.013 C 
ATOM      4  C   UNL     1      37.983 -26.504 -14.664  0.00  0.00    +0.056 C 
ATOM      5  C   UNL     1      39.123 -25.667 -14.127  0.00  0.00    -0.019 C 
ATOM      6  C   UNL     1      38.927 -24.649 -13.270  0.00  0.00    -0.052 C 
ENDROOT
BRANCH   3   7
ATOM      7  N   UNL     1      37.645 -23.875 -11.322  0.00  0.00    +0.386 N 
ATOM      8  H   UNL     1      36.720 -23.966 -10.901  0.00  0.00    -0.089 HD
ATOM      9  H   UNL     1      37.963 -22.909 -11.240  0.00  0.00    -0.089 HD
ATOM     10  H   UNL     1      38.300 -24.491 -10.841  0.00  0.00    -0.089 HD
ENDBRANCH   3   7
BRANCH   1  11
ATOM     11  O   UNL     1      36.690 -26.418 -12.016  0.00  0.00    -0.384 OA
ATOM     12  H   UNL     1      35.858 -26.907 -11.923  0.00  0.00    +0.210 HD
ENDBRANCH   1  11
BRANCH   2  13
ATOM     13  O   UNL     1      36.267 -24.911 -15.301  0.00  0.00    -0.382 OA
ATOM     14  H   UNL     1      35.303 -24.814 -15.354  0.00  0.00    +0.210 HD
ENDBRANCH   2  13
BRANCH   5  15
ATOM     15  C   UNL     1      40.493 -26.038 -14.614  0.00  0.00    +0.159 C 
BRANCH  15  16
ATOM     16  O   UNL     1      40.520 -26.008 -16.029  0.00  0.00    -0.378 OA
ATOM     17  H   UNL     1      41.425 -26.166 -16.338  0.00  0.00    +0.211 HD
ENDBRANCH  15  16
ENDBRANCH   5  15
TORSDOF 5
ENDMDL
MODEL 2
REMARK VINA RESULT:      -5.9      2.034      3.862
REMARK  Name = 5287612
REMARK  5 active torsions:
REMARK  status: ('A' for Active; 'I' for Inactive)
REMARK    1  A    between atoms: C_1  and  O_11
REMARK    2  A    between atoms: C_2  and  O_13
REMARK    3  A    between atoms: C_3  and  N_7
REMARK    4  A    between atoms: C_5  and  C_15
REMARK    5  A    between atoms: C_15  and  O_16
REMARK                            x       y       z     vdW  Elec       q    Type
REMARK                         _______ _______ _______ _____ _____    ______ ____
ROOT
ATOM      1  C   UNL     1      37.788 -25.415 -15.007  0.00  0.00    +0.122 C 
ATOM      2  C   UNL     1      36.264 -25.280 -14.982  0.00  0.00    +0.139 C 
ATOM      3  C   UNL     1      38.311 -26.064 -13.706  0.00  0.00    -0.013 C 
ATOM      4  C   UNL     1      35.783 -24.462 -13.774  0.00  0.00    +0.056 C 
ATOM      5  C   UNL     1      36.537 -24.751 -12.495  0.00  0.00    -0.019 C 
ATOM      6  C   UNL     1      37.667 -25.480 -12.475  0.00  0.00    -0.052 C 
ENDROOT
BRANCH   3   7
ATOM      7  N   UNL     1      39.772 -25.963 -13.645  0.00  0.00    +0.386 N 
ATOM      8  H   UNL     1      40.040 -24.986 -13.526  0.00  0.00    -0.089 HD
ATOM      9  H   UNL     1      40.174 -26.323 -14.512  0.00  0.00    -0.089 HD
ATOM     10  H   UNL     1      40.118 -26.509 -12.857  0.00  0.00    -0.089 HD
ENDBRANCH   3   7
BRANCH   1  11
ATOM     11  O   UNL     1      38.343 -24.111 -15.191  0.00  0.00    -0.384 OA
ATOM     12  H   UNL     1      37.971 -23.712 -15.992  0.00  0.00    +0.210 HD
ENDBRANCH   1  11
BRANCH   2  13
ATOM     13  O   UNL     1      35.683 -26.582 -14.949  0.00  0.00    -0.382 OA
ATOM     14  H   UNL     1      36.378 -27.249 -15.067  0.00  0.00    +0.210 HD
ENDBRANCH   2  13
BRANCH   5  15
ATOM     15  C   UNL     1      35.944 -24.177 -11.242  0.00  0.00    +0.159 C 
BRANCH  15  16
ATOM     16  O   UNL     1      35.298 -25.202 -10.508  0.00  0.00    -0.378 OA
ATOM     17  H   UNL     1      34.540 -24.829 -10.033  0.00  0.00    +0.211 HD
ENDBRANCH  15  16
ENDBRANCH   5  15
TORSDOF 5
ENDMDL
MODEL 3
REMARK VINA RESULT:      -5.7      1.882      1.988
REMARK  Name = 5287612
REMARK  5 active torsions:
REMARK  status: ('A' for Active; 'I' for Inactive)
REMARK    1  A    between atoms: C_1  and  O_11
REMARK    2  A    between atoms: C_2  and  O_13
REMARK    3  A    between atoms: C_3  and  N_7
REMARK    4  A    between atoms: C_5  and  C_15
REMARK    5  A    between atoms: C_15  and  O_16
REMARK                            x       y       z     vdW  Elec       q    Type
REMARK                         _______ _______ _______ _____ _____    ______ ____
ROOT
ATOM      1  C   UNL     1      35.978 -25.417 -14.661  0.00  0.00    +0.122 C 
ATOM      2  C   UNL     1      36.711 -26.742 -14.879  0.00  0.00    +0.139 C 
ATOM      3  C   UNL     1      36.751 -24.242 -15.299  0.00  0.00    -0.013 C 
ATOM      4  C   UNL     1      38.140 -26.704 -14.316  0.00  0.00    +0.056 C 
ATOM      5  C   UNL     1      38.859 -25.395 -14.551  0.00  0.00    -0.019 C 
ATOM      6  C   UNL     1      38.227 -24.297 -15.002  0.00  0.00    -0.052 C 
ENDROOT
BRANCH   3   7
ATOM      7  N   UNL     1      36.167 -22.966 -14.876  0.00  0.00    +0.386 N 
ATOM      8  H   UNL     1      35.903 -22.423 -15.698  0.00  0.00    -0.089 HD
ATOM      9  H   UNL     1      36.852 -22.443 -14.329  0.00  0.00    -0.089 HD
ATOM     10  H   UNL     1      35.340 -23.143 -14.306  0.00  0.00    -0.089 HD
ENDBRANCH   3   7
BRANCH   1  11
ATOM     11  O   UNL     1      35.822 -25.226 -13.254  0.00  0.00    -0.384 OA
ATOM     12  H   UNL     1      36.390 -25.851 -12.778  0.00  0.00    +0.210 HD
ENDBRANCH   1  11
BRANCH   2  13
ATOM     13  O   UNL     1      36.747 -27.028 -16.276  0.00  0.00    -0.382 OA
ATOM     14  H   UNL     1      37.460 -27.660 -16.459  0.00  0.00    +0.210 HD
ENDBRANCH   2  13
BRANCH   5  15
ATOM     15  C   UNL     1      40.330 -25.394 -14.254  0.00  0.00    +0.159 C 
BRANCH  15  16
ATOM     16  O   UNL     1      40.903 -26.618 -14.677  0.00  0.00    -0.378 OA
ATOM     17  H   UNL     1      41.051 -27.188 -13.907  0.00  0.00    +0.211 HD
ENDBRANCH  15  16
ENDBRANCH   5  15
TORSDOF 5
ENDMDL
MODEL 4
REMARK VINA RESULT:      -5.7      2.435      3.684
REMARK  Name = 5287612
REMARK  5 active torsions:
REMARK  status: ('A' for Active; 'I' for Inactive)
REMARK    1  A    between atoms: C_1  and  O_11
REMARK    2  A    between atoms: C_2  and  O_13
REMARK    3  A    between atoms: C_3  and  N_7
REMARK    4  A    between atoms: C_5  and  C_15
REMARK    5  A    between atoms: C_15  and  O_16
REMARK                            x       y       z     vdW  Elec       q    Type
REMARK                         _______ _______ _______ _____ _____    ______ ____
ROOT
ATOM      1  C   UNL     1      37.910 -25.337 -12.263  0.00  0.00    +0.122 C 
ATOM      2  C   UNL     1      37.399 -23.982 -11.771  0.00  0.00    +0.139 C 
ATOM      3  C   UNL     1      38.470 -25.233 -13.699  0.00  0.00    -0.013 C 
ATOM      4  C   UNL     1      36.319 -23.406 -12.700  0.00  0.00    +0.056 C 
ATOM      5  C   UNL     1      36.596 -23.620 -14.171  0.00  0.00    -0.019 C 
ATOM      6  C   UNL     1      37.571 -24.436 -14.609  0.00  0.00    -0.052 C 
ENDROOT
BRANCH   3   7
ATOM      7  N   UNL     1      38.727 -26.572 -14.238  0.00  0.00    +0.386 N 
ATOM      8  H   UNL     1      38.002 -26.810 -14.915  0.00  0.00    -0.089 HD
ATOM      9  H   UNL     1      38.718 -27.252 -13.477  0.00  0.00    -0.089 HD
ATOM     10  H   UNL     1      39.638 -26.585 -14.695  0.00  0.00    -0.089 HD
ENDBRANCH   3   7
BRANCH   1  11
ATOM     11  O   UNL     1      36.825 -26.266 -12.201  0.00  0.00    -0.384 OA
ATOM     12  H   UNL     1      36.802 -26.676 -11.323  0.00  0.00    +0.210 HD
ENDBRANCH   1  11
BRANCH   2  13
ATOM     13  O   UNL     1      38.497 -23.076 -11.683  0.00  0.00    -0.382 OA
ATOM     14  H   UNL     1      39.319 -23.576 -11.558  0.00  0.00    +0.210 HD
ENDBRANCH   2  13
BRANCH   5  15
ATOM     15  C   UNL     1      35.716 -22.860 -15.120  0.00  0.00    +0.159 C 
BRANCH  15  16
ATOM     16  O   UNL     1      35.496 -23.631 -16.287  0.00  0.00    -0.378 OA
ATOM     17  H   UNL     1      35.294 -23.042 -17.030  0.00  0.00    +0.211 HD
ENDBRANCH  15  16
ENDBRANCH   5  15
TORSDOF 5
ENDMDL
MODEL 5
REMARK VINA RESULT:      -5.7     11.621     12.626
REMARK  Name = 5287612
REMARK  5 active torsions:
REMARK  status: ('A' for Active; 'I' for Inactive)
REMARK    1  A    between atoms: C_1  and  O_11
REMARK    2  A    between atoms: C_2  and  O_13
REMARK    3  A    between atoms: C_3  and  N_7
REMARK    4  A    between atoms: C_5  and  C_15
REMARK    5  A    between atoms: C_15  and  O_16
REMARK                            x       y       z     vdW  Elec       q    Type
REMARK                         _______ _______ _______ _____ _____    ______ ____
ROOT
ATOM      1  C   UNL     1      42.331 -14.749 -17.734  0.00  0.00    +0.122 C 
ATOM      2  C   UNL     1      41.918 -15.839 -16.744  0.00  0.00    +0.139 C 
ATOM      3  C   UNL     1      42.889 -13.511 -16.999  0.00  0.00    -0.013 C 
ATOM      4  C   UNL     1      40.875 -15.331 -15.736  0.00  0.00    +0.056 C 
ATOM      5  C   UNL     1      41.128 -13.922 -15.248  0.00  0.00    -0.019 C 
ATOM      6  C   UNL     1      42.042 -13.116 -15.817  0.00  0.00    -0.052 C 
ENDROOT
BRANCH   3   7
ATOM      7  N   UNL     1      43.051 -12.398 -17.938  0.00  0.00    +0.386 N 
ATOM      8  H   UNL     1      43.993 -12.416 -18.328  0.00  0.00    -0.089 HD
ATOM      9  H   UNL     1      42.903 -11.515 -17.448  0.00  0.00    -0.089 HD
ATOM     10  H   UNL     1      42.369 -12.487 -18.692  0.00  0.00    -0.089 HD
ENDBRANCH   3   7
BRANCH   1  11
ATOM     11  O   UNL     1      41.186 -14.409 -18.519  0.00  0.00    -0.384 OA
ATOM     12  H   UNL     1      40.384 -14.720 -18.071  0.00  0.00    +0.210 HD
ENDBRANCH   1  11
BRANCH   2  13
ATOM     13  O   UNL     1      43.076 -16.302 -16.052  0.00  0.00    -0.382 OA
ATOM     14  H   UNL     1      43.415 -15.595 -15.480  0.00  0.00    +0.210 HD
ENDBRANCH   2  13
BRANCH   5  15
ATOM     15  C   UNL     1      40.296 -13.475 -14.081  0.00  0.00    +0.159 C 
BRANCH  15  16
ATOM     16  O   UNL     1      41.110 -13.374 -12.927  0.00  0.00    -0.378 OA
ATOM     17  H   UNL     1      41.121 -14.226 -12.465  0.00  0.00    +0.211 HD
ENDBRANCH  15  16
ENDBRANCH   5  15
TORSDOF 5
ENDMDL
MODEL 6
REMARK VINA RESULT:      -5.6      1.761      2.263
REMARK  Name = 5287612
REMARK  5 active torsions:
REMARK  status: ('A' for Active; 'I' for Inactive)
REMARK    1  A    between atoms: C_1  and  O_11
REMARK    2  A    between atoms: C_2  and  O_13
REMARK    3  A    between atoms: C_3  and  N_7
REMARK    4  A    between atoms: C_5  and  C_15
REMARK    5  A    between atoms: C_15  and  O_16
REMARK                            x       y       z     vdW  Elec       q    Type
REMARK                         _______ _______ _______ _____ _____    ______ ____
ROOT
ATOM      1  C   UNL     1      35.165 -23.789 -12.396  0.00  0.00    +0.122 C 
ATOM      2  C   UNL     1      34.838 -23.967 -13.880  0.00  0.00    +0.139 C 
ATOM      3  C   UNL     1      36.650 -23.416 -12.194  0.00  0.00    -0.013 C 
ATOM      4  C   UNL     1      35.726 -25.034 -14.537  0.00  0.00    +0.056 C 
ATOM      5  C   UNL     1      37.167 -25.002 -14.080  0.00  0.00    -0.019 C 
ATOM      6  C   UNL     1      37.573 -24.264 -13.031  0.00  0.00    -0.052 C 
ENDROOT
BRANCH   3   7
ATOM      7  N   UNL     1      36.999 -23.489 -10.772  0.00  0.00    +0.386 N 
ATOM      8  H   UNL     1      37.134 -22.546 -10.407  0.00  0.00    -0.089 HD
ATOM      9  H   UNL     1      37.860 -24.024 -10.661  0.00  0.00    -0.089 HD
ATOM     10  H   UNL     1      36.244 -23.946 -10.260  0.00  0.00    -0.089 HD
ENDBRANCH   3   7
BRANCH   1  11
ATOM     11  O   UNL     1      34.845 -25.009 -11.725  0.00  0.00    -0.384 OA
ATOM     12  H   UNL     1      33.913 -25.229 -11.880  0.00  0.00    +0.210 HD
ENDBRANCH   1  11
BRANCH   2  13
ATOM     13  O   UNL     1      35.007 -22.717 -14.545  0.00  0.00    -0.382 OA
ATOM     14  H   UNL     1      34.855 -22.834 -15.497  0.00  0.00    +0.210 HD
ENDBRANCH   2  13
BRANCH   5  15
ATOM     15  C   UNL     1      38.124 -25.843 -14.872  0.00  0.00    +0.159 C 
BRANCH  15  16
ATOM     16  O   UNL     1      37.404 -26.653 -15.784  0.00  0.00    -0.378 OA
ATOM     17  H   UNL     1      37.318 -27.549 -15.422  0.00  0.00    +0.211 HD
ENDBRANCH  15  16
ENDBRANCH   5  15
TORSDOF 5
ENDMDL
MODEL 7
REMARK VINA RESULT:      -5.6      1.790      2.548
REMARK  Name = 5287612
REMARK  5 active torsions:
REMARK  status: ('A' for Active; 'I' for Inactive)
REMARK    1  A    between atoms: C_1  and  O_11
REMARK    2  A    between atoms: C_2  and  O_13
REMARK    3  A    between atoms: C_3  and  N_7
REMARK    4  A    between atoms: C_5  and  C_15
REMARK    5  A    between atoms: C_15  and  O_16
REMARK                            x       y       z     vdW  Elec       q    Type
REMARK                         _______ _______ _______ _____ _____    ______ ____
ROOT
ATOM      1  C   UNL     1      36.307 -24.499 -13.177  0.00  0.00    +0.122 C 
ATOM      2  C   UNL     1      37.251 -25.207 -12.204  0.00  0.00    +0.139 C 
ATOM      3  C   UNL     1      36.391 -25.122 -14.588  0.00  0.00    -0.013 C 
ATOM      4  C   UNL     1      38.707 -25.172 -12.692  0.00  0.00    +0.056 C 
ATOM      5  C   UNL     1      38.862 -25.380 -14.181  0.00  0.00    -0.019 C 
ATOM      6  C   UNL     1      37.813 -25.365 -15.023  0.00  0.00    -0.052 C 
ENDROOT
BRANCH   3   7
ATOM      7  N   UNL     1      35.671 -24.285 -15.552  0.00  0.00    +0.386 N 
ATOM      8  H   UNL     1      34.674 -24.301 -15.338  0.00  0.00    -0.089 HD
ATOM      9  H   UNL     1      35.822 -24.646 -16.494  0.00  0.00    -0.089 HD
ATOM     10  H   UNL     1      36.016 -23.327 -15.494  0.00  0.00    -0.089 HD
ENDBRANCH   3   7
BRANCH   1  11
ATOM     11  O   UNL     1      36.660 -23.114 -13.204  0.00  0.00    -0.384 OA
ATOM     12  H   UNL     1      35.917 -22.585 -12.876  0.00  0.00    +0.210 HD
ENDBRANCH   1  11
BRANCH   2  13
ATOM     13  O   UNL     1      36.825 -26.559 -12.045  0.00  0.00    -0.382 OA
ATOM     14  H   UNL     1      36.106 -26.747 -12.669  0.00  0.00    +0.210 HD
ENDBRANCH   2  13
BRANCH   5  15
ATOM     15  C   UNL     1      40.263 -25.611 -14.668  0.00  0.00    +0.159 C 
BRANCH  15  16
ATOM     16  O   UNL     1      40.244 -25.897 -16.055  0.00  0.00    -0.378 OA
ATOM     17  H   UNL     1      40.985 -25.445 -16.488  0.00  0.00    +0.211 HD
ENDBRANCH  15  16
ENDBRANCH   5  15
TORSDOF 5
ENDMDL
MODEL 8
REMARK VINA RESULT:      -5.6      2.335      3.653
REMARK  Name = 5287612
REMARK  5 active torsions:
REMARK  status: ('A' for Active; 'I' for Inactive)
REMARK    1  A    between atoms: C_1  and  O_11
REMARK    2  A    between atoms: C_2  and  O_13
REMARK    3  A    between atoms: C_3  and  N_7
REMARK    4  A    between atoms: C_5  and  C_15
REMARK    5  A    between atoms: C_15  and  O_16
REMARK                            x       y       z     vdW  Elec       q    Type
REMARK                         _______ _______ _______ _____ _____    ______ ____
ROOT
ATOM      1  C   UNL     1      37.796 -26.157 -14.903  0.00  0.00    +0.122 C 
ATOM      2  C   UNL     1      38.997 -25.335 -14.431  0.00  0.00    +0.139 C 
ATOM      3  C   UNL     1      36.525 -25.285 -14.991  0.00  0.00    -0.013 C 
ATOM      4  C   UNL     1      38.737 -24.673 -13.069  0.00  0.00    +0.056 C 
ATOM      5  C   UNL     1      37.337 -24.125 -12.909  0.00  0.00    -0.019 C 
ATOM      6  C   UNL     1      36.352 -24.399 -13.784  0.00  0.00    -0.052 C 
ENDROOT
BRANCH   3   7
ATOM      7  N   UNL     1      35.347 -26.131 -15.207  0.00  0.00    +0.386 N 
ATOM      8  H   UNL     1      35.177 -26.226 -16.208  0.00  0.00    -0.089 HD
ATOM      9  H   UNL     1      34.535 -25.702 -14.762  0.00  0.00    -0.089 HD
ATOM     10  H   UNL     1      35.512 -27.052 -14.801  0.00  0.00    -0.089 HD
ENDBRANCH   3   7
BRANCH   1  11
ATOM     11  O   UNL     1      37.615 -27.239 -13.987  0.00  0.00    -0.384 OA
ATOM     12  H   UNL     1      37.022 -26.962 -13.273  0.00  0.00    +0.210 HD
ENDBRANCH   1  11
BRANCH   2  13
ATOM     13  O   UNL     1      39.290 -24.338 -15.407  0.00  0.00    -0.382 OA
ATOM     14  H   UNL     1      39.352 -24.751 -16.283  0.00  0.00    +0.210 HD
ENDBRANCH   2  13
BRANCH   5  15
ATOM     15  C   UNL     1      37.109 -23.249 -11.712  0.00  0.00    +0.159 C 
BRANCH  15  16
ATOM     16  O   UNL     1      38.183 -22.336 -11.579  0.00  0.00    -0.378 OA
ATOM     17  H   UNL     1      38.916 -22.614 -12.150  0.00  0.00    +0.211 HD
ENDBRANCH  15  16
ENDBRANCH   5  15
TORSDOF 5
ENDMDL
MODEL 9
REMARK VINA RESULT:      -5.5      2.505      3.217
REMARK  Name = 5287612
REMARK  5 active torsions:
REMARK  status: ('A' for Active; 'I' for Inactive)
REMARK    1  A    between atoms: C_1  and  O_11
REMARK    2  A    between atoms: C_2  and  O_13
REMARK    3  A    between atoms: C_3  and  N_7
REMARK    4  A    between atoms: C_5  and  C_15
REMARK    5  A    between atoms: C_15  and  O_16
REMARK                            x       y       z     vdW  Elec       q    Type
REMARK                         _______ _______ _______ _____ _____    ______ ____
ROOT
ATOM      1  C   UNL     1      35.634 -25.161 -15.190  0.00  0.00    +0.122 C 
ATOM      2  C   UNL     1      36.615 -26.253 -14.758  0.00  0.00    +0.139 C 
ATOM      3  C   UNL     1      36.321 -23.778 -15.228  0.00  0.00    -0.013 C 
ATOM      4  C   UNL     1      37.235 -25.953 -13.385  0.00  0.00    +0.056 C 
ATOM      5  C   UNL     1      37.583 -24.497 -13.172  0.00  0.00    -0.019 C 
ATOM      6  C   UNL     1      37.175 -23.529 -14.012  0.00  0.00    -0.052 C 
ENDROOT
BRANCH   3   7
ATOM      7  N   UNL     1      35.320 -22.723 -15.405  0.00  0.00    +0.386 N 
ATOM      8  H   UNL     1      35.737 -21.818 -15.184  0.00  0.00    -0.089 HD
ATOM      9  H   UNL     1      34.530 -22.895 -14.782  0.00  0.00    -0.089 HD
ATOM     10  H   UNL     1      34.996 -22.720 -16.372  0.00  0.00    -0.089 HD
ENDBRANCH   3   7
BRANCH   1  11
ATOM     11  O   UNL     1      34.537 -25.165 -14.274  0.00  0.00    -0.384 OA
ATOM     12  H   UNL     1      34.370 -26.072 -13.975  0.00  0.00    +0.210 HD
ENDBRANCH   1  11
BRANCH   2  13
ATOM     13  O   UNL     1      37.642 -26.369 -15.740  0.00  0.00    -0.382 OA
ATOM     14  H   UNL     1      37.589 -25.619 -16.354  0.00  0.00    +0.210 HD
ENDBRANCH   2  13
BRANCH   5  15
ATOM     15  C   UNL     1      38.420 -24.194 -11.964  0.00  0.00    +0.159 C 
BRANCH  15  16
ATOM     16  O   UNL     1      38.331 -22.815 -11.656  0.00  0.00    -0.378 OA
ATOM     17  H   UNL     1      38.711 -22.297 -12.383  0.00  0.00    +0.211 HD
ENDBRANCH  15  16
ENDBRANCH   5  15
TORSDOF 5
ENDMDL
