MODEL 1
REMARK VINA RESULT:      -6.6      0.000      0.000
REMARK  Name = 5799
REMARK  0 active torsions:
REMARK  status: ('A' for Active; 'I' for Inactive)
REMARK                            x       y       z     vdW  Elec       q    Type
REMARK                         _______ _______ _______ _____ _____    ______ ____
ROOT
ATOM      1  N   UNL     1      33.437 -14.569 -26.808  0.00  0.00    -0.229 N 
ATOM      2  N   UNL     1      34.929 -18.218 -24.250  0.00  0.00    -0.229 N 
ATOM      3  N   UNL     1      33.238 -14.387 -22.116  0.00  0.00    -0.229 N 
ATOM      4  N   UNL     1      34.190 -16.407 -25.553  0.00  0.00    -0.246 NA
ATOM      5  N   UNL     1      33.328 -14.452 -24.464  0.00  0.00    -0.246 NA
ATOM      6  N   UNL     1      34.090 -16.314 -23.158  0.00  0.00    -0.246 NA
ATOM      7  C   UNL     1      33.505 -13.111 -26.968  0.00  0.00    +0.125 C 
ATOM      8  C   UNL     1      32.203 -13.818 -27.072  0.00  0.00    +0.125 C 
ATOM      9  C   UNL     1      34.597 -19.114 -23.134  0.00  0.00    +0.125 C 
ATOM     10  C   UNL     1      35.962 -18.541 -23.257  0.00  0.00    +0.125 C 
ATOM     11  C   UNL     1      33.990 -14.616 -20.875  0.00  0.00    +0.125 C 
ATOM     12  C   UNL     1      32.583 -15.076 -20.997  0.00  0.00    +0.125 C 
ATOM     13  C   UNL     1      33.664 -15.172 -25.545  0.00  0.00    +0.225 C 
ATOM     14  C   UNL     1      34.376 -16.914 -24.323  0.00  0.00    +0.225 C 
ATOM     15  C   UNL     1      33.569 -15.086 -23.305  0.00  0.00    +0.225 C 
ENDROOT
TORSDOF 0
ENDMDL
MODEL 2
REMARK VINA RESULT:      -6.6      9.322     11.523
REMARK  Name = 5799
REMARK  0 active torsions:
REMARK  status: ('A' for Active; 'I' for Inactive)
REMARK                            x       y       z     vdW  Elec       q    Type
REMARK                         _______ _______ _______ _____ _____    ______ ____
ROOT
ATOM      1  N   UNL     1      33.438 -22.453 -18.872  0.00  0.00    -0.229 N 
ATOM      2  N   UNL     1      31.174 -23.781 -14.974  0.00  0.00    -0.229 N 
ATOM      3  N   UNL     1      35.871 -23.825 -15.093  0.00  0.00    -0.229 N 
ATOM      4  N   UNL     1      32.281 -23.113 -16.936  0.00  0.00    -0.246 NA
ATOM      5  N   UNL     1      34.679 -23.136 -16.997  0.00  0.00    -0.246 NA
ATOM      6  N   UNL     1      33.523 -23.814 -15.007  0.00  0.00    -0.246 NA
ATOM      7  C   UNL     1      34.503 -22.809 -19.819  0.00  0.00    +0.125 C 
ATOM      8  C   UNL     1      34.373 -21.415 -19.324  0.00  0.00    +0.125 C 
ATOM      9  C   UNL     1      31.108 -23.624 -13.515  0.00  0.00    +0.125 C 
ATOM     10  C   UNL     1      31.000 -24.972 -14.131  0.00  0.00    +0.125 C 
ATOM     11  C   UNL     1      35.995 -24.860 -14.058  0.00  0.00    +0.125 C 
ATOM     12  C   UNL     1      36.093 -23.422 -13.699  0.00  0.00    +0.125 C 
ATOM     13  C   UNL     1      33.468 -22.925 -17.535  0.00  0.00    +0.225 C 
ATOM     14  C   UNL     1      32.387 -23.559 -15.674  0.00  0.00    +0.225 C 
ATOM     15  C   UNL     1      34.629 -23.580 -15.731  0.00  0.00    +0.225 C 
ENDROOT
TORSDOF 0
ENDMDL
MODEL 3
REMARK VINA RESULT:      -6.5      8.690     11.195
REMARK  Name = 5799
REMARK  0 active torsions:
REMARK  status: ('A' for Active; 'I' for Inactive)
REMARK                            x       y       z     vdW  Elec       q    Type
REMARK                         _______ _______ _______ _____ _____    ______ ____
ROOT
ATOM      1  N   UNL     1      30.449 -23.363 -16.154  0.00  0.00    -0.229 N 
ATOM      2  N   UNL     1      33.745 -22.197 -19.294  0.00  0.00    -0.229 N 
ATOM      3  N   UNL     1      34.996 -23.664 -15.008  0.00  0.00    -0.229 N 
ATOM      4  N   UNL     1      32.077 -22.773 -17.742  0.00  0.00    -0.246 NA
ATOM      5  N   UNL     1      32.716 -23.522 -15.555  0.00  0.00    -0.246 NA
ATOM      6  N   UNL     1      34.398 -22.926 -17.157  0.00  0.00    -0.246 NA
ATOM      7  C   UNL     1      30.001 -23.189 -14.766  0.00  0.00    +0.125 C 
ATOM      8  C   UNL     1      29.992 -24.535 -15.395  0.00  0.00    +0.125 C 
ATOM      9  C   UNL     1      35.006 -22.619 -19.920  0.00  0.00    +0.125 C 
ATOM     10  C   UNL     1      34.823 -21.214 -19.473  0.00  0.00    +0.125 C 
ATOM     11  C   UNL     1      36.286 -22.961 -15.027  0.00  0.00    +0.125 C 
ATOM     12  C   UNL     1      36.206 -24.394 -15.411  0.00  0.00    +0.125 C 
ATOM     13  C   UNL     1      31.816 -23.211 -16.501  0.00  0.00    +0.225 C 
ATOM     14  C   UNL     1      33.390 -22.654 -18.000  0.00  0.00    +0.225 C 
ATOM     15  C   UNL     1      33.987 -23.355 -15.954  0.00  0.00    +0.225 C 
ENDROOT
TORSDOF 0
ENDMDL
MODEL 4
REMARK VINA RESULT:      -6.4      9.124     11.618
REMARK  Name = 5799
REMARK  0 active torsions:
REMARK  status: ('A' for Active; 'I' for Inactive)
REMARK                            x       y       z     vdW  Elec       q    Type
REMARK                         _______ _______ _______ _____ _____    ______ ____
ROOT
ATOM      1  N   UNL     1      30.894 -23.775 -14.862  0.00  0.00    -0.229 N 
ATOM      2  N   UNL     1      35.590 -23.653 -14.718  0.00  0.00    -0.229 N 
ATOM      3  N   UNL     1      33.334 -22.630 -18.712  0.00  0.00    -0.229 N 
ATOM      4  N   UNL     1      33.241 -23.723 -14.763  0.00  0.00    -0.246 NA
ATOM      5  N   UNL     1      32.090 -23.201 -16.802  0.00  0.00    -0.246 NA
ATOM      6  N   UNL     1      34.487 -23.139 -16.729  0.00  0.00    -0.246 NA
ATOM      7  C   UNL     1      29.731 -24.262 -15.615  0.00  0.00    +0.125 C 
ATOM      8  C   UNL     1      29.759 -22.872 -15.091  0.00  0.00    +0.125 C 
ATOM      9  C   UNL     1      36.779 -22.863 -15.065  0.00  0.00    +0.125 C 
ATOM     10  C   UNL     1      36.746 -24.325 -15.327  0.00  0.00    +0.125 C 
ATOM     11  C   UNL     1      34.463 -23.009 -19.572  0.00  0.00    +0.125 C 
ATOM     12  C   UNL     1      34.258 -21.591 -19.183  0.00  0.00    +0.125 C 
ATOM     13  C   UNL     1      32.138 -23.556 -15.508  0.00  0.00    +0.225 C 
ATOM     14  C   UNL     1      34.379 -23.498 -15.440  0.00  0.00    +0.225 C 
ATOM     15  C   UNL     1      33.302 -23.009 -17.346  0.00  0.00    +0.225 C 
ENDROOT
TORSDOF 0
ENDMDL
MODEL 5
REMARK VINA RESULT:      -6.4      2.328      5.343
REMARK  Name = 5799
REMARK  0 active torsions:
REMARK  status: ('A' for Active; 'I' for Inactive)
REMARK                            x       y       z     vdW  Elec       q    Type
REMARK                         _______ _______ _______ _____ _____    ______ ____
ROOT
ATOM      1  N   UNL     1      35.552 -20.493 -21.129  0.00  0.00    -0.229 N 
ATOM      2  N   UNL     1      34.776 -17.730 -24.849  0.00  0.00    -0.229 N 
ATOM      3  N   UNL     1      34.091 -16.071 -20.506  0.00  0.00    -0.229 N 
ATOM      4  N   UNL     1      35.170 -19.133 -23.006  0.00  0.00    -0.246 NA
ATOM      5  N   UNL     1      34.821 -18.286 -20.789  0.00  0.00    -0.246 NA
ATOM      6  N   UNL     1      34.424 -16.876 -22.689  0.00  0.00    -0.246 NA
ATOM      7  C   UNL     1      35.001 -20.968 -19.853  0.00  0.00    +0.125 C 
ATOM      8  C   UNL     1      36.426 -20.564 -19.951  0.00  0.00    +0.125 C 
ATOM      9  C   UNL     1      35.026 -16.403 -25.429  0.00  0.00    +0.125 C 
ATOM     10  C   UNL     1      33.672 -17.009 -25.497  0.00  0.00    +0.125 C 
ATOM     11  C   UNL     1      33.112 -15.061 -20.931  0.00  0.00    +0.125 C 
ATOM     12  C   UNL     1      34.543 -14.697 -20.762  0.00  0.00    +0.125 C 
ATOM     13  C   UNL     1      35.161 -19.242 -21.668  0.00  0.00    +0.225 C 
ATOM     14  C   UNL     1      34.790 -17.922 -23.445  0.00  0.00    +0.225 C 
ATOM     15  C   UNL     1      34.463 -17.130 -21.371  0.00  0.00    +0.225 C 
ENDROOT
TORSDOF 0
ENDMDL
MODEL 6
REMARK VINA RESULT:      -6.3      9.665     11.696
REMARK  Name = 5799
REMARK  0 active torsions:
REMARK  status: ('A' for Active; 'I' for Inactive)
REMARK                            x       y       z     vdW  Elec       q    Type
REMARK                         _______ _______ _______ _____ _____    ______ ____
ROOT
ATOM      1  N   UNL     1      34.599 -22.513 -18.376  0.00  0.00    -0.229 N 
ATOM      2  N   UNL     1      36.218 -23.822 -14.162  0.00  0.00    -0.229 N 
ATOM      3  N   UNL     1      31.595 -23.833 -15.012  0.00  0.00    -0.229 N 
ATOM      4  N   UNL     1      35.435 -23.162 -16.278  0.00  0.00    -0.246 NA
ATOM      5  N   UNL     1      33.076 -23.168 -16.711  0.00  0.00    -0.246 NA
ATOM      6  N   UNL     1      33.901 -23.835 -14.560  0.00  0.00    -0.246 NA
ATOM      7  C   UNL     1      33.615 -21.676 -19.074  0.00  0.00    +0.125 C 
ATOM      8  C   UNL     1      33.858 -23.074 -19.513  0.00  0.00    +0.125 C 
ATOM      9  C   UNL     1      36.133 -24.846 -13.112  0.00  0.00    +0.125 C 
ATOM     10  C   UNL     1      36.145 -23.404 -12.756  0.00  0.00    +0.125 C 
ATOM     11  C   UNL     1      31.227 -23.663 -13.600  0.00  0.00    +0.125 C 
ATOM     12  C   UNL     1      31.265 -25.018 -14.209  0.00  0.00    +0.125 C 
ATOM     13  C   UNL     1      34.358 -22.970 -17.055  0.00  0.00    +0.225 C 
ATOM     14  C   UNL     1      35.130 -23.595 -15.044  0.00  0.00    +0.225 C 
ATOM     15  C   UNL     1      32.923 -23.600 -15.449  0.00  0.00    +0.225 C 
ENDROOT
TORSDOF 0
ENDMDL
MODEL 7
REMARK VINA RESULT:      -6.2      9.407     12.224
REMARK  Name = 5799
REMARK  0 active torsions:
REMARK  status: ('A' for Active; 'I' for Inactive)
REMARK                            x       y       z     vdW  Elec       q    Type
REMARK                         _______ _______ _______ _____ _____    ______ ____
ROOT
ATOM      1  N   UNL     1      35.980 -24.184 -14.095  0.00  0.00    -0.229 N 
ATOM      2  N   UNL     1      31.375 -23.885 -14.983  0.00  0.00    -0.229 N 
ATOM      3  N   UNL     1      34.488 -22.607 -18.263  0.00  0.00    -0.229 N 
ATOM      4  N   UNL     1      33.672 -24.043 -14.513  0.00  0.00    -0.246 NA
ATOM      5  N   UNL     1      35.261 -23.391 -16.187  0.00  0.00    -0.246 NA
ATOM      6  N   UNL     1      32.910 -23.238 -16.640  0.00  0.00    -0.246 NA
ATOM      7  C   UNL     1      37.262 -23.472 -14.165  0.00  0.00    +0.125 C 
ATOM      8  C   UNL     1      37.169 -24.893 -14.584  0.00  0.00    +0.125 C 
ATOM      9  C   UNL     1      30.320 -24.197 -15.956  0.00  0.00    +0.125 C 
ATOM     10  C   UNL     1      30.358 -22.870 -15.290  0.00  0.00    +0.125 C 
ATOM     11  C   UNL     1      33.563 -21.683 -18.934  0.00  0.00    +0.125 C 
ATOM     12  C   UNL     1      33.727 -23.074 -19.429  0.00  0.00    +0.125 C 
ATOM     13  C   UNL     1      34.918 -23.856 -14.976  0.00  0.00    +0.225 C 
ATOM     14  C   UNL     1      32.719 -23.712 -15.399  0.00  0.00    +0.225 C 
ATOM     15  C   UNL     1      34.205 -23.103 -16.965  0.00  0.00    +0.225 C 
ENDROOT
TORSDOF 0
ENDMDL
MODEL 8
REMARK VINA RESULT:      -6.1     10.988     13.229
REMARK  Name = 5799
REMARK  0 active torsions:
REMARK  status: ('A' for Active; 'I' for Inactive)
REMARK                            x       y       z     vdW  Elec       q    Type
REMARK                         _______ _______ _______ _____ _____    ______ ____
ROOT
ATOM      1  N   UNL     1      31.783 -23.906 -14.709  0.00  0.00    -0.229 N 
ATOM      2  N   UNL     1      36.025 -22.633 -16.281  0.00  0.00    -0.229 N 
ATOM      3  N   UNL     1      35.511 -24.135 -11.858  0.00  0.00    -0.229 N 
ATOM      4  N   UNL     1      33.892 -23.262 -15.520  0.00  0.00    -0.246 NA
ATOM      5  N   UNL     1      33.630 -24.029 -13.262  0.00  0.00    -0.246 NA
ATOM      6  N   UNL     1      35.796 -23.379 -14.064  0.00  0.00    -0.246 NA
ATOM      7  C   UNL     1      30.819 -23.759 -13.611  0.00  0.00    +0.125 C 
ATOM      8  C   UNL     1      31.090 -25.096 -14.199  0.00  0.00    +0.125 C 
ATOM      9  C   UNL     1      37.439 -23.022 -16.360  0.00  0.00    +0.125 C 
ATOM     10  C   UNL     1      37.062 -21.628 -16.014  0.00  0.00    +0.125 C 
ATOM     11  C   UNL     1      36.686 -23.408 -11.361  0.00  0.00    +0.125 C 
ATOM     12  C   UNL     1      36.797 -24.836 -11.752  0.00  0.00    +0.125 C 
ATOM     13  C   UNL     1      33.171 -23.722 -14.485  0.00  0.00    +0.225 C 
ATOM     14  C   UNL     1      35.196 -23.115 -15.236  0.00  0.00    +0.225 C 
ATOM     15  C   UNL     1      34.951 -23.832 -13.124  0.00  0.00    +0.225 C 
ENDROOT
TORSDOF 0
ENDMDL
MODEL 9
REMARK VINA RESULT:      -6.0      4.368      5.465
REMARK  Name = 5799
REMARK  0 active torsions:
REMARK  status: ('A' for Active; 'I' for Inactive)
REMARK                            x       y       z     vdW  Elec       q    Type
REMARK                         _______ _______ _______ _____ _____    ______ ____
ROOT
ATOM      1  N   UNL     1      34.581  -8.437 -24.301  0.00  0.00    -0.229 N 
ATOM      2  N   UNL     1      33.805 -13.066 -24.545  0.00  0.00    -0.229 N 
ATOM      3  N   UNL     1      31.666 -10.495 -21.244  0.00  0.00    -0.229 N 
ATOM      4  N   UNL     1      34.212 -10.753 -24.444  0.00  0.00    -0.246 NA
ATOM      5  N   UNL     1      33.120  -9.441 -22.759  0.00  0.00    -0.246 NA
ATOM      6  N   UNL     1      32.724 -11.804 -22.883  0.00  0.00    -0.246 NA
ATOM      7  C   UNL     1      34.909  -7.324 -23.401  0.00  0.00    +0.125 C 
ATOM      8  C   UNL     1      33.847  -7.172 -24.429  0.00  0.00    +0.125 C 
ATOM      9  C   UNL     1      32.770 -14.108 -24.553  0.00  0.00    +0.125 C 
ATOM     10  C   UNL     1      33.999 -14.278 -23.737  0.00  0.00    +0.125 C 
ATOM     11  C   UNL     1      31.501 -11.625 -20.319  0.00  0.00    +0.125 C 
ATOM     12  C   UNL     1      30.396 -11.233 -21.232  0.00  0.00    +0.125 C 
ATOM     13  C   UNL     1      33.939  -9.603 -23.809  0.00  0.00    +0.225 C 
ATOM     14  C   UNL     1      33.569 -11.812 -23.926  0.00  0.00    +0.225 C 
ATOM     15  C   UNL     1      32.547 -10.585 -22.350  0.00  0.00    +0.225 C 
ENDROOT
TORSDOF 0
ENDMDL
