MODEL 1
REMARK VINA RESULT:      -9.5      0.000      0.000
REMARK  Name = 44137686
REMARK  6 active torsions:
REMARK  status: ('A' for Active; 'I' for Inactive)
REMARK    1  A    between atoms: N_1  and  C_6
REMARK    2  A    between atoms: C_2  and  C_18
REMARK    3  A    between atoms: C_9  and  C_15
REMARK    4  A    between atoms: C_11  and  C_17
REMARK    5  A    between atoms: C_18  and  C_22
REMARK    6  A    between atoms: C_18  and  O_23
REMARK                            x       y       z     vdW  Elec       q    Type
REMARK                         _______ _______ _______ _____ _____    ______ ____
ROOT
ATOM      1  N   UNL     1      34.707 -17.308 -23.308  0.00  0.00    -0.306 N 
ATOM      2  C   UNL     1      33.903 -16.095 -23.101  0.00  0.00    +0.108 C 
ATOM      3  C   UNL     1      33.832 -15.463 -24.504  0.00  0.00    +0.024 C 
ATOM      4  C   UNL     1      33.967 -16.652 -25.437  0.00  0.00    +0.023 C 
ATOM      5  C   UNL     1      34.993 -17.526 -24.726  0.00  0.00    +0.091 C 
ENDROOT
BRANCH   1   6
ATOM      6  C   UNL     1      35.015 -18.249 -22.346  0.00  0.00    +0.048 C 
ATOM      7  C   UNL     1      34.016 -19.076 -21.834  0.00  0.00    +0.019 C 
ATOM      8  C   UNL     1      36.328 -18.373 -21.888  0.00  0.00    +0.015 C 
ATOM      9  C   UNL     1      34.328 -20.027 -20.863  0.00  0.00    +0.082 C 
ATOM     10  C   UNL     1      36.639 -19.323 -20.915  0.00  0.00    +0.011 C 
ATOM     11  C   UNL     1      35.640 -20.151 -20.403  0.00  0.00    +0.072 C 
BRANCH   9  15
ATOM     12  F   UNL     1      32.116 -20.859 -21.118  0.00  0.00    -0.166 F 
ATOM     13  F   UNL     1      33.576 -22.213 -20.247  0.00  0.00    -0.166 F 
ATOM     14  F   UNL     1      32.816 -20.548 -19.084  0.00  0.00    -0.166 F 
ATOM     15  C   UNL     1      33.231 -20.896 -20.336  0.00  0.00    +0.419 C 
ENDBRANCH   9  15
BRANCH  11  17
ATOM     16  N   UNL     1      36.266 -21.903 -18.599  0.00  0.00    -0.191 NA
ATOM     17  C   UNL     1      35.985 -21.118 -19.406  0.00  0.00    +0.100 C 
ENDBRANCH  11  17
ENDBRANCH   1   6
BRANCH   2  18
ATOM     18  C   UNL     1      34.547 -15.117 -22.124  0.00  0.00    +0.224 C 
BRANCH  18  22
ATOM     19  F   UNL     1      32.902 -16.084 -20.732  0.00  0.00    -0.167 F 
ATOM     20  F   UNL     1      34.752 -15.421 -19.794  0.00  0.00    -0.167 F 
ATOM     21  F   UNL     1      33.293 -13.952 -20.483  0.00  0.00    -0.167 F 
ATOM     22  C   UNL     1      33.865 -15.140 -20.774  0.00  0.00    +0.423 C 
ENDBRANCH  18  22
BRANCH  18  23
ATOM     23  O   UNL     1      34.455 -13.800 -22.652  0.00  0.00    -0.376 OA
ATOM     24  H   UNL     1      34.752 -13.162 -21.984  0.00  0.00    +0.211 HD
ENDBRANCH  18  23
ENDBRANCH   2  18
TORSDOF 6
ENDMDL
MODEL 2
REMARK VINA RESULT:      -9.3      2.734      3.767
REMARK  Name = 44137686
REMARK  6 active torsions:
REMARK  status: ('A' for Active; 'I' for Inactive)
REMARK    1  A    between atoms: N_1  and  C_6
REMARK    2  A    between atoms: C_2  and  C_18
REMARK    3  A    between atoms: C_9  and  C_15
REMARK    4  A    between atoms: C_11  and  C_17
REMARK    5  A    between atoms: C_18  and  C_22
REMARK    6  A    between atoms: C_18  and  O_23
REMARK                            x       y       z     vdW  Elec       q    Type
REMARK                         _______ _______ _______ _____ _____    ______ ____
ROOT
ATOM      1  N   UNL     1      34.069 -16.894 -21.597  0.00  0.00    -0.306 N 
ATOM      2  C   UNL     1      34.744 -16.466 -22.831  0.00  0.00    +0.108 C 
ATOM      3  C   UNL     1      34.520 -14.942 -22.857  0.00  0.00    +0.024 C 
ATOM      4  C   UNL     1      34.387 -14.577 -21.390  0.00  0.00    +0.023 C 
ATOM      5  C   UNL     1      33.595 -15.749 -20.820  0.00  0.00    +0.091 C 
ENDROOT
BRANCH   1   6
ATOM      6  C   UNL     1      34.028 -18.182 -21.102  0.00  0.00    +0.048 C 
ATOM      7  C   UNL     1      35.214 -18.854 -20.808  0.00  0.00    +0.019 C 
ATOM      8  C   UNL     1      32.800 -18.810 -20.893  0.00  0.00    +0.015 C 
ATOM      9  C   UNL     1      35.173 -20.155 -20.307  0.00  0.00    +0.082 C 
ATOM     10  C   UNL     1      32.759 -20.112 -20.393  0.00  0.00    +0.011 C 
ATOM     11  C   UNL     1      33.945 -20.784 -20.099  0.00  0.00    +0.072 C 
BRANCH   9  15
ATOM     12  F   UNL     1      37.549 -20.112 -20.384  0.00  0.00    -0.166 F 
ATOM     13  F   UNL     1      36.643 -21.106 -18.677  0.00  0.00    -0.166 F 
ATOM     14  F   UNL     1      36.596 -22.050 -20.629  0.00  0.00    -0.166 F 
ATOM     15  C   UNL     1      36.465 -20.845 -20.004  0.00  0.00    +0.419 C 
ENDBRANCH   9  15
BRANCH  11  17
ATOM     16  N   UNL     1      33.820 -23.201 -19.171  0.00  0.00    -0.191 NA
ATOM     17  C   UNL     1      33.876 -22.118 -19.586  0.00  0.00    +0.100 C 
ENDBRANCH  11  17
ENDBRANCH   1   6
BRANCH   2  18
ATOM     18  C   UNL     1      34.145 -17.099 -24.083  0.00  0.00    +0.224 C 
BRANCH  18  22
ATOM     19  F   UNL     1      34.932 -18.569 -25.756  0.00  0.00    -0.167 F 
ATOM     20  F   UNL     1      36.052 -18.474 -23.891  0.00  0.00    -0.167 F 
ATOM     21  F   UNL     1      34.109 -19.466 -23.945  0.00  0.00    -0.167 F 
ATOM     22  C   UNL     1      34.810 -18.415 -24.421  0.00  0.00    +0.423 C 
ENDBRANCH  18  22
BRANCH  18  23
ATOM     23  O   UNL     1      34.318 -16.214 -25.183  0.00  0.00    -0.376 OA
ATOM     24  H   UNL     1      34.782 -15.415 -24.885  0.00  0.00    +0.211 HD
ENDBRANCH  18  23
ENDBRANCH   2  18
TORSDOF 6
ENDMDL
MODEL 3
REMARK VINA RESULT:      -9.1      1.783      2.479
REMARK  Name = 44137686
REMARK  6 active torsions:
REMARK  status: ('A' for Active; 'I' for Inactive)
REMARK    1  A    between atoms: N_1  and  C_6
REMARK    2  A    between atoms: C_2  and  C_18
REMARK    3  A    between atoms: C_9  and  C_15
REMARK    4  A    between atoms: C_11  and  C_17
REMARK    5  A    between atoms: C_18  and  C_22
REMARK    6  A    between atoms: C_18  and  O_23
REMARK                            x       y       z     vdW  Elec       q    Type
REMARK                         _______ _______ _______ _____ _____    ______ ____
ROOT
ATOM      1  N   UNL     1      34.533 -17.765 -22.557  0.00  0.00    -0.306 N 
ATOM      2  C   UNL     1      33.851 -16.465 -22.652  0.00  0.00    +0.108 C 
ATOM      3  C   UNL     1      34.560 -15.769 -23.829  0.00  0.00    +0.024 C 
ATOM      4  C   UNL     1      35.038 -16.924 -24.690  0.00  0.00    +0.023 C 
ATOM      5  C   UNL     1      35.476 -17.957 -23.659  0.00  0.00    +0.091 C 
ENDROOT
BRANCH   1   6
ATOM      6  C   UNL     1      34.223 -18.779 -21.674  0.00  0.00    +0.048 C 
ATOM      7  C   UNL     1      35.240 -19.555 -21.117  0.00  0.00    +0.019 C 
ATOM      8  C   UNL     1      32.891 -19.028 -21.338  0.00  0.00    +0.015 C 
ATOM      9  C   UNL     1      34.926 -20.579 -20.225  0.00  0.00    +0.082 C 
ATOM     10  C   UNL     1      32.578 -20.054 -20.446  0.00  0.00    +0.011 C 
ATOM     11  C   UNL     1      33.596 -20.829 -19.889  0.00  0.00    +0.072 C 
BRANCH   9  15
ATOM     12  F   UNL     1      37.230 -21.167 -20.280  0.00  0.00    -0.166 F 
ATOM     13  F   UNL     1      36.273 -21.136 -18.328  0.00  0.00    -0.166 F 
ATOM     14  F   UNL     1      35.831 -22.736 -19.724  0.00  0.00    -0.166 F 
ATOM     15  C   UNL     1      36.042 -21.390 -19.648  0.00  0.00    +0.419 C 
ENDBRANCH   9  15
BRANCH  11  17
ATOM     16  N   UNL     1      32.965 -22.724 -18.236  0.00  0.00    -0.191 NA
ATOM     17  C   UNL     1      33.247 -21.875 -18.976  0.00  0.00    +0.100 C 
ENDBRANCH  11  17
ENDBRANCH   1   6
BRANCH   2  18
ATOM     18  C   UNL     1      34.000 -15.626 -21.387  0.00  0.00    +0.224 C 
BRANCH  18  22
ATOM     19  F   UNL     1      31.890 -16.083 -20.427  0.00  0.00    -0.167 F 
ATOM     20  F   UNL     1      32.845 -14.193 -19.913  0.00  0.00    -0.167 F 
ATOM     21  F   UNL     1      31.991 -14.477 -21.901  0.00  0.00    -0.167 F 
ATOM     22  C   UNL     1      32.669 -15.090 -20.908  0.00  0.00    +0.423 C 
ENDBRANCH  18  22
BRANCH  18  23
ATOM     23  O   UNL     1      34.858 -14.524 -21.657  0.00  0.00    -0.376 OA
ATOM     24  H   UNL     1      34.635 -14.144 -22.521  0.00  0.00    +0.211 HD
ENDBRANCH  18  23
ENDBRANCH   2  18
TORSDOF 6
ENDMDL
MODEL 4
REMARK VINA RESULT:      -8.4      6.346     10.184
REMARK  Name = 44137686
REMARK  6 active torsions:
REMARK  status: ('A' for Active; 'I' for Inactive)
REMARK    1  A    between atoms: N_1  and  C_6
REMARK    2  A    between atoms: C_2  and  C_18
REMARK    3  A    between atoms: C_9  and  C_15
REMARK    4  A    between atoms: C_11  and  C_17
REMARK    5  A    between atoms: C_18  and  C_22
REMARK    6  A    between atoms: C_18  and  O_23
REMARK                            x       y       z     vdW  Elec       q    Type
REMARK                         _______ _______ _______ _____ _____    ______ ____
ROOT
ATOM      1  N   UNL     1      36.232 -23.734 -14.217  0.00  0.00    -0.306 N 
ATOM      2  C   UNL     1      37.087 -24.876 -13.862  0.00  0.00    +0.108 C 
ATOM      3  C   UNL     1      36.708 -25.171 -12.399  0.00  0.00    +0.024 C 
ATOM      4  C   UNL     1      35.273 -24.686 -12.298  0.00  0.00    +0.023 C 
ATOM      5  C   UNL     1      35.282 -23.422 -13.149  0.00  0.00    +0.091 C 
ENDROOT
BRANCH   1   6
ATOM      6  C   UNL     1      36.168 -23.124 -15.454  0.00  0.00    +0.048 C 
ATOM      7  C   UNL     1      35.016 -23.241 -16.231  0.00  0.00    +0.019 C 
ATOM      8  C   UNL     1      37.257 -22.390 -15.927  0.00  0.00    +0.015 C 
ATOM      9  C   UNL     1      34.951 -22.625 -17.480  0.00  0.00    +0.082 C 
ATOM     10  C   UNL     1      37.192 -21.775 -17.177  0.00  0.00    +0.011 C 
ATOM     11  C   UNL     1      36.039 -21.891 -17.953  0.00  0.00    +0.072 C 
BRANCH   9  15
ATOM     12  F   UNL     1      32.694 -23.366 -17.581  0.00  0.00    -0.166 F 
ATOM     13  F   UNL     1      33.192 -21.583 -18.722  0.00  0.00    -0.166 F 
ATOM     14  F   UNL     1      33.862 -23.528 -19.408  0.00  0.00    -0.166 F 
ATOM     15  C   UNL     1      33.699 -22.771 -18.285  0.00  0.00    +0.419 C 
ENDBRANCH   9  15
BRANCH  11  17
ATOM     16  N   UNL     1      35.964 -20.730 -20.270  0.00  0.00    -0.191 NA
ATOM     17  C   UNL     1      35.998 -21.249 -19.232  0.00  0.00    +0.100 C 
ENDBRANCH  11  17
ENDBRANCH   1   6
BRANCH   2  18
ATOM     18  C   UNL     1      38.575 -24.554 -13.958  0.00  0.00    +0.224 C 
BRANCH  18  22
ATOM     19  F   UNL     1      40.294 -26.118 -13.536  0.00  0.00    -0.167 F 
ATOM     20  F   UNL     1      38.571 -26.798 -14.683  0.00  0.00    -0.167 F 
ATOM     21  F   UNL     1      40.029 -25.456 -15.598  0.00  0.00    -0.167 F 
ATOM     22  C   UNL     1      39.376 -25.738 -14.451  0.00  0.00    +0.423 C 
ENDBRANCH  18  22
BRANCH  18  23
ATOM     23  O   UNL     1      39.057 -24.190 -12.670  0.00  0.00    -0.376 OA
ATOM     24  H   UNL     1      38.321 -24.187 -12.037  0.00  0.00    +0.211 HD
ENDBRANCH  18  23
ENDBRANCH   2  18
TORSDOF 6
ENDMDL
MODEL 5
REMARK VINA RESULT:      -8.4      8.400     10.098
REMARK  Name = 44137686
REMARK  6 active torsions:
REMARK  status: ('A' for Active; 'I' for Inactive)
REMARK    1  A    between atoms: N_1  and  C_6
REMARK    2  A    between atoms: C_2  and  C_18
REMARK    3  A    between atoms: C_9  and  C_15
REMARK    4  A    between atoms: C_11  and  C_17
REMARK    5  A    between atoms: C_18  and  C_22
REMARK    6  A    between atoms: C_18  and  O_23
REMARK                            x       y       z     vdW  Elec       q    Type
REMARK                         _______ _______ _______ _____ _____    ______ ____
ROOT
ATOM      1  N   UNL     1      35.391 -23.115 -16.088  0.00  0.00    -0.306 N 
ATOM      2  C   UNL     1      36.320 -23.512 -15.020  0.00  0.00    +0.108 C 
ATOM      3  C   UNL     1      37.693 -23.050 -15.543  0.00  0.00    +0.024 C 
ATOM      4  C   UNL     1      37.354 -21.877 -16.445  0.00  0.00    +0.023 C 
ATOM      5  C   UNL     1      36.067 -22.333 -17.124  0.00  0.00    +0.091 C 
ENDROOT
BRANCH   1   6
ATOM      6  C   UNL     1      34.020 -23.272 -16.069  0.00  0.00    +0.048 C 
ATOM      7  C   UNL     1      33.401 -23.864 -14.968  0.00  0.00    +0.019 C 
ATOM      8  C   UNL     1      33.253 -22.838 -17.151  0.00  0.00    +0.015 C 
ATOM      9  C   UNL     1      32.016 -24.023 -14.949  0.00  0.00    +0.082 C 
ATOM     10  C   UNL     1      31.868 -22.998 -17.132  0.00  0.00    +0.011 C 
ATOM     11  C   UNL     1      31.249 -23.589 -16.030  0.00  0.00    +0.072 C 
BRANCH   9  15
ATOM     12  F   UNL     1      32.305 -25.241 -12.927  0.00  0.00    -0.166 F 
ATOM     13  F   UNL     1      30.690 -23.787 -12.972  0.00  0.00    -0.166 F 
ATOM     14  F   UNL     1      30.499 -25.649 -14.067  0.00  0.00    -0.166 F 
ATOM     15  C   UNL     1      31.387 -24.662 -13.752  0.00  0.00    +0.419 C 
ENDBRANCH   9  15
BRANCH  11  17
ATOM     16  N   UNL     1      28.671 -23.864 -16.039  0.00  0.00    -0.191 NA
ATOM     17  C   UNL     1      29.825 -23.741 -16.035  0.00  0.00    +0.100 C 
ENDBRANCH  11  17
ENDBRANCH   1   6
BRANCH   2  18
ATOM     18  C   UNL     1      36.336 -25.018 -14.780  0.00  0.00    +0.224 C 
BRANCH  18  22
ATOM     19  F   UNL     1      35.556 -25.092 -12.552  0.00  0.00    -0.167 F 
ATOM     20  F   UNL     1      36.915 -26.667 -13.197  0.00  0.00    -0.167 F 
ATOM     21  F   UNL     1      37.670 -24.648 -12.856  0.00  0.00    -0.167 F 
ATOM     22  C   UNL     1      36.625 -25.354 -13.334  0.00  0.00    +0.423 C 
ENDBRANCH  18  22
BRANCH  18  23
ATOM     23  O   UNL     1      37.347 -25.608 -15.589  0.00  0.00    -0.376 OA
ATOM     24  H   UNL     1      37.297 -25.244 -16.487  0.00  0.00    +0.211 HD
ENDBRANCH  18  23
ENDBRANCH   2  18
TORSDOF 6
ENDMDL
MODEL 6
REMARK VINA RESULT:      -8.3      4.463      8.328
REMARK  Name = 44137686
REMARK  6 active torsions:
REMARK  status: ('A' for Active; 'I' for Inactive)
REMARK    1  A    between atoms: N_1  and  C_6
REMARK    2  A    between atoms: C_2  and  C_18
REMARK    3  A    between atoms: C_9  and  C_15
REMARK    4  A    between atoms: C_11  and  C_17
REMARK    5  A    between atoms: C_18  and  C_22
REMARK    6  A    between atoms: C_18  and  O_23
REMARK                            x       y       z     vdW  Elec       q    Type
REMARK                         _______ _______ _______ _____ _____    ______ ____
ROOT
ATOM      1  N   UNL     1      33.532 -13.564 -24.350  0.00  0.00    -0.306 N 
ATOM      2  C   UNL     1      34.185 -14.583 -23.515  0.00  0.00    +0.108 C 
ATOM      3  C   UNL     1      33.815 -15.908 -24.206  0.00  0.00    +0.024 C 
ATOM      4  C   UNL     1      33.619 -15.512 -25.657  0.00  0.00    +0.023 C 
ATOM      5  C   UNL     1      32.936 -14.154 -25.548  0.00  0.00    +0.091 C 
ENDROOT
BRANCH   1   6
ATOM      6  C   UNL     1      33.608 -12.198 -24.168  0.00  0.00    +0.048 C 
ATOM      7  C   UNL     1      32.763 -11.568 -23.255  0.00  0.00    +0.019 C 
ATOM      8  C   UNL     1      34.532 -11.447 -24.896  0.00  0.00    +0.015 C 
ATOM      9  C   UNL     1      32.840 -10.187 -23.070  0.00  0.00    +0.082 C 
ATOM     10  C   UNL     1      34.607 -10.066 -24.712  0.00  0.00    +0.011 C 
ATOM     11  C   UNL     1      33.762  -9.436 -23.798  0.00  0.00    +0.072 C 
BRANCH   9  15
ATOM     12  F   UNL     1      31.060 -10.440 -21.514  0.00  0.00    -0.166 F 
ATOM     13  F   UNL     1      32.566  -8.944 -21.044  0.00  0.00    -0.166 F 
ATOM     14  F   UNL     1      31.130  -8.574 -22.627  0.00  0.00    -0.166 F 
ATOM     15  C   UNL     1      31.918  -9.546 -22.083  0.00  0.00    +0.419 C 
ENDBRANCH   9  15
BRANCH  11  17
ATOM     16  N   UNL     1      33.940  -6.869 -23.490  0.00  0.00    -0.191 NA
ATOM     17  C   UNL     1      33.861  -8.018 -23.628  0.00  0.00    +0.100 C 
ENDBRANCH  11  17
ENDBRANCH   1   6
BRANCH   2  18
ATOM     18  C   UNL     1      33.674 -14.586 -22.078  0.00  0.00    +0.224 C 
BRANCH  18  22
ATOM     19  F   UNL     1      34.773 -15.155 -20.066  0.00  0.00    -0.167 F 
ATOM     20  F   UNL     1      33.482 -16.659 -20.970  0.00  0.00    -0.167 F 
ATOM     21  F   UNL     1      35.410 -16.189 -21.879  0.00  0.00    -0.167 F 
ATOM     22  C   UNL     1      34.344 -15.655 -21.245  0.00  0.00    +0.423 C 
ENDBRANCH  18  22
BRANCH  18  23
ATOM     23  O   UNL     1      32.273 -14.831 -22.082  0.00  0.00    -0.376 OA
ATOM     24  H   UNL     1      31.941 -14.824 -21.170  0.00  0.00    +0.211 HD
ENDBRANCH  18  23
ENDBRANCH   2  18
TORSDOF 6
ENDMDL
MODEL 7
REMARK VINA RESULT:      -8.2      3.914      7.156
REMARK  Name = 44137686
REMARK  6 active torsions:
REMARK  status: ('A' for Active; 'I' for Inactive)
REMARK    1  A    between atoms: N_1  and  C_6
REMARK    2  A    between atoms: C_2  and  C_18
REMARK    3  A    between atoms: C_9  and  C_15
REMARK    4  A    between atoms: C_11  and  C_17
REMARK    5  A    between atoms: C_18  and  C_22
REMARK    6  A    between atoms: C_18  and  O_23
REMARK                            x       y       z     vdW  Elec       q    Type
REMARK                         _______ _______ _______ _____ _____    ______ ____
ROOT
ATOM      1  N   UNL     1      33.772 -14.897 -24.042  0.00  0.00    -0.306 N 
ATOM      2  C   UNL     1      34.506 -15.797 -23.140  0.00  0.00    +0.108 C 
ATOM      3  C   UNL     1      34.654 -17.091 -23.962  0.00  0.00    +0.024 C 
ATOM      4  C   UNL     1      34.640 -16.604 -25.399  0.00  0.00    +0.023 C 
ATOM      5  C   UNL     1      33.602 -15.489 -25.369  0.00  0.00    +0.091 C 
ENDROOT
BRANCH   1   6
ATOM      6  C   UNL     1      33.433 -13.586 -23.777  0.00  0.00    +0.048 C 
ATOM      7  C   UNL     1      32.662 -13.277 -22.656  0.00  0.00    +0.019 C 
ATOM      8  C   UNL     1      33.862 -12.568 -24.631  0.00  0.00    +0.015 C 
ATOM      9  C   UNL     1      32.320 -11.952 -22.389  0.00  0.00    +0.082 C 
ATOM     10  C   UNL     1      33.519 -11.243 -24.363  0.00  0.00    +0.011 C 
ATOM     11  C   UNL     1      32.749 -10.934 -23.242  0.00  0.00    +0.072 C 
BRANCH   9  15
ATOM     12  F   UNL     1      31.476 -12.696 -20.294  0.00  0.00    -0.166 F 
ATOM     13  F   UNL     1      31.929 -10.577 -20.470  0.00  0.00    -0.166 F 
ATOM     14  F   UNL     1      30.185 -11.396 -21.465  0.00  0.00    -0.166 F 
ATOM     15  C   UNL     1      31.493 -11.658 -21.178  0.00  0.00    +0.419 C 
ENDBRANCH   9  15
BRANCH  11  17
ATOM     16  N   UNL     1      32.135  -8.458 -22.785  0.00  0.00    -0.191 NA
ATOM     17  C   UNL     1      32.410  -9.566 -22.989  0.00  0.00    +0.100 C 
ENDBRANCH  11  17
ENDBRANCH   1   6
BRANCH   2  18
ATOM     18  C   UNL     1      33.748 -16.086 -21.848  0.00  0.00    +0.224 C 
BRANCH  18  22
ATOM     19  F   UNL     1      33.409 -14.881 -19.845  0.00  0.00    -0.167 F 
ATOM     20  F   UNL     1      35.124 -16.221 -19.938  0.00  0.00    -0.167 F 
ATOM     21  F   UNL     1      35.146 -14.345 -21.052  0.00  0.00    -0.167 F 
ATOM     22  C   UNL     1      34.363 -15.374 -20.664  0.00  0.00    +0.423 C 
ENDBRANCH  18  22
BRANCH  18  23
ATOM     23  O   UNL     1      33.777 -17.486 -21.594  0.00  0.00    -0.376 OA
ATOM     24  H   UNL     1      33.468 -17.964 -22.380  0.00  0.00    +0.211 HD
ENDBRANCH  18  23
ENDBRANCH   2  18
TORSDOF 6
ENDMDL
MODEL 8
REMARK VINA RESULT:      -8.1      5.755      9.274
REMARK  Name = 44137686
REMARK  6 active torsions:
REMARK  status: ('A' for Active; 'I' for Inactive)
REMARK    1  A    between atoms: N_1  and  C_6
REMARK    2  A    between atoms: C_2  and  C_18
REMARK    3  A    between atoms: C_9  and  C_15
REMARK    4  A    between atoms: C_11  and  C_17
REMARK    5  A    between atoms: C_18  and  C_22
REMARK    6  A    between atoms: C_18  and  O_23
REMARK                            x       y       z     vdW  Elec       q    Type
REMARK                         _______ _______ _______ _____ _____    ______ ____
ROOT
ATOM      1  N   UNL     1      35.409 -23.832 -14.400  0.00  0.00    -0.306 N 
ATOM      2  C   UNL     1      34.196 -23.713 -13.577  0.00  0.00    +0.108 C 
ATOM      3  C   UNL     1      34.500 -24.596 -12.353  0.00  0.00    +0.024 C 
ATOM      4  C   UNL     1      36.013 -24.551 -12.248  0.00  0.00    +0.023 C 
ATOM      5  C   UNL     1      36.455 -24.584 -13.706  0.00  0.00    +0.091 C 
ENDROOT
BRANCH   1   6
ATOM      6  C   UNL     1      35.646 -23.180 -15.593  0.00  0.00    +0.048 C 
ATOM      7  C   UNL     1      34.632 -23.076 -16.545  0.00  0.00    +0.019 C 
ATOM      8  C   UNL     1      36.900 -22.623 -15.846  0.00  0.00    +0.015 C 
ATOM      9  C   UNL     1      34.871 -22.416 -17.750  0.00  0.00    +0.082 C 
ATOM     10  C   UNL     1      37.140 -21.964 -17.052  0.00  0.00    +0.011 C 
ATOM     11  C   UNL     1      36.125 -21.860 -18.003  0.00  0.00    +0.072 C 
BRANCH   9  15
ATOM     12  F   UNL     1      32.558 -22.696 -18.223  0.00  0.00    -0.166 F 
ATOM     13  F   UNL     1      33.576 -21.067 -19.242  0.00  0.00    -0.166 F 
ATOM     14  F   UNL     1      33.947 -23.118 -19.841  0.00  0.00    -0.166 F 
ATOM     15  C   UNL     1      33.761 -22.325 -18.747  0.00  0.00    +0.419 C 
ENDBRANCH   9  15
BRANCH  11  17
ATOM     16  N   UNL     1      36.616 -20.626 -20.230  0.00  0.00    -0.191 NA
ATOM     17  C   UNL     1      36.396 -21.178 -19.233  0.00  0.00    +0.100 C 
ENDBRANCH  11  17
ENDBRANCH   1   6
BRANCH   2  18
ATOM     18  C   UNL     1      32.947 -24.223 -14.289  0.00  0.00    +0.224 C 
BRANCH  18  22
ATOM     19  F   UNL     1      31.791 -22.288 -14.994  0.00  0.00    -0.167 F 
ATOM     20  F   UNL     1      30.604 -23.959 -14.256  0.00  0.00    -0.167 F 
ATOM     21  F   UNL     1      31.764 -22.746 -12.860  0.00  0.00    -0.167 F 
ATOM     22  C   UNL     1      31.769 -23.295 -14.094  0.00  0.00    +0.423 C 
ENDBRANCH  18  22
BRANCH  18  23
ATOM     23  O   UNL     1      32.602 -25.501 -13.767  0.00  0.00    -0.376 OA
ATOM     24  H   UNL     1      31.961 -25.929 -14.356  0.00  0.00    +0.211 HD
ENDBRANCH  18  23
ENDBRANCH   2  18
TORSDOF 6
ENDMDL
MODEL 9
REMARK VINA RESULT:      -8.0      3.962      7.716
REMARK  Name = 44137686
REMARK  6 active torsions:
REMARK  status: ('A' for Active; 'I' for Inactive)
REMARK    1  A    between atoms: N_1  and  C_6
REMARK    2  A    between atoms: C_2  and  C_18
REMARK    3  A    between atoms: C_9  and  C_15
REMARK    4  A    between atoms: C_11  and  C_17
REMARK    5  A    between atoms: C_18  and  C_22
REMARK    6  A    between atoms: C_18  and  O_23
REMARK                            x       y       z     vdW  Elec       q    Type
REMARK                         _______ _______ _______ _____ _____    ______ ____
ROOT
ATOM      1  N   UNL     1      33.754 -15.049 -23.948  0.00  0.00    -0.306 N 
ATOM      2  C   UNL     1      34.562 -15.952 -23.116  0.00  0.00    +0.108 C 
ATOM      3  C   UNL     1      34.750 -17.195 -24.006  0.00  0.00    +0.024 C 
ATOM      4  C   UNL     1      34.664 -16.639 -25.416  0.00  0.00    +0.023 C 
ATOM      5  C   UNL     1      33.572 -15.583 -25.298  0.00  0.00    +0.091 C 
ENDROOT
BRANCH   1   6
ATOM      6  C   UNL     1      33.356 -13.772 -23.607  0.00  0.00    +0.048 C 
ATOM      7  C   UNL     1      33.988 -12.668 -24.180  0.00  0.00    +0.019 C 
ATOM      8  C   UNL     1      32.322 -13.586 -22.689  0.00  0.00    +0.015 C 
ATOM      9  C   UNL     1      33.586 -11.378 -23.835  0.00  0.00    +0.082 C 
ATOM     10  C   UNL     1      31.921 -12.295 -22.344  0.00  0.00    +0.011 C 
ATOM     11  C   UNL     1      32.552 -11.191 -22.918  0.00  0.00    +0.072 C 
BRANCH   9  15
ATOM     12  F   UNL     1      35.016 -10.584 -25.561  0.00  0.00    -0.166 F 
ATOM     13  F   UNL     1      33.438  -9.242 -24.901  0.00  0.00    -0.166 F 
ATOM     14  F   UNL     1      35.162  -9.591 -23.633  0.00  0.00    -0.166 F 
ATOM     15  C   UNL     1      34.286 -10.219 -24.469  0.00  0.00    +0.419 C 
ENDBRANCH   9  15
BRANCH  11  17
ATOM     16  N   UNL     1      31.772  -8.812 -22.245  0.00  0.00    -0.191 NA
ATOM     17  C   UNL     1      32.122  -9.877 -22.547  0.00  0.00    +0.100 C 
ENDBRANCH  11  17
ENDBRANCH   1   6
BRANCH   2  18
ATOM     18  C   UNL     1      33.864 -16.345 -21.818  0.00  0.00    +0.224 C 
BRANCH  18  22
ATOM     19  F   UNL     1      35.144 -16.250 -19.836  0.00  0.00    -0.167 F 
ATOM     20  F   UNL     1      35.069 -14.459 -21.074  0.00  0.00    -0.167 F 
ATOM     21  F   UNL     1      33.322 -15.051 -19.906  0.00  0.00    -0.167 F 
ATOM     22  C   UNL     1      34.349 -15.520 -20.647  0.00  0.00    +0.423 C 
ENDBRANCH  18  22
BRANCH  18  23
ATOM     23  O   UNL     1      34.127 -17.715 -21.543  0.00  0.00    -0.376 OA
ATOM     24  H   UNL     1      34.958 -17.977 -21.969  0.00  0.00    +0.211 HD
ENDBRANCH  18  23
ENDBRANCH   2  18
TORSDOF 6
ENDMDL
