MODEL 1
REMARK VINA RESULT:      -7.3      0.000      0.000
REMARK  Name = 4292413
REMARK  13 active torsions:
REMARK  status: ('A' for Active; 'I' for Inactive)
REMARK    1  A    between atoms: C_1  and  C_2
REMARK    2  A    between atoms: C_1  and  C_11
REMARK    3  A    between atoms: C_2  and  C_3
REMARK    4  A    between atoms: C_3  and  N_4
REMARK    5  A    between atoms: N_4  and  C_7
REMARK    6  A    between atoms: C_7  and  C_10
REMARK    7  A    between atoms: C_11  and  C_12
REMARK    8  A    between atoms: C_12  and  C_13
REMARK    9  A    between atoms: C_13  and  C_14
REMARK   10  A    between atoms: C_14  and  C_15
REMARK   11  A    between atoms: C_15  and  C_16
REMARK   12  A    between atoms: C_16  and  C_17
REMARK   13  A    between atoms: C_17  and  C_18
REMARK                            x       y       z     vdW  Elec       q    Type
REMARK                         _______ _______ _______ _____ _____    ______ ____
ROOT
ATOM      1  C   UNL     1      33.589 -23.220 -16.672  0.00  0.00    -0.002 C 
ENDROOT
BRANCH   1   2
ATOM      2  C   UNL     1      32.509 -23.531 -15.629  0.00  0.00    -0.022 C 
BRANCH   2   3
ATOM      3  C   UNL     1      31.069 -23.369 -16.098  0.00  0.00    -0.072 C 
BRANCH   3   4
ATOM      4  N   UNL     1      30.131 -23.976 -15.125  0.00  0.00    +0.395 N 
ATOM      5  C   UNL     1      30.557 -23.663 -13.683  0.00  0.00    -0.095 C 
ATOM      6  C   UNL     1      30.086 -25.503 -15.287  0.00  0.00    -0.095 C 
BRANCH   4   7
ATOM      7  C   UNL     1      28.707 -23.436 -15.326  0.00  0.00    +0.044 C 
BRANCH   7  10
ATOM      8  O   UNL     1      27.941 -24.168 -17.446  0.00  0.00    -0.248 OA
ATOM      9  O   UNL     1      28.372 -21.950 -17.108  0.00  0.00    -0.248 OA
ATOM     10  C   UNL     1      28.298 -23.165 -16.768  0.00  0.00    +0.345 C 
ENDBRANCH   7  10
ENDBRANCH   4   7
ENDBRANCH   3   4
ENDBRANCH   2   3
ENDBRANCH   1   2
BRANCH   1  11
ATOM     11  C   UNL     1      33.085 -22.662 -18.007  0.00  0.00    -0.000 C 
BRANCH  11  12
ATOM     12  C   UNL     1      34.120 -22.745 -19.131  0.00  0.00    -0.000 C 
BRANCH  12  13
ATOM     13  C   UNL     1      34.424 -21.359 -19.704  0.00  0.00    -0.000 C 
BRANCH  13  14
ATOM     14  C   UNL     1      33.168 -20.574 -20.098  0.00  0.00    +0.000 C 
BRANCH  14  15
ATOM     15  C   UNL     1      33.451 -19.415 -21.057  0.00  0.00    +0.000 C 
BRANCH  15  16
ATOM     16  C   UNL     1      34.927 -19.379 -21.460  0.00  0.00    +0.000 C 
BRANCH  16  17
ATOM     17  C   UNL     1      35.164 -18.406 -22.616  0.00  0.00    +0.000 C 
BRANCH  17  18
ATOM     18  C   UNL     1      34.652 -18.976 -23.938  0.00  0.00    +0.000 C 
ATOM     19  C   UNL     1      34.586 -17.909 -25.018  0.00  0.00    +0.000 C 
ENDBRANCH  17  18
ENDBRANCH  16  17
ENDBRANCH  15  16
ENDBRANCH  14  15
ENDBRANCH  13  14
ENDBRANCH  12  13
ENDBRANCH  11  12
ENDBRANCH   1  11
TORSDOF 13
ENDMDL
MODEL 2
REMARK VINA RESULT:      -7.3      5.807      6.859
REMARK  Name = 4292413
REMARK  13 active torsions:
REMARK  status: ('A' for Active; 'I' for Inactive)
REMARK    1  A    between atoms: C_1  and  C_2
REMARK    2  A    between atoms: C_1  and  C_11
REMARK    3  A    between atoms: C_2  and  C_3
REMARK    4  A    between atoms: C_3  and  N_4
REMARK    5  A    between atoms: N_4  and  C_7
REMARK    6  A    between atoms: C_7  and  C_10
REMARK    7  A    between atoms: C_11  and  C_12
REMARK    8  A    between atoms: C_12  and  C_13
REMARK    9  A    between atoms: C_13  and  C_14
REMARK   10  A    between atoms: C_14  and  C_15
REMARK   11  A    between atoms: C_15  and  C_16
REMARK   12  A    between atoms: C_16  and  C_17
REMARK   13  A    between atoms: C_17  and  C_18
REMARK                            x       y       z     vdW  Elec       q    Type
REMARK                         _______ _______ _______ _____ _____    ______ ____
ROOT
ATOM      1  C   UNL     1      37.213 -21.679 -16.750  0.00  0.00    -0.002 C 
ENDROOT
BRANCH   1   2
ATOM      2  C   UNL     1      37.101 -22.628 -15.551  0.00  0.00    -0.022 C 
BRANCH   2   3
ATOM      3  C   UNL     1      38.151 -23.729 -15.478  0.00  0.00    -0.072 C 
BRANCH   3   4
ATOM      4  N   UNL     1      37.730 -24.791 -14.535  0.00  0.00    +0.395 N 
ATOM      5  C   UNL     1      36.365 -25.370 -14.935  0.00  0.00    -0.095 C 
ATOM      6  C   UNL     1      37.613 -24.241 -13.106  0.00  0.00    -0.095 C 
BRANCH   4   7
ATOM      7  C   UNL     1      38.747 -25.943 -14.517  0.00  0.00    +0.044 C 
BRANCH   7  10
ATOM      8  O   UNL     1      40.762 -24.785 -14.058  0.00  0.00    -0.248 OA
ATOM      9  O   UNL     1      40.615 -26.092 -15.926  0.00  0.00    -0.248 OA
ATOM     10  C   UNL     1      40.181 -25.567 -14.861  0.00  0.00    +0.345 C 
ENDBRANCH   7  10
ENDBRANCH   4   7
ENDBRANCH   3   4
ENDBRANCH   2   3
ENDBRANCH   1   2
BRANCH   1  11
ATOM     11  C   UNL     1      36.299 -21.994 -17.938  0.00  0.00    -0.000 C 
BRANCH  11  12
ATOM     12  C   UNL     1      36.497 -21.049 -19.125  0.00  0.00    -0.000 C 
BRANCH  12  13
ATOM     13  C   UNL     1      35.437 -21.289 -20.203  0.00  0.00    -0.000 C 
BRANCH  13  14
ATOM     14  C   UNL     1      34.007 -21.329 -19.652  0.00  0.00    +0.000 C 
BRANCH  14  15
ATOM     15  C   UNL     1      33.083 -20.283 -20.280  0.00  0.00    +0.000 C 
BRANCH  15  16
ATOM     16  C   UNL     1      33.778 -19.552 -21.431  0.00  0.00    +0.000 C 
BRANCH  16  17
ATOM     17  C   UNL     1      33.978 -18.071 -21.109  0.00  0.00    +0.000 C 
BRANCH  17  18
ATOM     18  C   UNL     1      35.291 -17.546 -21.690  0.00  0.00    +0.000 C 
ATOM     19  C   UNL     1      35.810 -18.448 -22.798  0.00  0.00    +0.000 C 
ENDBRANCH  17  18
ENDBRANCH  16  17
ENDBRANCH  15  16
ENDBRANCH  14  15
ENDBRANCH  13  14
ENDBRANCH  12  13
ENDBRANCH  11  12
ENDBRANCH   1  11
TORSDOF 13
ENDMDL
MODEL 3
REMARK VINA RESULT:      -7.2      5.070      5.859
REMARK  Name = 4292413
REMARK  13 active torsions:
REMARK  status: ('A' for Active; 'I' for Inactive)
REMARK    1  A    between atoms: C_1  and  C_2
REMARK    2  A    between atoms: C_1  and  C_11
REMARK    3  A    between atoms: C_2  and  C_3
REMARK    4  A    between atoms: C_3  and  N_4
REMARK    5  A    between atoms: N_4  and  C_7
REMARK    6  A    between atoms: C_7  and  C_10
REMARK    7  A    between atoms: C_11  and  C_12
REMARK    8  A    between atoms: C_12  and  C_13
REMARK    9  A    between atoms: C_13  and  C_14
REMARK   10  A    between atoms: C_14  and  C_15
REMARK   11  A    between atoms: C_15  and  C_16
REMARK   12  A    between atoms: C_16  and  C_17
REMARK   13  A    between atoms: C_17  and  C_18
REMARK                            x       y       z     vdW  Elec       q    Type
REMARK                         _______ _______ _______ _____ _____    ______ ____
ROOT
ATOM      1  C   UNL     1      37.192 -21.592 -16.850  0.00  0.00    -0.002 C 
ENDROOT
BRANCH   1   2
ATOM      2  C   UNL     1      36.579 -22.694 -15.977  0.00  0.00    -0.022 C 
BRANCH   2   3
ATOM      3  C   UNL     1      37.559 -23.473 -15.109  0.00  0.00    -0.072 C 
BRANCH   3   4
ATOM      4  N   UNL     1      36.835 -24.290 -14.108  0.00  0.00    +0.395 N 
ATOM      5  C   UNL     1      37.759 -25.355 -13.497  0.00  0.00    -0.095 C 
ATOM      6  C   UNL     1      35.639 -25.009 -14.749  0.00  0.00    -0.095 C 
BRANCH   4   7
ATOM      7  C   UNL     1      36.303 -23.413 -12.964  0.00  0.00    +0.044 C 
BRANCH   7  10
ATOM      8  O   UNL     1      38.173 -22.400 -11.920  0.00  0.00    -0.248 OA
ATOM      9  O   UNL     1      36.953 -23.959 -10.779  0.00  0.00    -0.248 OA
ATOM     10  C   UNL     1      37.237 -23.234 -11.776  0.00  0.00    +0.345 C 
ENDBRANCH   7  10
ENDBRANCH   4   7
ENDBRANCH   3   4
ENDBRANCH   2   3
ENDBRANCH   1   2
BRANCH   1  11
ATOM     11  C   UNL     1      36.648 -21.493 -18.278  0.00  0.00    -0.000 C 
BRANCH  11  12
ATOM     12  C   UNL     1      35.231 -22.052 -18.430  0.00  0.00    -0.000 C 
BRANCH  12  13
ATOM     13  C   UNL     1      34.679 -21.779 -19.832  0.00  0.00    -0.000 C 
BRANCH  13  14
ATOM     14  C   UNL     1      33.288 -21.137 -19.825  0.00  0.00    +0.000 C 
BRANCH  14  15
ATOM     15  C   UNL     1      33.223 -19.818 -20.598  0.00  0.00    +0.000 C 
BRANCH  15  16
ATOM     16  C   UNL     1      34.617 -19.364 -21.035  0.00  0.00    +0.000 C 
BRANCH  16  17
ATOM     17  C   UNL     1      34.545 -18.429 -22.242  0.00  0.00    +0.000 C 
BRANCH  17  18
ATOM     18  C   UNL     1      35.197 -19.056 -23.474  0.00  0.00    +0.000 C 
ATOM     19  C   UNL     1      34.388 -18.789 -24.732  0.00  0.00    +0.000 C 
ENDBRANCH  17  18
ENDBRANCH  16  17
ENDBRANCH  15  16
ENDBRANCH  14  15
ENDBRANCH  13  14
ENDBRANCH  12  13
ENDBRANCH  11  12
ENDBRANCH   1  11
TORSDOF 13
ENDMDL
MODEL 4
REMARK VINA RESULT:      -7.1      4.264      5.310
REMARK  Name = 4292413
REMARK  13 active torsions:
REMARK  status: ('A' for Active; 'I' for Inactive)
REMARK    1  A    between atoms: C_1  and  C_2
REMARK    2  A    between atoms: C_1  and  C_11
REMARK    3  A    between atoms: C_2  and  C_3
REMARK    4  A    between atoms: C_3  and  N_4
REMARK    5  A    between atoms: N_4  and  C_7
REMARK    6  A    between atoms: C_7  and  C_10
REMARK    7  A    between atoms: C_11  and  C_12
REMARK    8  A    between atoms: C_12  and  C_13
REMARK    9  A    between atoms: C_13  and  C_14
REMARK   10  A    between atoms: C_14  and  C_15
REMARK   11  A    between atoms: C_15  and  C_16
REMARK   12  A    between atoms: C_16  and  C_17
REMARK   13  A    between atoms: C_17  and  C_18
REMARK                            x       y       z     vdW  Elec       q    Type
REMARK                         _______ _______ _______ _____ _____    ______ ____
ROOT
ATOM      1  C   UNL     1      33.708 -23.094 -16.994  0.00  0.00    -0.002 C 
ENDROOT
BRANCH   1   2
ATOM      2  C   UNL     1      35.019 -23.304 -16.227  0.00  0.00    -0.022 C 
BRANCH   2   3
ATOM      3  C   UNL     1      34.966 -24.315 -15.089  0.00  0.00    -0.072 C 
BRANCH   3   4
ATOM      4  N   UNL     1      36.239 -24.319 -14.333  0.00  0.00    +0.395 N 
ATOM      5  C   UNL     1      36.141 -23.424 -13.089  0.00  0.00    -0.095 C 
ATOM      6  C   UNL     1      37.394 -23.801 -15.202  0.00  0.00    -0.095 C 
BRANCH   4   7
ATOM      7  C   UNL     1      36.596 -25.739 -13.868  0.00  0.00    +0.044 C 
BRANCH   7  10
ATOM      8  O   UNL     1      38.417 -26.943 -14.788  0.00  0.00    -0.248 OA
ATOM      9  O   UNL     1      36.384 -27.008 -15.828  0.00  0.00    -0.248 OA
ATOM     10  C   UNL     1      37.196 -26.653 -14.927  0.00  0.00    +0.345 C 
ENDBRANCH   7  10
ENDBRANCH   4   7
ENDBRANCH   3   4
ENDBRANCH   2   3
ENDBRANCH   1   2
BRANCH   1  11
ATOM     11  C   UNL     1      33.851 -22.586 -18.432  0.00  0.00    -0.000 C 
BRANCH  11  12
ATOM     12  C   UNL     1      35.244 -22.040 -18.749  0.00  0.00    -0.000 C 
BRANCH  12  13
ATOM     13  C   UNL     1      35.187 -21.005 -19.876  0.00  0.00    -0.000 C 
BRANCH  13  14
ATOM     14  C   UNL     1      33.767 -20.525 -20.190  0.00  0.00    +0.000 C 
BRANCH  14  15
ATOM     15  C   UNL     1      33.716 -19.443 -21.272  0.00  0.00    +0.000 C 
BRANCH  15  16
ATOM     16  C   UNL     1      35.002 -19.428 -22.100  0.00  0.00    +0.000 C 
BRANCH  16  17
ATOM     17  C   UNL     1      35.081 -18.182 -22.983  0.00  0.00    +0.000 C 
BRANCH  17  18
ATOM     18  C   UNL     1      34.610 -18.477 -24.407  0.00  0.00    +0.000 C 
ATOM     19  C   UNL     1      34.334 -17.197 -25.180  0.00  0.00    +0.000 C 
ENDBRANCH  17  18
ENDBRANCH  16  17
ENDBRANCH  15  16
ENDBRANCH  14  15
ENDBRANCH  13  14
ENDBRANCH  12  13
ENDBRANCH  11  12
ENDBRANCH   1  11
TORSDOF 13
ENDMDL
MODEL 5
REMARK VINA RESULT:      -7.0      4.562      5.557
REMARK  Name = 4292413
REMARK  13 active torsions:
REMARK  status: ('A' for Active; 'I' for Inactive)
REMARK    1  A    between atoms: C_1  and  C_2
REMARK    2  A    between atoms: C_1  and  C_11
REMARK    3  A    between atoms: C_2  and  C_3
REMARK    4  A    between atoms: C_3  and  N_4
REMARK    5  A    between atoms: N_4  and  C_7
REMARK    6  A    between atoms: C_7  and  C_10
REMARK    7  A    between atoms: C_11  and  C_12
REMARK    8  A    between atoms: C_12  and  C_13
REMARK    9  A    between atoms: C_13  and  C_14
REMARK   10  A    between atoms: C_14  and  C_15
REMARK   11  A    between atoms: C_15  and  C_16
REMARK   12  A    between atoms: C_16  and  C_17
REMARK   13  A    between atoms: C_17  and  C_18
REMARK                            x       y       z     vdW  Elec       q    Type
REMARK                         _______ _______ _______ _____ _____    ______ ____
ROOT
ATOM      1  C   UNL     1      33.304 -23.316 -16.250  0.00  0.00    -0.002 C 
ENDROOT
BRANCH   1   2
ATOM      2  C   UNL     1      34.557 -23.191 -15.375  0.00  0.00    -0.022 C 
BRANCH   2   3
ATOM      3  C   UNL     1      35.179 -24.504 -14.918  0.00  0.00    -0.072 C 
BRANCH   3   4
ATOM      4  N   UNL     1      36.407 -24.254 -14.128  0.00  0.00    +0.395 N 
ATOM      5  C   UNL     1      37.459 -23.516 -14.969  0.00  0.00    -0.095 C 
ATOM      6  C   UNL     1      37.025 -25.574 -13.644  0.00  0.00    -0.095 C 
BRANCH   4   7
ATOM      7  C   UNL     1      36.098 -23.394 -12.893  0.00  0.00    +0.044 C 
BRANCH   7  10
ATOM      8  O   UNL     1      38.119 -22.573 -11.968  0.00  0.00    -0.248 OA
ATOM      9  O   UNL     1      36.960 -24.208 -10.870  0.00  0.00    -0.248 OA
ATOM     10  C   UNL     1      37.166 -23.385 -11.808  0.00  0.00    +0.345 C 
ENDBRANCH   7  10
ENDBRANCH   4   7
ENDBRANCH   3   4
ENDBRANCH   2   3
ENDBRANCH   1   2
BRANCH   1  11
ATOM     11  C   UNL     1      33.516 -23.102 -17.752  0.00  0.00    -0.000 C 
BRANCH  11  12
ATOM     12  C   UNL     1      34.809 -22.355 -18.084  0.00  0.00    -0.000 C 
BRANCH  12  13
ATOM     13  C   UNL     1      34.721 -21.684 -19.458  0.00  0.00    -0.000 C 
BRANCH  13  14
ATOM     14  C   UNL     1      33.340 -21.093 -19.759  0.00  0.00    +0.000 C 
BRANCH  14  15
ATOM     15  C   UNL     1      33.384 -19.908 -20.727  0.00  0.00    +0.000 C 
BRANCH  15  16
ATOM     16  C   UNL     1      34.826 -19.518 -21.058  0.00  0.00    +0.000 C 
BRANCH  16  17
ATOM     17  C   UNL     1      34.881 -18.529 -22.223  0.00  0.00    +0.000 C 
BRANCH  17  18
ATOM     18  C   UNL     1      34.787 -19.248 -23.569  0.00  0.00    +0.000 C 
ATOM     19  C   UNL     1      34.556 -18.270 -24.709  0.00  0.00    +0.000 C 
ENDBRANCH  17  18
ENDBRANCH  16  17
ENDBRANCH  15  16
ENDBRANCH  14  15
ENDBRANCH  13  14
ENDBRANCH  12  13
ENDBRANCH  11  12
ENDBRANCH   1  11
TORSDOF 13
ENDMDL
MODEL 6
REMARK VINA RESULT:      -7.0      4.370      5.688
REMARK  Name = 4292413
REMARK  13 active torsions:
REMARK  status: ('A' for Active; 'I' for Inactive)
REMARK    1  A    between atoms: C_1  and  C_2
REMARK    2  A    between atoms: C_1  and  C_11
REMARK    3  A    between atoms: C_2  and  C_3
REMARK    4  A    between atoms: C_3  and  N_4
REMARK    5  A    between atoms: N_4  and  C_7
REMARK    6  A    between atoms: C_7  and  C_10
REMARK    7  A    between atoms: C_11  and  C_12
REMARK    8  A    between atoms: C_12  and  C_13
REMARK    9  A    between atoms: C_13  and  C_14
REMARK   10  A    between atoms: C_14  and  C_15
REMARK   11  A    between atoms: C_15  and  C_16
REMARK   12  A    between atoms: C_16  and  C_17
REMARK   13  A    between atoms: C_17  and  C_18
REMARK                            x       y       z     vdW  Elec       q    Type
REMARK                         _______ _______ _______ _____ _____    ______ ____
ROOT
ATOM      1  C   UNL     1      33.439 -23.309 -16.041  0.00  0.00    -0.002 C 
ENDROOT
BRANCH   1   2
ATOM      2  C   UNL     1      34.794 -23.116 -15.351  0.00  0.00    -0.022 C 
BRANCH   2   3
ATOM      3  C   UNL     1      35.546 -24.394 -14.998  0.00  0.00    -0.072 C 
BRANCH   3   4
ATOM      4  N   UNL     1      36.977 -24.107 -14.750  0.00  0.00    +0.395 N 
ATOM      5  C   UNL     1      37.223 -23.783 -13.269  0.00  0.00    -0.095 C 
ATOM      6  C   UNL     1      37.449 -22.906 -15.584  0.00  0.00    -0.095 C 
BRANCH   4   7
ATOM      7  C   UNL     1      37.851 -25.314 -15.122  0.00  0.00    +0.044 C 
BRANCH   7  10
ATOM      8  O   UNL     1      37.232 -27.134 -13.736  0.00  0.00    -0.248 OA
ATOM      9  O   UNL     1      36.745 -27.201 -15.967  0.00  0.00    -0.248 OA
ATOM     10  C   UNL     1      37.215 -26.682 -14.915  0.00  0.00    +0.345 C 
ENDBRANCH   7  10
ENDBRANCH   4   7
ENDBRANCH   3   4
ENDBRANCH   2   3
ENDBRANCH   1   2
BRANCH   1  11
ATOM     11  C   UNL     1      33.465 -23.323 -17.572  0.00  0.00    -0.000 C 
BRANCH  11  12
ATOM     12  C   UNL     1      34.601 -22.488 -18.169  0.00  0.00    -0.000 C 
BRANCH  12  13
ATOM     13  C   UNL     1      34.196 -21.894 -19.521  0.00  0.00    -0.000 C 
BRANCH  13  14
ATOM     14  C   UNL     1      32.876 -21.117 -19.473  0.00  0.00    +0.000 C 
BRANCH  14  15
ATOM     15  C   UNL     1      32.835 -19.929 -20.437  0.00  0.00    +0.000 C 
BRANCH  15  16
ATOM     16  C   UNL     1      34.088 -19.884 -21.313  0.00  0.00    +0.000 C 
BRANCH  16  17
ATOM     17  C   UNL     1      34.653 -18.466 -21.404  0.00  0.00    +0.000 C 
BRANCH  17  18
ATOM     18  C   UNL     1      36.182 -18.471 -21.366  0.00  0.00    +0.000 C 
ATOM     19  C   UNL     1      36.716 -19.641 -20.557  0.00  0.00    +0.000 C 
ENDBRANCH  17  18
ENDBRANCH  16  17
ENDBRANCH  15  16
ENDBRANCH  14  15
ENDBRANCH  13  14
ENDBRANCH  12  13
ENDBRANCH  11  12
ENDBRANCH   1  11
TORSDOF 13
ENDMDL
MODEL 7
REMARK VINA RESULT:      -7.0      4.740      5.665
REMARK  Name = 4292413
REMARK  13 active torsions:
REMARK  status: ('A' for Active; 'I' for Inactive)
REMARK    1  A    between atoms: C_1  and  C_2
REMARK    2  A    between atoms: C_1  and  C_11
REMARK    3  A    between atoms: C_2  and  C_3
REMARK    4  A    between atoms: C_3  and  N_4
REMARK    5  A    between atoms: N_4  and  C_7
REMARK    6  A    between atoms: C_7  and  C_10
REMARK    7  A    between atoms: C_11  and  C_12
REMARK    8  A    between atoms: C_12  and  C_13
REMARK    9  A    between atoms: C_13  and  C_14
REMARK   10  A    between atoms: C_14  and  C_15
REMARK   11  A    between atoms: C_15  and  C_16
REMARK   12  A    between atoms: C_16  and  C_17
REMARK   13  A    between atoms: C_17  and  C_18
REMARK                            x       y       z     vdW  Elec       q    Type
REMARK                         _______ _______ _______ _____ _____    ______ ____
ROOT
ATOM      1  C   UNL     1      37.111 -22.120 -17.025  0.00  0.00    -0.002 C 
ENDROOT
BRANCH   1   2
ATOM      2  C   UNL     1      36.523 -22.693 -15.730  0.00  0.00    -0.022 C 
BRANCH   2   3
ATOM      3  C   UNL     1      37.322 -23.816 -15.081  0.00  0.00    -0.072 C 
BRANCH   3   4
ATOM      4  N   UNL     1      36.647 -24.295 -13.852  0.00  0.00    +0.395 N 
ATOM      5  C   UNL     1      35.124 -24.124 -13.961  0.00  0.00    -0.095 C 
ATOM      6  C   UNL     1      37.126 -23.510 -12.622  0.00  0.00    -0.095 C 
BRANCH   4   7
ATOM      7  C   UNL     1      36.941 -25.783 -13.610  0.00  0.00    +0.044 C 
BRANCH   7  10
ATOM      8  O   UNL     1      36.365 -26.853 -15.643  0.00  0.00    -0.248 OA
ATOM      9  O   UNL     1      38.528 -26.918 -14.910  0.00  0.00    -0.248 OA
ATOM     10  C   UNL     1      37.307 -26.596 -14.843  0.00  0.00    +0.345 C 
ENDBRANCH   7  10
ENDBRANCH   4   7
ENDBRANCH   3   4
ENDBRANCH   2   3
ENDBRANCH   1   2
BRANCH   1  11
ATOM     11  C   UNL     1      36.093 -21.692 -18.087  0.00  0.00    -0.000 C 
BRANCH  11  12
ATOM     12  C   UNL     1      36.699 -21.543 -19.485  0.00  0.00    -0.000 C 
BRANCH  12  13
ATOM     13  C   UNL     1      36.027 -20.404 -20.257  0.00  0.00    -0.000 C 
BRANCH  13  14
ATOM     14  C   UNL     1      34.497 -20.489 -20.260  0.00  0.00    +0.000 C 
BRANCH  14  15
ATOM     15  C   UNL     1      33.844 -19.660 -21.368  0.00  0.00    +0.000 C 
BRANCH  15  16
ATOM     16  C   UNL     1      34.426 -18.246 -21.417  0.00  0.00    +0.000 C 
BRANCH  16  17
ATOM     17  C   UNL     1      35.271 -18.035 -22.674  0.00  0.00    +0.000 C 
BRANCH  17  18
ATOM     18  C   UNL     1      34.772 -18.898 -23.832  0.00  0.00    +0.000 C 
ATOM     19  C   UNL     1      34.456 -18.058 -25.059  0.00  0.00    +0.000 C 
ENDBRANCH  17  18
ENDBRANCH  16  17
ENDBRANCH  15  16
ENDBRANCH  14  15
ENDBRANCH  13  14
ENDBRANCH  12  13
ENDBRANCH  11  12
ENDBRANCH   1  11
TORSDOF 13
ENDMDL
MODEL 8
REMARK VINA RESULT:      -6.9      4.983      5.847
REMARK  Name = 4292413
REMARK  13 active torsions:
REMARK  status: ('A' for Active; 'I' for Inactive)
REMARK    1  A    between atoms: C_1  and  C_2
REMARK    2  A    between atoms: C_1  and  C_11
REMARK    3  A    between atoms: C_2  and  C_3
REMARK    4  A    between atoms: C_3  and  N_4
REMARK    5  A    between atoms: N_4  and  C_7
REMARK    6  A    between atoms: C_7  and  C_10
REMARK    7  A    between atoms: C_11  and  C_12
REMARK    8  A    between atoms: C_12  and  C_13
REMARK    9  A    between atoms: C_13  and  C_14
REMARK   10  A    between atoms: C_14  and  C_15
REMARK   11  A    between atoms: C_15  and  C_16
REMARK   12  A    between atoms: C_16  and  C_17
REMARK   13  A    between atoms: C_17  and  C_18
REMARK                            x       y       z     vdW  Elec       q    Type
REMARK                         _______ _______ _______ _____ _____    ______ ____
ROOT
ATOM      1  C   UNL     1      36.779 -22.346 -16.258  0.00  0.00    -0.002 C 
ENDROOT
BRANCH   1   2
ATOM      2  C   UNL     1      36.145 -23.059 -15.057  0.00  0.00    -0.022 C 
BRANCH   2   3
ATOM      3  C   UNL     1      37.118 -23.576 -14.005  0.00  0.00    -0.072 C 
BRANCH   3   4
ATOM      4  N   UNL     1      37.184 -25.055 -14.036  0.00  0.00    +0.395 N 
ATOM      5  C   UNL     1      38.530 -25.532 -14.603  0.00  0.00    -0.095 C 
ATOM      6  C   UNL     1      36.065 -25.636 -14.914  0.00  0.00    -0.095 C 
BRANCH   4   7
ATOM      7  C   UNL     1      37.030 -25.641 -12.624  0.00  0.00    +0.044 C 
BRANCH   7  10
ATOM      8  O   UNL     1      34.964 -24.875 -11.753  0.00  0.00    -0.248 OA
ATOM      9  O   UNL     1      36.919 -24.131 -10.833  0.00  0.00    -0.248 OA
ATOM     10  C   UNL     1      36.220 -24.804 -11.644  0.00  0.00    +0.345 C 
ENDBRANCH   7  10
ENDBRANCH   4   7
ENDBRANCH   3   4
ENDBRANCH   2   3
ENDBRANCH   1   2
BRANCH   1  11
ATOM     11  C   UNL     1      35.893 -22.216 -17.500  0.00  0.00    -0.000 C 
BRANCH  11  12
ATOM     12  C   UNL     1      36.528 -21.382 -18.616  0.00  0.00    -0.000 C 
BRANCH  12  13
ATOM     13  C   UNL     1      35.748 -21.530 -19.925  0.00  0.00    -0.000 C 
BRANCH  13  14
ATOM     14  C   UNL     1      34.296 -21.050 -19.827  0.00  0.00    +0.000 C 
BRANCH  14  15
ATOM     15  C   UNL     1      33.985 -19.862 -20.739  0.00  0.00    +0.000 C 
BRANCH  15  16
ATOM     16  C   UNL     1      35.204 -19.477 -21.581  0.00  0.00    +0.000 C 
BRANCH  16  17
ATOM     17  C   UNL     1      35.530 -17.989 -21.440  0.00  0.00    +0.000 C 
BRANCH  17  18
ATOM     18  C   UNL     1      34.270 -17.166 -21.174  0.00  0.00    +0.000 C 
ATOM     19  C   UNL     1      34.606 -15.718 -20.858  0.00  0.00    +0.000 C 
ENDBRANCH  17  18
ENDBRANCH  16  17
ENDBRANCH  15  16
ENDBRANCH  14  15
ENDBRANCH  13  14
ENDBRANCH  12  13
ENDBRANCH  11  12
ENDBRANCH   1  11
TORSDOF 13
ENDMDL
MODEL 9
REMARK VINA RESULT:      -6.7      4.954      6.233
REMARK  Name = 4292413
REMARK  13 active torsions:
REMARK  status: ('A' for Active; 'I' for Inactive)
REMARK    1  A    between atoms: C_1  and  C_2
REMARK    2  A    between atoms: C_1  and  C_11
REMARK    3  A    between atoms: C_2  and  C_3
REMARK    4  A    between atoms: C_3  and  N_4
REMARK    5  A    between atoms: N_4  and  C_7
REMARK    6  A    between atoms: C_7  and  C_10
REMARK    7  A    between atoms: C_11  and  C_12
REMARK    8  A    between atoms: C_12  and  C_13
REMARK    9  A    between atoms: C_13  and  C_14
REMARK   10  A    between atoms: C_14  and  C_15
REMARK   11  A    between atoms: C_15  and  C_16
REMARK   12  A    between atoms: C_16  and  C_17
REMARK   13  A    between atoms: C_17  and  C_18
REMARK                            x       y       z     vdW  Elec       q    Type
REMARK                         _______ _______ _______ _____ _____    ______ ____
ROOT
ATOM      1  C   UNL     1      34.708 -23.159 -15.558  0.00  0.00    -0.002 C 
ENDROOT
BRANCH   1   2
ATOM      2  C   UNL     1      35.221 -24.539 -15.131  0.00  0.00    -0.022 C 
BRANCH   2   3
ATOM      3  C   UNL     1      35.843 -24.613 -13.742  0.00  0.00    -0.072 C 
BRANCH   3   4
ATOM      4  N   UNL     1      37.226 -25.138 -13.816  0.00  0.00    +0.395 N 
ATOM      5  C   UNL     1      38.046 -24.378 -14.869  0.00  0.00    -0.095 C 
ATOM      6  C   UNL     1      37.228 -26.627 -14.195  0.00  0.00    -0.095 C 
BRANCH   4   7
ATOM      7  C   UNL     1      37.940 -24.993 -12.464  0.00  0.00    +0.044 C 
BRANCH   7  10
ATOM      8  O   UNL     1      38.107 -22.678 -11.988  0.00  0.00    -0.248 OA
ATOM      9  O   UNL     1      36.748 -23.996 -10.708  0.00  0.00    -0.248 OA
ATOM     10  C   UNL     1      37.565 -23.765 -11.644  0.00  0.00    +0.345 C 
ENDBRANCH   7  10
ENDBRANCH   4   7
ENDBRANCH   3   4
ENDBRANCH   2   3
ENDBRANCH   1   2
BRANCH   1  11
ATOM     11  C   UNL     1      33.554 -23.159 -16.566  0.00  0.00    -0.000 C 
BRANCH  11  12
ATOM     12  C   UNL     1      34.016 -23.058 -18.021  0.00  0.00    -0.000 C 
BRANCH  12  13
ATOM     13  C   UNL     1      35.225 -22.127 -18.151  0.00  0.00    -0.000 C 
BRANCH  13  14
ATOM     14  C   UNL     1      35.589 -21.802 -19.604  0.00  0.00    +0.000 C 
BRANCH  14  15
ATOM     15  C   UNL     1      36.697 -20.753 -19.732  0.00  0.00    +0.000 C 
BRANCH  15  16
ATOM     16  C   UNL     1      36.251 -19.583 -20.612  0.00  0.00    +0.000 C 
BRANCH  16  17
ATOM     17  C   UNL     1      35.018 -19.947 -21.438  0.00  0.00    +0.000 C 
BRANCH  17  18
ATOM     18  C   UNL     1      33.801 -19.124 -21.016  0.00  0.00    +0.000 C 
ATOM     19  C   UNL     1      32.677 -20.011 -20.506  0.00  0.00    +0.000 C 
ENDBRANCH  17  18
ENDBRANCH  16  17
ENDBRANCH  15  16
ENDBRANCH  14  15
ENDBRANCH  13  14
ENDBRANCH  12  13
ENDBRANCH  11  12
ENDBRANCH   1  11
TORSDOF 13
ENDMDL
