MODEL 1
REMARK VINA RESULT:      -6.0      0.000      0.000
REMARK  Name = 29626
REMARK  6 active torsions:
REMARK  status: ('A' for Active; 'I' for Inactive)
REMARK    1  A    between atoms: O_1  and  C_3
REMARK    2  A    between atoms: O_1  and  C_8
REMARK    3  A    between atoms: C_3  and  C_4
REMARK    4  A    between atoms: C_4  and  C_7
REMARK    5  A    between atoms: C_8  and  C_9
REMARK    6  A    between atoms: C_9  and  C_10
REMARK                            x       y       z     vdW  Elec       q    Type
REMARK                         _______ _______ _______ _____ _____    ______ ____
ROOT
ATOM      1  O   UNL     1      36.209 -18.505 -22.345  0.00  0.00    -0.445 OA
ENDROOT
BRANCH   1   3
ATOM      2  O   UNL     1      35.140 -16.466 -22.264  0.00  0.00    -0.244 OA
ATOM      3  C   UNL     1      35.389 -17.523 -22.825  0.00  0.00    +0.351 C 
BRANCH   3   4
ATOM      4  C   UNL     1      34.831 -17.930 -24.146  0.00  0.00    +0.144 C 
ATOM      5  C   UNL     1      34.706 -19.241 -24.394  0.00  0.00    +0.018 C 
BRANCH   4   7
ATOM      6  N   UNL     1      34.117 -16.200 -25.928  0.00  0.00    -0.191 NA
ATOM      7  C   UNL     1      34.437 -16.976 -25.127  0.00  0.00    +0.107 C 
ENDBRANCH   4   7
ENDBRANCH   3   4
ENDBRANCH   1   3
BRANCH   1   8
ATOM      8  C   UNL     1      36.036 -18.846 -20.975  0.00  0.00    +0.209 C 
BRANCH   8   9
ATOM      9  C   UNL     1      35.462 -20.256 -20.892  0.00  0.00    +0.047 C 
BRANCH   9  10
ATOM     10  C   UNL     1      34.167 -20.348 -20.070  0.00  0.00    +0.004 C 
ATOM     11  C   UNL     1      32.972 -19.933 -20.933  0.00  0.00    +0.000 C 
ATOM     12  C   UNL     1      33.933 -21.751 -19.505  0.00  0.00    +0.000 C 
ENDBRANCH   9  10
ENDBRANCH   8   9
ENDBRANCH   1   8
TORSDOF 6
ENDMDL
MODEL 2
REMARK VINA RESULT:      -6.0      3.058      5.289
REMARK  Name = 29626
REMARK  6 active torsions:
REMARK  status: ('A' for Active; 'I' for Inactive)
REMARK    1  A    between atoms: O_1  and  C_3
REMARK    2  A    between atoms: O_1  and  C_8
REMARK    3  A    between atoms: C_3  and  C_4
REMARK    4  A    between atoms: C_4  and  C_7
REMARK    5  A    between atoms: C_8  and  C_9
REMARK    6  A    between atoms: C_9  and  C_10
REMARK                            x       y       z     vdW  Elec       q    Type
REMARK                         _______ _______ _______ _____ _____    ______ ____
ROOT
ATOM      1  O   UNL     1      35.264 -18.915 -20.543  0.00  0.00    -0.445 OA
ENDROOT
BRANCH   1   3
ATOM      2  O   UNL     1      36.068 -21.070 -20.434  0.00  0.00    -0.244 OA
ATOM      3  C   UNL     1      35.148 -20.267 -20.387  0.00  0.00    +0.351 C 
BRANCH   3   4
ATOM      4  C   UNL     1      33.722 -20.629 -20.152  0.00  0.00    +0.144 C 
ATOM      5  C   UNL     1      32.782 -19.899 -20.769  0.00  0.00    +0.018 C 
BRANCH   4   7
ATOM      6  N   UNL     1      33.038 -22.592 -18.615  0.00  0.00    -0.191 NA
ATOM      7  C   UNL     1      33.346 -21.710 -19.305  0.00  0.00    +0.107 C 
ENDBRANCH   4   7
ENDBRANCH   3   4
ENDBRANCH   1   3
BRANCH   1   8
ATOM      8  C   UNL     1      36.104 -18.479 -21.605  0.00  0.00    +0.209 C 
BRANCH   8   9
ATOM      9  C   UNL     1      35.299 -17.563 -22.519  0.00  0.00    +0.047 C 
BRANCH   9  10
ATOM     10  C   UNL     1      35.310 -17.996 -23.993  0.00  0.00    +0.004 C 
ATOM     11  C   UNL     1      34.767 -19.422 -24.120  0.00  0.00    +0.000 C 
ATOM     12  C   UNL     1      34.500 -17.053 -24.884  0.00  0.00    +0.000 C 
ENDBRANCH   9  10
ENDBRANCH   8   9
ENDBRANCH   1   8
TORSDOF 6
ENDMDL
MODEL 3
REMARK VINA RESULT:      -5.9      3.184      5.258
REMARK  Name = 29626
REMARK  6 active torsions:
REMARK  status: ('A' for Active; 'I' for Inactive)
REMARK    1  A    between atoms: O_1  and  C_3
REMARK    2  A    between atoms: O_1  and  C_8
REMARK    3  A    between atoms: C_3  and  C_4
REMARK    4  A    between atoms: C_4  and  C_7
REMARK    5  A    between atoms: C_8  and  C_9
REMARK    6  A    between atoms: C_9  and  C_10
REMARK                            x       y       z     vdW  Elec       q    Type
REMARK                         _______ _______ _______ _____ _____    ______ ____
ROOT
ATOM      1  O   UNL     1      35.235 -19.587 -21.781  0.00  0.00    -0.445 OA
ENDROOT
BRANCH   1   3
ATOM      2  O   UNL     1      36.091 -20.355 -19.786  0.00  0.00    -0.244 OA
ATOM      3  C   UNL     1      35.152 -20.156 -20.542  0.00  0.00    +0.351 C 
BRANCH   3   4
ATOM      4  C   UNL     1      33.735 -20.505 -20.240  0.00  0.00    +0.144 C 
ATOM      5  C   UNL     1      32.775 -19.735 -20.770  0.00  0.00    +0.018 C 
BRANCH   4   7
ATOM      6  N   UNL     1      33.105 -22.518 -18.746  0.00  0.00    -0.191 NA
ATOM      7  C   UNL     1      33.389 -21.615 -19.417  0.00  0.00    +0.107 C 
ENDBRANCH   4   7
ENDBRANCH   3   4
ENDBRANCH   1   3
BRANCH   1   8
ATOM      8  C   UNL     1      36.045 -18.422 -21.879  0.00  0.00    +0.209 C 
BRANCH   8   9
ATOM      9  C   UNL     1      35.437 -17.491 -22.921  0.00  0.00    +0.047 C 
BRANCH   9  10
ATOM     10  C   UNL     1      34.465 -16.455 -22.334  0.00  0.00    +0.004 C 
ATOM     11  C   UNL     1      34.764 -16.246 -20.847  0.00  0.00    +0.000 C 
ATOM     12  C   UNL     1      34.529 -15.114 -23.067  0.00  0.00    +0.000 C 
ENDBRANCH   9  10
ENDBRANCH   8   9
ENDBRANCH   1   8
TORSDOF 6
ENDMDL
MODEL 4
REMARK VINA RESULT:      -5.8      5.155      7.610
REMARK  Name = 29626
REMARK  6 active torsions:
REMARK  status: ('A' for Active; 'I' for Inactive)
REMARK    1  A    between atoms: O_1  and  C_3
REMARK    2  A    between atoms: O_1  and  C_8
REMARK    3  A    between atoms: C_3  and  C_4
REMARK    4  A    between atoms: C_4  and  C_7
REMARK    5  A    between atoms: C_8  and  C_9
REMARK    6  A    between atoms: C_9  and  C_10
REMARK                            x       y       z     vdW  Elec       q    Type
REMARK                         _______ _______ _______ _____ _____    ______ ____
ROOT
ATOM      1  O   UNL     1      32.583 -22.426 -18.455  0.00  0.00    -0.445 OA
ENDROOT
BRANCH   1   3
ATOM      2  O   UNL     1      34.094 -23.651 -17.223  0.00  0.00    -0.244 OA
ATOM      3  C   UNL     1      33.002 -23.119 -17.355  0.00  0.00    +0.351 C 
BRANCH   3   4
ATOM      4  C   UNL     1      31.923 -23.137 -16.327  0.00  0.00    +0.144 C 
ATOM      5  C   UNL     1      32.260 -23.480 -15.075  0.00  0.00    +0.018 C 
BRANCH   4   7
ATOM      6  N   UNL     1      29.474 -22.534 -16.893  0.00  0.00    -0.191 NA
ATOM      7  C   UNL     1      30.574 -22.805 -16.639  0.00  0.00    +0.107 C 
ENDBRANCH   4   7
ENDBRANCH   3   4
ENDBRANCH   1   3
BRANCH   1   8
ATOM      8  C   UNL     1      33.596 -22.056 -19.382  0.00  0.00    +0.209 C 
BRANCH   8   9
ATOM      9  C   UNL     1      33.272 -20.674 -19.935  0.00  0.00    +0.047 C 
BRANCH   9  10
ATOM     10  C   UNL     1      34.333 -20.130 -20.905  0.00  0.00    +0.004 C 
ATOM     11  C   UNL     1      34.102 -18.636 -21.145  0.00  0.00    +0.000 C 
ATOM     12  C   UNL     1      35.758 -20.357 -20.396  0.00  0.00    +0.000 C 
ENDBRANCH   9  10
ENDBRANCH   8   9
ENDBRANCH   1   8
TORSDOF 6
ENDMDL
MODEL 5
REMARK VINA RESULT:      -5.8      3.607      5.775
REMARK  Name = 29626
REMARK  6 active torsions:
REMARK  status: ('A' for Active; 'I' for Inactive)
REMARK    1  A    between atoms: O_1  and  C_3
REMARK    2  A    between atoms: O_1  and  C_8
REMARK    3  A    between atoms: C_3  and  C_4
REMARK    4  A    between atoms: C_4  and  C_7
REMARK    5  A    between atoms: C_8  and  C_9
REMARK    6  A    between atoms: C_9  and  C_10
REMARK                            x       y       z     vdW  Elec       q    Type
REMARK                         _______ _______ _______ _____ _____    ______ ____
ROOT
ATOM      1  O   UNL     1      34.736 -19.566 -20.515  0.00  0.00    -0.445 OA
ENDROOT
BRANCH   1   3
ATOM      2  O   UNL     1      32.684 -20.559 -20.185  0.00  0.00    -0.244 OA
ATOM      3  C   UNL     1      33.902 -20.552 -20.072  0.00  0.00    +0.351 C 
BRANCH   3   4
ATOM      4  C   UNL     1      34.694 -21.633 -19.421  0.00  0.00    +0.144 C 
ATOM      5  C   UNL     1      36.028 -21.500 -19.395  0.00  0.00    +0.018 C 
BRANCH   4   7
ATOM      6  N   UNL     1      33.578 -23.710 -18.363  0.00  0.00    -0.191 NA
ATOM      7  C   UNL     1      34.079 -22.777 -18.838  0.00  0.00    +0.107 C 
ENDBRANCH   4   7
ENDBRANCH   3   4
ENDBRANCH   1   3
BRANCH   1   8
ATOM      8  C   UNL     1      34.217 -18.721 -21.535  0.00  0.00    +0.209 C 
BRANCH   8   9
ATOM      9  C   UNL     1      34.736 -19.207 -22.883  0.00  0.00    +0.047 C 
BRANCH   9  10
ATOM     10  C   UNL     1      35.228 -18.077 -23.800  0.00  0.00    +0.004 C 
ATOM     11  C   UNL     1      34.416 -18.070 -25.098  0.00  0.00    +0.000 C 
ATOM     12  C   UNL     1      35.145 -16.704 -23.131  0.00  0.00    +0.000 C 
ENDBRANCH   9  10
ENDBRANCH   8   9
ENDBRANCH   1   8
TORSDOF 6
ENDMDL
MODEL 6
REMARK VINA RESULT:      -5.8      3.476      5.360
REMARK  Name = 29626
REMARK  6 active torsions:
REMARK  status: ('A' for Active; 'I' for Inactive)
REMARK    1  A    between atoms: O_1  and  C_3
REMARK    2  A    between atoms: O_1  and  C_8
REMARK    3  A    between atoms: C_3  and  C_4
REMARK    4  A    between atoms: C_4  and  C_7
REMARK    5  A    between atoms: C_8  and  C_9
REMARK    6  A    between atoms: C_9  and  C_10
REMARK                            x       y       z     vdW  Elec       q    Type
REMARK                         _______ _______ _______ _____ _____    ______ ____
ROOT
ATOM      1  O   UNL     1      34.461 -18.381 -21.574  0.00  0.00    -0.445 OA
ENDROOT
BRANCH   1   3
ATOM      2  O   UNL     1      36.344 -19.275 -20.594  0.00  0.00    -0.244 OA
ATOM      3  C   UNL     1      35.143 -19.296 -20.823  0.00  0.00    +0.351 C 
BRANCH   3   4
ATOM      4  C   UNL     1      34.205 -20.337 -20.316  0.00  0.00    +0.144 C 
ATOM      5  C   UNL     1      32.895 -20.155 -20.533  0.00  0.00    +0.018 C 
BRANCH   4   7
ATOM      6  N   UNL     1      35.032 -22.437 -19.057  0.00  0.00    -0.191 NA
ATOM      7  C   UNL     1      34.661 -21.493 -19.623  0.00  0.00    +0.107 C 
ENDBRANCH   4   7
ENDBRANCH   3   4
ENDBRANCH   1   3
BRANCH   1   8
ATOM      8  C   UNL     1      35.111 -17.133 -21.779  0.00  0.00    +0.209 C 
BRANCH   8   9
ATOM      9  C   UNL     1      34.661 -16.164 -20.693  0.00  0.00    +0.047 C 
BRANCH   9  10
ATOM     10  C   UNL     1      34.286 -14.771 -21.224  0.00  0.00    +0.004 C 
ATOM     11  C   UNL     1      34.395 -14.749 -22.750  0.00  0.00    +0.000 C 
ATOM     12  C   UNL     1      32.879 -14.344 -20.800  0.00  0.00    +0.000 C 
ENDBRANCH   9  10
ENDBRANCH   8   9
ENDBRANCH   1   8
TORSDOF 6
ENDMDL
MODEL 7
REMARK VINA RESULT:      -5.7      3.348      4.765
REMARK  Name = 29626
REMARK  6 active torsions:
REMARK  status: ('A' for Active; 'I' for Inactive)
REMARK    1  A    between atoms: O_1  and  C_3
REMARK    2  A    between atoms: O_1  and  C_8
REMARK    3  A    between atoms: C_3  and  C_4
REMARK    4  A    between atoms: C_4  and  C_7
REMARK    5  A    between atoms: C_8  and  C_9
REMARK    6  A    between atoms: C_9  and  C_10
REMARK                            x       y       z     vdW  Elec       q    Type
REMARK                         _______ _______ _______ _____ _____    ______ ____
ROOT
ATOM      1  O   UNL     1      35.289 -15.740 -23.628  0.00  0.00    -0.445 OA
ENDROOT
BRANCH   1   3
ATOM      2  O   UNL     1      34.735 -16.934 -25.518  0.00  0.00    -0.244 OA
ATOM      3  C   UNL     1      34.995 -16.878 -24.325  0.00  0.00    +0.351 C 
BRANCH   3   4
ATOM      4  C   UNL     1      35.037 -18.055 -23.413  0.00  0.00    +0.144 C 
ATOM      5  C   UNL     1      34.856 -19.269 -23.952  0.00  0.00    +0.018 C 
BRANCH   4   7
ATOM      6  N   UNL     1      35.441 -17.811 -20.871  0.00  0.00    -0.191 NA
ATOM      7  C   UNL     1      35.258 -17.920 -22.013  0.00  0.00    +0.107 C 
ENDBRANCH   4   7
ENDBRANCH   3   4
ENDBRANCH   1   3
BRANCH   1   8
ATOM      8  C   UNL     1      34.280 -14.737 -23.619  0.00  0.00    +0.209 C 
BRANCH   8   9
ATOM      9  C   UNL     1      34.088 -14.250 -22.188  0.00  0.00    +0.047 C 
BRANCH   9  10
ATOM     10  C   UNL     1      32.645 -14.385 -21.677  0.00  0.00    +0.004 C 
ATOM     11  C   UNL     1      32.547 -15.559 -20.699  0.00  0.00    +0.000 C 
ATOM     12  C   UNL     1      32.143 -13.108 -21.002  0.00  0.00    +0.000 C 
ENDBRANCH   9  10
ENDBRANCH   8   9
ENDBRANCH   1   8
TORSDOF 6
ENDMDL
MODEL 8
REMARK VINA RESULT:      -5.7      2.323      2.907
REMARK  Name = 29626
REMARK  6 active torsions:
REMARK  status: ('A' for Active; 'I' for Inactive)
REMARK    1  A    between atoms: O_1  and  C_3
REMARK    2  A    between atoms: O_1  and  C_8
REMARK    3  A    between atoms: C_3  and  C_4
REMARK    4  A    between atoms: C_4  and  C_7
REMARK    5  A    between atoms: C_8  and  C_9
REMARK    6  A    between atoms: C_9  and  C_10
REMARK                            x       y       z     vdW  Elec       q    Type
REMARK                         _______ _______ _______ _____ _____    ______ ____
ROOT
ATOM      1  O   UNL     1      35.686 -17.177 -22.409  0.00  0.00    -0.445 OA
ENDROOT
BRANCH   1   3
ATOM      2  O   UNL     1      34.745 -16.020 -24.164  0.00  0.00    -0.244 OA
ATOM      3  C   UNL     1      34.881 -16.224 -22.967  0.00  0.00    +0.351 C 
BRANCH   3   4
ATOM      4  C   UNL     1      34.187 -15.457 -21.895  0.00  0.00    +0.144 C 
ATOM      5  C   UNL     1      34.569 -15.669 -20.628  0.00  0.00    +0.018 C 
BRANCH   4   7
ATOM      6  N   UNL     1      32.304 -13.764 -22.416  0.00  0.00    -0.191 NA
ATOM      7  C   UNL     1      33.150 -14.525 -22.183  0.00  0.00    +0.107 C 
ENDBRANCH   4   7
ENDBRANCH   3   4
ENDBRANCH   1   3
BRANCH   1   8
ATOM      8  C   UNL     1      35.670 -18.452 -23.039  0.00  0.00    +0.209 C 
BRANCH   8   9
ATOM      9  C   UNL     1      34.453 -19.226 -22.545  0.00  0.00    +0.047 C 
BRANCH   9  10
ATOM     10  C   UNL     1      34.427 -19.431 -21.022  0.00  0.00    +0.004 C 
ATOM     11  C   UNL     1      33.073 -20.005 -20.598  0.00  0.00    +0.000 C 
ATOM     12  C   UNL     1      35.552 -20.349 -20.538  0.00  0.00    +0.000 C 
ENDBRANCH   9  10
ENDBRANCH   8   9
ENDBRANCH   1   8
TORSDOF 6
ENDMDL
MODEL 9
REMARK VINA RESULT:      -5.7      1.651      2.253
REMARK  Name = 29626
REMARK  6 active torsions:
REMARK  status: ('A' for Active; 'I' for Inactive)
REMARK    1  A    between atoms: O_1  and  C_3
REMARK    2  A    between atoms: O_1  and  C_8
REMARK    3  A    between atoms: C_3  and  C_4
REMARK    4  A    between atoms: C_4  and  C_7
REMARK    5  A    between atoms: C_8  and  C_9
REMARK    6  A    between atoms: C_9  and  C_10
REMARK                            x       y       z     vdW  Elec       q    Type
REMARK                         _______ _______ _______ _____ _____    ______ ____
ROOT
ATOM      1  O   UNL     1      34.957 -17.204 -23.244  0.00  0.00    -0.445 OA
ENDROOT
BRANCH   1   3
ATOM      2  O   UNL     1      34.768 -15.654 -21.551  0.00  0.00    -0.244 OA
ATOM      3  C   UNL     1      34.638 -15.983 -22.721  0.00  0.00    +0.351 C 
BRANCH   3   4
ATOM      4  C   UNL     1      34.101 -15.097 -23.792  0.00  0.00    +0.144 C 
ATOM      5  C   UNL     1      33.904 -13.805 -23.494  0.00  0.00    +0.018 C 
BRANCH   4   7
ATOM      6  N   UNL     1      33.555 -15.980 -26.160  0.00  0.00    -0.191 NA
ATOM      7  C   UNL     1      33.800 -15.584 -25.096  0.00  0.00    +0.107 C 
ENDBRANCH   4   7
ENDBRANCH   3   4
ENDBRANCH   1   3
BRANCH   1   8
ATOM      8  C   UNL     1      35.559 -18.129 -22.346  0.00  0.00    +0.209 C 
BRANCH   8   9
ATOM      9  C   UNL     1      34.642 -19.337 -22.202  0.00  0.00    +0.047 C 
BRANCH   9  10
ATOM     10  C   UNL     1      34.302 -19.685 -20.745  0.00  0.00    +0.004 C 
ATOM     11  C   UNL     1      32.861 -20.193 -20.653  0.00  0.00    +0.000 C 
ATOM     12  C   UNL     1      35.256 -20.728 -20.157  0.00  0.00    +0.000 C 
ENDBRANCH   9  10
ENDBRANCH   8   9
ENDBRANCH   1   8
TORSDOF 6
ENDMDL
