MODEL 1
REMARK VINA RESULT:      -7.8      0.000      0.000
REMARK  Name = 656909
REMARK  13 active torsions:
REMARK  status: ('A' for Active; 'I' for Inactive)
REMARK    1  A    between atoms: C_2  and  O_7
REMARK    2  A    between atoms: C_3  and  O_9
REMARK    3  A    between atoms: C_4  and  O_11
REMARK    4  A    between atoms: C_5  and  C_22
REMARK    5  A    between atoms: C_6  and  S_13
REMARK    6  A    between atoms: S_13  and  C_14
REMARK    7  A    between atoms: C_14  and  C_15
REMARK    8  A    between atoms: C_15  and  C_16
REMARK    9  A    between atoms: C_16  and  C_17
REMARK   10  A    between atoms: C_17  and  C_18
REMARK   11  A    between atoms: C_18  and  C_19
REMARK   12  A    between atoms: C_19  and  C_20
REMARK   13  A    between atoms: C_22  and  O_23
REMARK                            x       y       z     vdW  Elec       q    Type
REMARK                         _______ _______ _______ _____ _____    ______ ____
ROOT
ATOM      1  O   UNL     1      36.244 -23.402 -13.702  0.00  0.00    -0.340 OA
ATOM      2  C   UNL     1      37.225 -26.091 -13.919  0.00  0.00    +0.170 C 
ATOM      3  C   UNL     1      37.741 -25.115 -12.860  0.00  0.00    +0.169 C 
ATOM      4  C   UNL     1      36.613 -25.349 -15.113  0.00  0.00    +0.177 C 
ATOM      5  C   UNL     1      36.670 -24.076 -12.517  0.00  0.00    +0.175 C 
ATOM      6  C   UNL     1      35.624 -24.278 -14.642  0.00  0.00    +0.192 C 
ENDROOT
BRANCH   2   7
ATOM      7  O   UNL     1      38.309 -26.885 -14.402  0.00  0.00    -0.379 OA
ATOM      8  H   UNL     1      38.577 -26.568 -15.279  0.00  0.00    +0.211 HD
ENDBRANCH   2   7
BRANCH   3   9
ATOM      9  O   UNL     1      38.085 -25.833 -11.678  0.00  0.00    -0.379 OA
ATOM     10  H   UNL     1      37.405 -26.501 -11.497  0.00  0.00    +0.211 HD
ENDBRANCH   3   9
BRANCH   4  11
ATOM     11  O   UNL     1      35.936 -26.299 -15.935  0.00  0.00    -0.379 OA
ATOM     12  H   UNL     1      35.977 -26.013 -16.860  0.00  0.00    +0.211 HD
ENDBRANCH   4  11
BRANCH   6  13
ATOM     13  S   UNL     1      35.010 -23.315 -16.071  0.00  0.00    -0.110 S 
BRANCH  13  14
ATOM     14  C   UNL     1      36.511 -22.350 -16.403  0.00  0.00    +0.060 C 
BRANCH  14  15
ATOM     15  C   UNL     1      36.538 -21.884 -17.856  0.00  0.00    +0.012 C 
BRANCH  15  16
ATOM     16  C   UNL     1      35.190 -22.141 -18.537  0.00  0.00    +0.001 C 
BRANCH  16  17
ATOM     17  C   UNL     1      34.938 -21.134 -19.663  0.00  0.00    +0.000 C 
BRANCH  17  18
ATOM     18  C   UNL     1      33.454 -20.937 -19.981  0.00  0.00    +0.000 C 
BRANCH  18  19
ATOM     19  C   UNL     1      33.170 -19.682 -20.810  0.00  0.00    +0.000 C 
BRANCH  19  20
ATOM     20  C   UNL     1      34.466 -19.045 -21.313  0.00  0.00    +0.000 C 
ATOM     21  C   UNL     1      34.601 -19.175 -22.822  0.00  0.00    +0.000 C 
ENDBRANCH  19  20
ENDBRANCH  18  19
ENDBRANCH  17  18
ENDBRANCH  16  17
ENDBRANCH  15  16
ENDBRANCH  14  15
ENDBRANCH  13  14
ENDBRANCH   6  13
BRANCH   5  22
ATOM     22  C   UNL     1      37.198 -23.018 -11.553  0.00  0.00    +0.169 C 
BRANCH  22  23
ATOM     23  O   UNL     1      38.613 -23.036 -11.595  0.00  0.00    -0.379 OA
ATOM     24  H   UNL     1      38.950 -22.129 -11.549  0.00  0.00    +0.211 HD
ENDBRANCH  22  23
ENDBRANCH   5  22
TORSDOF 13
ENDMDL
MODEL 2
REMARK VINA RESULT:      -7.7      1.551      2.857
REMARK  Name = 656909
REMARK  13 active torsions:
REMARK  status: ('A' for Active; 'I' for Inactive)
REMARK    1  A    between atoms: C_2  and  O_7
REMARK    2  A    between atoms: C_3  and  O_9
REMARK    3  A    between atoms: C_4  and  O_11
REMARK    4  A    between atoms: C_5  and  C_22
REMARK    5  A    between atoms: C_6  and  S_13
REMARK    6  A    between atoms: S_13  and  C_14
REMARK    7  A    between atoms: C_14  and  C_15
REMARK    8  A    between atoms: C_15  and  C_16
REMARK    9  A    between atoms: C_16  and  C_17
REMARK   10  A    between atoms: C_17  and  C_18
REMARK   11  A    between atoms: C_18  and  C_19
REMARK   12  A    between atoms: C_19  and  C_20
REMARK   13  A    between atoms: C_22  and  O_23
REMARK                            x       y       z     vdW  Elec       q    Type
REMARK                         _______ _______ _______ _____ _____    ______ ____
ROOT
ATOM      1  O   UNL     1      35.911 -24.941 -14.808  0.00  0.00    -0.340 OA
ATOM      2  C   UNL     1      35.847 -24.682 -11.950  0.00  0.00    +0.170 C 
ATOM      3  C   UNL     1      36.819 -25.622 -12.664  0.00  0.00    +0.169 C 
ATOM      4  C   UNL     1      34.626 -24.370 -12.823  0.00  0.00    +0.177 C 
ATOM      5  C   UNL     1      37.125 -25.111 -14.075  0.00  0.00    +0.175 C 
ATOM      6  C   UNL     1      35.054 -23.955 -14.234  0.00  0.00    +0.192 C 
ENDROOT
BRANCH   2   7
ATOM      7  O   UNL     1      35.383 -25.299 -10.748  0.00  0.00    -0.379 OA
ATOM      8  H   UNL     1      35.372 -26.262 -10.863  0.00  0.00    +0.211 HD
ENDBRANCH   2   7
BRANCH   3   9
ATOM      9  O   UNL     1      38.035 -25.700 -11.926  0.00  0.00    -0.379 OA
ATOM     10  H   UNL     1      38.330 -26.624 -11.887  0.00  0.00    +0.211 HD
ENDBRANCH   3   9
BRANCH   4  11
ATOM     11  O   UNL     1      33.894 -23.309 -12.212  0.00  0.00    -0.379 OA
ATOM     12  H   UNL     1      34.224 -23.164 -11.312  0.00  0.00    +0.211 HD
ENDBRANCH   4  11
BRANCH   6  13
ATOM     13  S   UNL     1      33.584 -23.721 -15.296  0.00  0.00    -0.110 S 
BRANCH  13  14
ATOM     14  C   UNL     1      34.428 -23.114 -16.785  0.00  0.00    +0.060 C 
BRANCH  14  15
ATOM     15  C   UNL     1      33.476 -23.111 -17.977  0.00  0.00    +0.012 C 
BRANCH  15  16
ATOM     16  C   UNL     1      33.846 -22.005 -18.970  0.00  0.00    +0.001 C 
BRANCH  16  17
ATOM     17  C   UNL     1      35.365 -21.856 -19.091  0.00  0.00    +0.000 C 
BRANCH  17  18
ATOM     18  C   UNL     1      35.792 -20.766 -20.077  0.00  0.00    +0.000 C 
BRANCH  18  19
ATOM     19  C   UNL     1      34.616 -20.078 -20.773  0.00  0.00    +0.000 C 
BRANCH  19  20
ATOM     20  C   UNL     1      35.089 -18.906 -21.633  0.00  0.00    +0.000 C 
ATOM     21  C   UNL     1      34.780 -19.133 -23.104  0.00  0.00    +0.000 C 
ENDBRANCH  19  20
ENDBRANCH  18  19
ENDBRANCH  17  18
ENDBRANCH  16  17
ENDBRANCH  15  16
ENDBRANCH  14  15
ENDBRANCH  13  14
ENDBRANCH   6  13
BRANCH   5  22
ATOM     22  C   UNL     1      37.996 -26.092 -14.853  0.00  0.00    +0.169 C 
BRANCH  22  23
ATOM     23  O   UNL     1      37.203 -26.704 -15.854  0.00  0.00    -0.379 OA
ATOM     24  H   UNL     1      37.668 -27.477 -16.209  0.00  0.00    +0.211 HD
ENDBRANCH  22  23
ENDBRANCH   5  22
TORSDOF 13
ENDMDL
MODEL 3
REMARK VINA RESULT:      -7.4      1.785      2.922
REMARK  Name = 656909
REMARK  13 active torsions:
REMARK  status: ('A' for Active; 'I' for Inactive)
REMARK    1  A    between atoms: C_2  and  O_7
REMARK    2  A    between atoms: C_3  and  O_9
REMARK    3  A    between atoms: C_4  and  O_11
REMARK    4  A    between atoms: C_5  and  C_22
REMARK    5  A    between atoms: C_6  and  S_13
REMARK    6  A    between atoms: S_13  and  C_14
REMARK    7  A    between atoms: C_14  and  C_15
REMARK    8  A    between atoms: C_15  and  C_16
REMARK    9  A    between atoms: C_16  and  C_17
REMARK   10  A    between atoms: C_17  and  C_18
REMARK   11  A    between atoms: C_18  and  C_19
REMARK   12  A    between atoms: C_19  and  C_20
REMARK   13  A    between atoms: C_22  and  O_23
REMARK                            x       y       z     vdW  Elec       q    Type
REMARK                         _______ _______ _______ _____ _____    ______ ____
ROOT
ATOM      1  O   UNL     1      34.976 -23.069 -15.303  0.00  0.00    -0.340 OA
ATOM      2  C   UNL     1      37.196 -24.237 -13.907  0.00  0.00    +0.170 C 
ATOM      3  C   UNL     1      35.810 -24.105 -13.274  0.00  0.00    +0.169 C 
ATOM      4  C   UNL     1      37.390 -23.228 -15.044  0.00  0.00    +0.177 C 
ATOM      5  C   UNL     1      34.722 -24.104 -14.353  0.00  0.00    +0.175 C 
ATOM      6  C   UNL     1      36.201 -23.257 -16.010  0.00  0.00    +0.192 C 
ENDROOT
BRANCH   2   7
ATOM      7  O   UNL     1      38.196 -23.985 -12.919  0.00  0.00    -0.379 OA
ATOM      8  H   UNL     1      38.851 -23.364 -13.273  0.00  0.00    +0.211 HD
ENDBRANCH   2   7
BRANCH   3   9
ATOM      9  O   UNL     1      35.583 -25.199 -12.391  0.00  0.00    -0.379 OA
ATOM     10  H   UNL     1      35.764 -26.032 -12.855  0.00  0.00    +0.211 HD
ENDBRANCH   3   9
BRANCH   4  11
ATOM     11  O   UNL     1      38.586 -23.564 -15.746  0.00  0.00    -0.379 OA
ATOM     12  H   UNL     1      38.844 -22.825 -16.318  0.00  0.00    +0.211 HD
ENDBRANCH   4  11
BRANCH   6  13
ATOM     13  S   UNL     1      36.387 -21.954 -17.280  0.00  0.00    -0.110 S 
BRANCH  13  14
ATOM     14  C   UNL     1      34.914 -22.338 -18.270  0.00  0.00    +0.060 C 
BRANCH  14  15
ATOM     15  C   UNL     1      34.857 -21.452 -19.511  0.00  0.00    +0.012 C 
BRANCH  15  16
ATOM     16  C   UNL     1      33.412 -21.071 -19.844  0.00  0.00    +0.001 C 
BRANCH  16  17
ATOM     17  C   UNL     1      33.359 -19.833 -20.744  0.00  0.00    +0.000 C 
BRANCH  17  18
ATOM     18  C   UNL     1      34.740 -19.347 -21.191  0.00  0.00    +0.000 C 
BRANCH  18  19
ATOM     19  C   UNL     1      34.684 -18.187 -22.189  0.00  0.00    +0.000 C 
BRANCH  19  20
ATOM     20  C   UNL     1      35.428 -18.530 -23.479  0.00  0.00    +0.000 C 
ATOM     21  C   UNL     1      34.474 -18.998 -24.566  0.00  0.00    +0.000 C 
ENDBRANCH  19  20
ENDBRANCH  18  19
ENDBRANCH  17  18
ENDBRANCH  16  17
ENDBRANCH  15  16
ENDBRANCH  14  15
ENDBRANCH  13  14
ENDBRANCH   6  13
BRANCH   5  22
ATOM     22  C   UNL     1      33.340 -23.853 -13.759  0.00  0.00    +0.169 C 
BRANCH  22  23
ATOM     23  O   UNL     1      32.831 -25.079 -13.267  0.00  0.00    -0.379 OA
ATOM     24  H   UNL     1      33.477 -25.784 -13.423  0.00  0.00    +0.211 HD
ENDBRANCH  22  23
ENDBRANCH   5  22
TORSDOF 13
ENDMDL
MODEL 4
REMARK VINA RESULT:      -7.3      4.360      5.902
REMARK  Name = 656909
REMARK  13 active torsions:
REMARK  status: ('A' for Active; 'I' for Inactive)
REMARK    1  A    between atoms: C_2  and  O_7
REMARK    2  A    between atoms: C_3  and  O_9
REMARK    3  A    between atoms: C_4  and  O_11
REMARK    4  A    between atoms: C_5  and  C_22
REMARK    5  A    between atoms: C_6  and  S_13
REMARK    6  A    between atoms: S_13  and  C_14
REMARK    7  A    between atoms: C_14  and  C_15
REMARK    8  A    between atoms: C_15  and  C_16
REMARK    9  A    between atoms: C_16  and  C_17
REMARK   10  A    between atoms: C_17  and  C_18
REMARK   11  A    between atoms: C_18  and  C_19
REMARK   12  A    between atoms: C_19  and  C_20
REMARK   13  A    between atoms: C_22  and  O_23
REMARK                            x       y       z     vdW  Elec       q    Type
REMARK                         _______ _______ _______ _____ _____    ______ ____
ROOT
ATOM      1  O   UNL     1      31.181 -23.428 -16.077  0.00  0.00    -0.340 OA
ATOM      2  C   UNL     1      30.695 -24.973 -13.707  0.00  0.00    +0.170 C 
ATOM      3  C   UNL     1      29.561 -24.354 -14.527  0.00  0.00    +0.169 C 
ATOM      4  C   UNL     1      32.021 -24.241 -13.943  0.00  0.00    +0.177 C 
ATOM      5  C   UNL     1      29.979 -24.195 -15.991  0.00  0.00    +0.175 C 
ATOM      6  C   UNL     1      32.288 -24.065 -15.441  0.00  0.00    +0.192 C 
ENDROOT
BRANCH   2   7
ATOM      7  O   UNL     1      30.382 -24.881 -12.316  0.00  0.00    -0.379 OA
ATOM      8  H   UNL     1      29.431 -24.727 -12.209  0.00  0.00    +0.211 HD
ENDBRANCH   2   7
BRANCH   3   9
ATOM      9  O   UNL     1      28.413 -25.195 -14.462  0.00  0.00    -0.379 OA
ATOM     10  H   UNL     1      27.668 -24.696 -14.090  0.00  0.00    +0.211 HD
ENDBRANCH   3   9
BRANCH   4  11
ATOM     11  O   UNL     1      33.070 -25.009 -13.356  0.00  0.00    -0.379 OA
ATOM     12  H   UNL     1      33.892 -24.865 -13.850  0.00  0.00    +0.211 HD
ENDBRANCH   4  11
BRANCH   6  13
ATOM     13  S   UNL     1      33.803 -23.072 -15.699  0.00  0.00    -0.110 S 
BRANCH  13  14
ATOM     14  C   UNL     1      33.780 -23.022 -17.514  0.00  0.00    +0.060 C 
BRANCH  14  15
ATOM     15  C   UNL     1      35.016 -22.302 -18.045  0.00  0.00    +0.012 C 
BRANCH  15  16
ATOM     16  C   UNL     1      34.801 -21.840 -19.489  0.00  0.00    +0.001 C 
BRANCH  16  17
ATOM     17  C   UNL     1      33.421 -21.200 -19.666  0.00  0.00    +0.000 C 
BRANCH  17  18
ATOM     18  C   UNL     1      33.424 -20.002 -20.619  0.00  0.00    +0.000 C 
BRANCH  18  19
ATOM     19  C   UNL     1      34.785 -19.743 -21.269  0.00  0.00    +0.000 C 
BRANCH  19  20
ATOM     20  C   UNL     1      34.637 -18.954 -22.570  0.00  0.00    +0.000 C 
ATOM     21  C   UNL     1      35.489 -17.695 -22.559  0.00  0.00    +0.000 C 
ENDBRANCH  19  20
ENDBRANCH  18  19
ENDBRANCH  17  18
ENDBRANCH  16  17
ENDBRANCH  15  16
ENDBRANCH  14  15
ENDBRANCH  13  14
ENDBRANCH   6  13
BRANCH   5  22
ATOM     22  C   UNL     1      28.914 -23.470 -16.806  0.00  0.00    +0.169 C 
BRANCH  22  23
ATOM     23  O   UNL     1      27.946 -24.414 -17.225  0.00  0.00    -0.379 OA
ATOM     24  H   UNL     1      27.314 -23.987 -17.824  0.00  0.00    +0.211 HD
ENDBRANCH  22  23
ENDBRANCH   5  22
TORSDOF 13
ENDMDL
MODEL 5
REMARK VINA RESULT:      -7.2      1.816      2.877
REMARK  Name = 656909
REMARK  13 active torsions:
REMARK  status: ('A' for Active; 'I' for Inactive)
REMARK    1  A    between atoms: C_2  and  O_7
REMARK    2  A    between atoms: C_3  and  O_9
REMARK    3  A    between atoms: C_4  and  O_11
REMARK    4  A    between atoms: C_5  and  C_22
REMARK    5  A    between atoms: C_6  and  S_13
REMARK    6  A    between atoms: S_13  and  C_14
REMARK    7  A    between atoms: C_14  and  C_15
REMARK    8  A    between atoms: C_15  and  C_16
REMARK    9  A    between atoms: C_16  and  C_17
REMARK   10  A    between atoms: C_17  and  C_18
REMARK   11  A    between atoms: C_18  and  C_19
REMARK   12  A    between atoms: C_19  and  C_20
REMARK   13  A    between atoms: C_22  and  O_23
REMARK                            x       y       z     vdW  Elec       q    Type
REMARK                         _______ _______ _______ _____ _____    ______ ____
ROOT
ATOM      1  O   UNL     1      35.338 -23.341 -14.776  0.00  0.00    -0.340 OA
ATOM      2  C   UNL     1      36.726 -24.455 -12.525  0.00  0.00    +0.170 C 
ATOM      3  C   UNL     1      35.223 -24.172 -12.501  0.00  0.00    +0.169 C 
ATOM      4  C   UNL     1      37.439 -23.601 -13.579  0.00  0.00    +0.177 C 
ATOM      5  C   UNL     1      34.639 -24.240 -13.915  0.00  0.00    +0.175 C 
ATOM      6  C   UNL     1      36.716 -23.680 -14.927  0.00  0.00    +0.192 C 
ENDROOT
BRANCH   2   7
ATOM      7  O   UNL     1      37.289 -24.142 -11.250  0.00  0.00    -0.379 OA
ATOM      8  H   UNL     1      38.247 -24.287 -11.275  0.00  0.00    +0.211 HD
ENDBRANCH   2   7
BRANCH   3   9
ATOM      9  O   UNL     1      34.569 -25.139 -11.684  0.00  0.00    -0.379 OA
ATOM     10  H   UNL     1      34.708 -24.919 -10.749  0.00  0.00    +0.211 HD
ENDBRANCH   3   9
BRANCH   4  11
ATOM     11  O   UNL     1      38.774 -24.085 -13.722  0.00  0.00    -0.379 OA
ATOM     12  H   UNL     1      39.060 -24.496 -12.892  0.00  0.00    +0.211 HD
ENDBRANCH   4  11
BRANCH   6  13
ATOM     13  S   UNL     1      37.502 -22.550 -16.132  0.00  0.00    -0.110 S 
BRANCH  13  14
ATOM     14  C   UNL     1      36.062 -22.262 -17.200  0.00  0.00    +0.060 C 
BRANCH  14  15
ATOM     15  C   UNL     1      36.497 -21.661 -18.534  0.00  0.00    +0.012 C 
BRANCH  15  16
ATOM     16  C   UNL     1      35.300 -21.493 -19.474  0.00  0.00    +0.001 C 
BRANCH  16  17
ATOM     17  C   UNL     1      35.608 -20.489 -20.589  0.00  0.00    +0.000 C 
BRANCH  17  18
ATOM     18  C   UNL     1      34.379 -19.706 -21.058  0.00  0.00    +0.000 C 
BRANCH  18  19
ATOM     19  C   UNL     1      34.569 -19.032 -22.419  0.00  0.00    +0.000 C 
BRANCH  19  20
ATOM     20  C   UNL     1      35.463 -17.796 -22.305  0.00  0.00    +0.000 C 
ATOM     21  C   UNL     1      34.934 -16.819 -21.268  0.00  0.00    +0.000 C 
ENDBRANCH  19  20
ENDBRANCH  18  19
ENDBRANCH  17  18
ENDBRANCH  16  17
ENDBRANCH  15  16
ENDBRANCH  14  15
ENDBRANCH  13  14
ENDBRANCH   6  13
BRANCH   5  22
ATOM     22  C   UNL     1      33.166 -23.844 -13.937  0.00  0.00    +0.169 C 
BRANCH  22  23
ATOM     23  O   UNL     1      32.865 -23.161 -12.734  0.00  0.00    -0.379 OA
ATOM     24  H   UNL     1      33.554 -23.344 -12.076  0.00  0.00    +0.211 HD
ENDBRANCH  22  23
ENDBRANCH   5  22
TORSDOF 13
ENDMDL
MODEL 6
REMARK VINA RESULT:      -7.2      3.526      4.726
REMARK  Name = 656909
REMARK  13 active torsions:
REMARK  status: ('A' for Active; 'I' for Inactive)
REMARK    1  A    between atoms: C_2  and  O_7
REMARK    2  A    between atoms: C_3  and  O_9
REMARK    3  A    between atoms: C_4  and  O_11
REMARK    4  A    between atoms: C_5  and  C_22
REMARK    5  A    between atoms: C_6  and  S_13
REMARK    6  A    between atoms: S_13  and  C_14
REMARK    7  A    between atoms: C_14  and  C_15
REMARK    8  A    between atoms: C_15  and  C_16
REMARK    9  A    between atoms: C_16  and  C_17
REMARK   10  A    between atoms: C_17  and  C_18
REMARK   11  A    between atoms: C_18  and  C_19
REMARK   12  A    between atoms: C_19  and  C_20
REMARK   13  A    between atoms: C_22  and  O_23
REMARK                            x       y       z     vdW  Elec       q    Type
REMARK                         _______ _______ _______ _____ _____    ______ ____
ROOT
ATOM      1  O   UNL     1      36.155 -23.357 -13.685  0.00  0.00    -0.340 OA
ATOM      2  C   UNL     1      37.092 -26.061 -13.898  0.00  0.00    +0.170 C 
ATOM      3  C   UNL     1      37.628 -25.091 -12.845  0.00  0.00    +0.169 C 
ATOM      4  C   UNL     1      36.486 -25.314 -15.092  0.00  0.00    +0.177 C 
ATOM      5  C   UNL     1      36.575 -24.034 -12.500  0.00  0.00    +0.175 C 
ATOM      6  C   UNL     1      35.516 -24.226 -14.620  0.00  0.00    +0.192 C 
ENDROOT
BRANCH   2   7
ATOM      7  O   UNL     1      38.161 -26.875 -14.384  0.00  0.00    -0.379 OA
ATOM      8  H   UNL     1      37.981 -27.131 -15.302  0.00  0.00    +0.211 HD
ENDBRANCH   2   7
BRANCH   3   9
ATOM      9  O   UNL     1      37.966 -25.810 -11.662  0.00  0.00    -0.379 OA
ATOM     10  H   UNL     1      37.168 -26.227 -11.299  0.00  0.00    +0.211 HD
ENDBRANCH   3   9
BRANCH   4  11
ATOM     11  O   UNL     1      35.790 -26.255 -15.907  0.00  0.00    -0.379 OA
ATOM     12  H   UNL     1      36.133 -27.146 -15.737  0.00  0.00    +0.211 HD
ENDBRANCH   4  11
BRANCH   6  13
ATOM     13  S   UNL     1      34.911 -23.258 -16.049  0.00  0.00    -0.110 S 
BRANCH  13  14
ATOM     14  C   UNL     1      33.129 -23.432 -15.750  0.00  0.00    +0.060 C 
BRANCH  14  15
ATOM     15  C   UNL     1      32.874 -24.043 -14.374  0.00  0.00    +0.012 C 
BRANCH  15  16
ATOM     16  C   UNL     1      31.446 -23.754 -13.904  0.00  0.00    +0.001 C 
BRANCH  16  17
ATOM     17  C   UNL     1      30.504 -24.909 -14.252  0.00  0.00    +0.000 C 
BRANCH  17  18
ATOM     18  C   UNL     1      29.154 -24.447 -14.807  0.00  0.00    +0.000 C 
BRANCH  18  19
ATOM     19  C   UNL     1      29.064 -24.524 -16.333  0.00  0.00    +0.000 C 
BRANCH  19  20
ATOM     20  C   UNL     1      28.310 -23.324 -16.905  0.00  0.00    +0.000 C 
ATOM     21  C   UNL     1      27.661 -22.497 -15.806  0.00  0.00    +0.000 C 
ENDBRANCH  19  20
ENDBRANCH  18  19
ENDBRANCH  17  18
ENDBRANCH  16  17
ENDBRANCH  15  16
ENDBRANCH  14  15
ENDBRANCH  13  14
ENDBRANCH   6  13
BRANCH   5  22
ATOM     22  C   UNL     1      37.125 -22.982 -11.542  0.00  0.00    +0.169 C 
BRANCH  22  23
ATOM     23  O   UNL     1      38.537 -22.979 -11.638  0.00  0.00    -0.379 OA
ATOM     24  H   UNL     1      38.898 -23.726 -11.137  0.00  0.00    +0.211 HD
ENDBRANCH  22  23
ENDBRANCH   5  22
TORSDOF 13
ENDMDL
MODEL 7
REMARK VINA RESULT:      -7.2      7.540     11.527
REMARK  Name = 656909
REMARK  13 active torsions:
REMARK  status: ('A' for Active; 'I' for Inactive)
REMARK    1  A    between atoms: C_2  and  O_7
REMARK    2  A    between atoms: C_3  and  O_9
REMARK    3  A    between atoms: C_4  and  O_11
REMARK    4  A    between atoms: C_5  and  C_22
REMARK    5  A    between atoms: C_6  and  S_13
REMARK    6  A    between atoms: S_13  and  C_14
REMARK    7  A    between atoms: C_14  and  C_15
REMARK    8  A    between atoms: C_15  and  C_16
REMARK    9  A    between atoms: C_16  and  C_17
REMARK   10  A    between atoms: C_17  and  C_18
REMARK   11  A    between atoms: C_18  and  C_19
REMARK   12  A    between atoms: C_19  and  C_20
REMARK   13  A    between atoms: C_22  and  O_23
REMARK                            x       y       z     vdW  Elec       q    Type
REMARK                         _______ _______ _______ _____ _____    ______ ____
ROOT
ATOM      1  O   UNL     1      34.397 -16.050 -22.498  0.00  0.00    -0.340 OA
ATOM      2  C   UNL     1      33.800 -15.213 -25.178  0.00  0.00    +0.170 C 
ATOM      3  C   UNL     1      33.255 -14.479 -23.951  0.00  0.00    +0.169 C 
ATOM      4  C   UNL     1      34.177 -16.660 -24.843  0.00  0.00    +0.177 C 
ATOM      5  C   UNL     1      34.192 -14.660 -22.754  0.00  0.00    +0.175 C 
ATOM      6  C   UNL     1      35.042 -16.721 -23.579  0.00  0.00    +0.192 C 
ENDROOT
BRANCH   2   7
ATOM      7  O   UNL     1      32.801 -15.242 -26.198  0.00  0.00    -0.379 OA
ATOM      8  H   UNL     1      31.968 -15.569 -25.825  0.00  0.00    +0.211 HD
ENDBRANCH   2   7
BRANCH   3   9
ATOM      9  O   UNL     1      33.137 -13.089 -24.241  0.00  0.00    -0.379 OA
ATOM     10  H   UNL     1      33.758 -12.590 -23.686  0.00  0.00    +0.211 HD
ENDBRANCH   3   9
BRANCH   4  11
ATOM     11  O   UNL     1      34.901 -17.204 -25.946  0.00  0.00    -0.379 OA
ATOM     12  H   UNL     1      35.692 -16.668 -26.109  0.00  0.00    +0.211 HD
ENDBRANCH   4  11
BRANCH   6  13
ATOM     13  S   UNL     1      35.366 -18.462 -23.121  0.00  0.00    -0.110 S 
BRANCH  13  14
ATOM     14  C   UNL     1      34.515 -18.475 -21.517  0.00  0.00    +0.060 C 
BRANCH  14  15
ATOM     15  C   UNL     1      34.574 -19.865 -20.890  0.00  0.00    +0.012 C 
BRANCH  15  16
ATOM     16  C   UNL     1      33.193 -20.295 -20.385  0.00  0.00    +0.001 C 
BRANCH  16  17
ATOM     17  C   UNL     1      33.304 -21.458 -19.396  0.00  0.00    +0.000 C 
BRANCH  17  18
ATOM     18  C   UNL     1      34.676 -22.138 -19.406  0.00  0.00    +0.000 C 
BRANCH  18  19
ATOM     19  C   UNL     1      35.294 -22.285 -18.014  0.00  0.00    +0.000 C 
BRANCH  19  20
ATOM     20  C   UNL     1      36.662 -21.607 -17.941  0.00  0.00    +0.000 C 
ATOM     21  C   UNL     1      37.274 -21.733 -16.555  0.00  0.00    +0.000 C 
ENDBRANCH  19  20
ENDBRANCH  18  19
ENDBRANCH  17  18
ENDBRANCH  16  17
ENDBRANCH  15  16
ENDBRANCH  14  15
ENDBRANCH  13  14
ENDBRANCH   6  13
BRANCH   5  22
ATOM     22  C   UNL     1      33.613 -14.041 -21.486  0.00  0.00    +0.169 C 
BRANCH  22  23
ATOM     23  O   UNL     1      32.204 -13.993 -21.611  0.00  0.00    -0.379 OA
ATOM     24  H   UNL     1      31.905 -14.709 -22.192  0.00  0.00    +0.211 HD
ENDBRANCH  22  23
ENDBRANCH   5  22
TORSDOF 13
ENDMDL
MODEL 8
REMARK VINA RESULT:      -7.2     10.430     13.693
REMARK  Name = 656909
REMARK  13 active torsions:
REMARK  status: ('A' for Active; 'I' for Inactive)
REMARK    1  A    between atoms: C_2  and  O_7
REMARK    2  A    between atoms: C_3  and  O_9
REMARK    3  A    between atoms: C_4  and  O_11
REMARK    4  A    between atoms: C_5  and  C_22
REMARK    5  A    between atoms: C_6  and  S_13
REMARK    6  A    between atoms: S_13  and  C_14
REMARK    7  A    between atoms: C_14  and  C_15
REMARK    8  A    between atoms: C_15  and  C_16
REMARK    9  A    between atoms: C_16  and  C_17
REMARK   10  A    between atoms: C_17  and  C_18
REMARK   11  A    between atoms: C_18  and  C_19
REMARK   12  A    between atoms: C_19  and  C_20
REMARK   13  A    between atoms: C_22  and  O_23
REMARK                            x       y       z     vdW  Elec       q    Type
REMARK                         _______ _______ _______ _____ _____    ______ ____
ROOT
ATOM      1  O   UNL     1      32.862 -14.479 -23.844  0.00  0.00    -0.340 OA
ATOM      2  C   UNL     1      34.829 -16.522 -23.404  0.00  0.00    +0.170 C 
ATOM      3  C   UNL     1      34.081 -16.379 -24.730  0.00  0.00    +0.169 C 
ATOM      4  C   UNL     1      34.050 -15.882 -22.250  0.00  0.00    +0.177 C 
ATOM      5  C   UNL     1      33.646 -14.927 -24.950  0.00  0.00    +0.175 C 
ATOM      6  C   UNL     1      33.593 -14.466 -22.618  0.00  0.00    +0.192 C 
ENDROOT
BRANCH   2   7
ATOM      7  O   UNL     1      35.002 -17.908 -23.103  0.00  0.00    -0.379 OA
ATOM      8  H   UNL     1      34.974 -18.036 -22.142  0.00  0.00    +0.211 HD
ENDBRANCH   2   7
BRANCH   3   9
ATOM      9  O   UNL     1      34.933 -16.773 -25.802  0.00  0.00    -0.379 OA
ATOM     10  H   UNL     1      35.239 -17.682 -25.654  0.00  0.00    +0.211 HD
ENDBRANCH   3   9
BRANCH   4  11
ATOM     11  O   UNL     1      34.901 -15.828 -21.106  0.00  0.00    -0.379 OA
ATOM     12  H   UNL     1      35.775 -15.501 -21.369  0.00  0.00    +0.211 HD
ENDBRANCH   4  11
BRANCH   6  13
ATOM     13  S   UNL     1      32.551 -13.772 -21.285  0.00  0.00    -0.110 S 
BRANCH  13  14
ATOM     14  C   UNL     1      31.944 -12.303 -22.162  0.00  0.00    +0.060 C 
BRANCH  14  15
ATOM     15  C   UNL     1      31.034 -11.477 -21.257  0.00  0.00    +0.012 C 
BRANCH  15  16
ATOM     16  C   UNL     1      31.611 -11.383 -19.841  0.00  0.00    +0.001 C 
BRANCH  16  17
ATOM     17  C   UNL     1      31.848  -9.926 -19.436  0.00  0.00    +0.000 C 
BRANCH  17  18
ATOM     18  C   UNL     1      32.204  -9.017 -20.615  0.00  0.00    +0.000 C 
BRANCH  18  19
ATOM     19  C   UNL     1      32.288  -7.536 -20.238  0.00  0.00    +0.000 C 
BRANCH  19  20
ATOM     20  C   UNL     1      32.316  -6.648 -21.483  0.00  0.00    +0.000 C 
ATOM     21  C   UNL     1      31.053  -5.810 -21.599  0.00  0.00    +0.000 C 
ENDBRANCH  19  20
ENDBRANCH  18  19
ENDBRANCH  17  18
ENDBRANCH  16  17
ENDBRANCH  15  16
ENDBRANCH  14  15
ENDBRANCH  13  14
ENDBRANCH   6  13
BRANCH   5  22
ATOM     22  C   UNL     1      32.794 -14.778 -26.206  0.00  0.00    +0.169 C 
BRANCH  22  23
ATOM     23  O   UNL     1      33.654 -14.590 -27.314  0.00  0.00    -0.379 OA
ATOM     24  H   UNL     1      33.268 -13.936 -27.918  0.00  0.00    +0.211 HD
ENDBRANCH  22  23
ENDBRANCH   5  22
TORSDOF 13
ENDMDL
MODEL 9
REMARK VINA RESULT:      -7.1      9.203     12.861
REMARK  Name = 656909
REMARK  13 active torsions:
REMARK  status: ('A' for Active; 'I' for Inactive)
REMARK    1  A    between atoms: C_2  and  O_7
REMARK    2  A    between atoms: C_3  and  O_9
REMARK    3  A    between atoms: C_4  and  O_11
REMARK    4  A    between atoms: C_5  and  C_22
REMARK    5  A    between atoms: C_6  and  S_13
REMARK    6  A    between atoms: S_13  and  C_14
REMARK    7  A    between atoms: C_14  and  C_15
REMARK    8  A    between atoms: C_15  and  C_16
REMARK    9  A    between atoms: C_16  and  C_17
REMARK   10  A    between atoms: C_17  and  C_18
REMARK   11  A    between atoms: C_18  and  C_19
REMARK   12  A    between atoms: C_19  and  C_20
REMARK   13  A    between atoms: C_22  and  O_23
REMARK                            x       y       z     vdW  Elec       q    Type
REMARK                         _______ _______ _______ _____ _____    ______ ____
ROOT
ATOM      1  O   UNL     1      33.614 -15.589 -23.480  0.00  0.00    -0.340 OA
ATOM      2  C   UNL     1      35.324 -17.033 -21.684  0.00  0.00    +0.170 C 
ATOM      3  C   UNL     1      34.944 -17.574 -23.063  0.00  0.00    +0.169 C 
ATOM      4  C   UNL     1      34.303 -16.005 -21.184  0.00  0.00    +0.177 C 
ATOM      5  C   UNL     1      34.635 -16.424 -24.026  0.00  0.00    +0.175 C 
ATOM      6  C   UNL     1      34.010 -14.957 -22.263  0.00  0.00    +0.192 C 
ENDROOT
BRANCH   2   7
ATOM      7  O   UNL     1      35.361 -18.109 -20.745  0.00  0.00    -0.379 OA
ATOM      8  H   UNL     1      35.177 -18.944 -21.202  0.00  0.00    +0.211 HD
ENDBRANCH   2   7
BRANCH   3   9
ATOM      9  O   UNL     1      36.023 -18.340 -23.588  0.00  0.00    -0.379 OA
ATOM     10  H   UNL     1      35.686 -19.186 -23.923  0.00  0.00    +0.211 HD
ENDBRANCH   3   9
BRANCH   4  11
ATOM     11  O   UNL     1      34.837 -15.365 -20.027  0.00  0.00    -0.379 OA
ATOM     12  H   UNL     1      35.297 -14.553 -20.290  0.00  0.00    +0.211 HD
ENDBRANCH   4  11
BRANCH   6  13
ATOM     13  S   UNL     1      32.691 -13.822 -21.699  0.00  0.00    -0.110 S 
BRANCH  13  14
ATOM     14  C   UNL     1      32.764 -12.632 -23.068  0.00  0.00    +0.060 C 
BRANCH  14  15
ATOM     15  C   UNL     1      32.061 -11.332 -22.686  0.00  0.00    +0.012 C 
BRANCH  15  16
ATOM     16  C   UNL     1      32.912 -10.118 -23.069  0.00  0.00    +0.001 C 
BRANCH  16  17
ATOM     17  C   UNL     1      34.011 -10.503 -24.062  0.00  0.00    +0.000 C 
BRANCH  17  18
ATOM     18  C   UNL     1      34.944  -9.342 -24.418  0.00  0.00    +0.000 C 
BRANCH  18  19
ATOM     19  C   UNL     1      34.653  -8.063 -23.629  0.00  0.00    +0.000 C 
BRANCH  19  20
ATOM     20  C   UNL     1      34.261  -6.915 -24.559  0.00  0.00    +0.000 C 
ATOM     21  C   UNL     1      32.883  -6.369 -24.219  0.00  0.00    +0.000 C 
ENDBRANCH  19  20
ENDBRANCH  18  19
ENDBRANCH  17  18
ENDBRANCH  16  17
ENDBRANCH  15  16
ENDBRANCH  14  15
ENDBRANCH  13  14
ENDBRANCH   6  13
BRANCH   5  22
ATOM     22  C   UNL     1      34.137 -16.936 -25.374  0.00  0.00    +0.169 C 
BRANCH  22  23
ATOM     23  O   UNL     1      33.876 -15.824 -26.210  0.00  0.00    -0.379 OA
ATOM     24  H   UNL     1      34.004 -16.078 -27.137  0.00  0.00    +0.211 HD
ENDBRANCH  22  23
ENDBRANCH   5  22
TORSDOF 13
ENDMDL
