MODEL 1
REMARK VINA RESULT:      -8.9      0.000      0.000
REMARK  Name = 446622
REMARK  4 active torsions:
REMARK  status: ('A' for Active; 'I' for Inactive)
REMARK    1  A    between atoms: C_6  and  C_19
REMARK    2  A    between atoms: C_10  and  N_16
REMARK    3  A    between atoms: C_19  and  S_20
REMARK    4  A    between atoms: S_20  and  C_23
REMARK                            x       y       z     vdW  Elec       q    Type
REMARK                         _______ _______ _______ _____ _____    ______ ____
ROOT
ATOM      1  O   UNL     1      34.644 -18.568 -25.654  0.00  0.00    -0.209 OA
ATOM      2  N   UNL     1      33.794 -15.034 -23.969  0.00  0.00    -0.275 N 
ATOM      3  N   UNL     1      33.846 -16.434 -25.894  0.00  0.00    -0.302 NA
ATOM      4  N   UNL     1      33.059 -14.228 -25.987  0.00  0.00    -0.320 N 
ATOM      5  C   UNL     1      34.325 -16.029 -23.146  0.00  0.00    +0.060 C 
ATOM      6  C   UNL     1      34.556 -15.813 -21.785  0.00  0.00    +0.004 C 
ATOM      7  C   UNL     1      34.633 -17.276 -23.704  0.00  0.00    +0.109 C 
ATOM      8  C   UNL     1      35.090 -16.832 -20.994  0.00  0.00    +0.012 C 
ATOM      9  C   UNL     1      35.167 -18.299 -22.916  0.00  0.00    +0.028 C 
ATOM     10  C   UNL     1      35.394 -18.072 -21.559  0.00  0.00    +0.042 C 
ATOM     11  C   UNL     1      34.375 -17.479 -25.158  0.00  0.00    +0.208 C 
ATOM     12  C   UNL     1      33.583 -15.297 -25.304  0.00  0.00    +0.248 C 
ATOM     13  H   UNL     1      33.571 -14.151 -23.596  0.00  0.00    +0.156 HD
ATOM     14  H   UNL     1      32.872 -13.385 -25.513  0.00  0.00    +0.146 HD
ATOM     15  H   UNL     1      32.868 -14.305 -26.950  0.00  0.00    +0.146 HD
ENDROOT
BRANCH  10  16
ATOM     16  N   UNL     1      35.932 -19.098 -20.754  0.00  0.00    -0.357 N 
ATOM     17  H   UNL     1      35.396 -19.484 -20.025  0.00  0.00    +0.142 HD
ATOM     18  H   UNL     1      36.846 -19.426 -20.921  0.00  0.00    +0.142 HD
ENDBRANCH  10  16
BRANCH   6  19
ATOM     19  C   UNL     1      34.245 -14.501 -21.140  0.00  0.00    +0.088 C 
BRANCH  19  20
ATOM     20  S   UNL     1      32.591 -14.473 -20.387  0.00  0.00    -0.096 S 
BRANCH  20  23
ATOM     21  N   UNL     1      31.730 -11.950 -20.028  0.00  0.00    -0.308 N 
ATOM     22  N   UNL     1      31.749 -12.574 -22.158  0.00  0.00    -0.308 N 
ATOM     23  C   UNL     1      31.976 -12.888 -20.944  0.00  0.00    +0.196 C 
ATOM     24  C   UNL     1      31.280 -10.872 -20.737  0.00  0.00    +0.076 C 
ATOM     25  C   UNL     1      31.302 -11.281 -22.050  0.00  0.00    +0.076 C 
ATOM     26  H   UNL     1      31.847 -12.019 -19.053  0.00  0.00    +0.149 HD
ATOM     27  H   UNL     1      31.867 -13.121 -22.970  0.00  0.00    +0.149 HD
ENDBRANCH  20  23
ENDBRANCH  19  20
ENDBRANCH   6  19
TORSDOF 4
ENDMDL
MODEL 2
REMARK VINA RESULT:      -8.8      7.912     10.389
REMARK  Name = 446622
REMARK  4 active torsions:
REMARK  status: ('A' for Active; 'I' for Inactive)
REMARK    1  A    between atoms: C_6  and  C_19
REMARK    2  A    between atoms: C_10  and  N_16
REMARK    3  A    between atoms: C_19  and  S_20
REMARK    4  A    between atoms: S_20  and  C_23
REMARK                            x       y       z     vdW  Elec       q    Type
REMARK                         _______ _______ _______ _____ _____    ______ ____
ROOT
ATOM      1  O   UNL     1      30.812 -23.814 -12.974  0.00  0.00    -0.209 OA
ATOM      2  N   UNL     1      31.029 -22.923 -16.874  0.00  0.00    -0.275 N 
ATOM      3  N   UNL     1      29.726 -23.231 -14.905  0.00  0.00    -0.302 NA
ATOM      4  N   UNL     1      28.755 -22.636 -16.953  0.00  0.00    -0.320 N 
ATOM      5  C   UNL     1      32.223 -23.219 -16.213  0.00  0.00    +0.060 C 
ATOM      6  C   UNL     1      33.453 -23.208 -16.875  0.00  0.00    +0.004 C 
ATOM      7  C   UNL     1      32.181 -23.535 -14.849  0.00  0.00    +0.109 C 
ATOM      8  C   UNL     1      34.626 -23.511 -16.181  0.00  0.00    +0.012 C 
ATOM      9  C   UNL     1      33.353 -23.838 -14.150  0.00  0.00    +0.028 C 
ATOM     10  C   UNL     1      34.575 -23.825 -14.822  0.00  0.00    +0.042 C 
ATOM     11  C   UNL     1      30.856 -23.538 -14.168  0.00  0.00    +0.208 C 
ATOM     12  C   UNL     1      29.843 -22.946 -16.176  0.00  0.00    +0.248 C 
ATOM     13  H   UNL     1      31.037 -22.699 -17.832  0.00  0.00    +0.156 HD
ATOM     14  H   UNL     1      28.876 -22.425 -17.908  0.00  0.00    +0.146 HD
ATOM     15  H   UNL     1      27.854 -22.622 -16.556  0.00  0.00    +0.146 HD
ENDROOT
BRANCH  10  16
ATOM     16  N   UNL     1      35.764 -24.129 -14.126  0.00  0.00    -0.357 N 
ATOM     17  H   UNL     1      35.839 -24.973 -13.625  0.00  0.00    +0.142 HD
ATOM     18  H   UNL     1      36.519 -23.496 -14.141  0.00  0.00    +0.142 HD
ENDBRANCH  10  16
BRANCH   6  19
ATOM     19  C   UNL     1      33.552 -22.878 -18.330  0.00  0.00    +0.088 C 
BRANCH  19  20
ATOM     20  S   UNL     1      35.134 -22.090 -18.756  0.00  0.00    -0.096 S 
BRANCH  20  23
ATOM     21  N   UNL     1      33.292 -20.702 -20.141  0.00  0.00    -0.308 N 
ATOM     22  N   UNL     1      35.360 -19.954 -20.440  0.00  0.00    -0.308 N 
ATOM     23  C   UNL     1      34.595 -20.799 -19.872  0.00  0.00    +0.196 C 
ATOM     24  C   UNL     1      33.186 -19.648 -21.004  0.00  0.00    +0.076 C 
ATOM     25  C   UNL     1      34.476 -19.202 -21.173  0.00  0.00    +0.076 C 
ATOM     26  H   UNL     1      32.564 -21.267 -19.793  0.00  0.00    +0.149 HD
ATOM     27  H   UNL     1      36.338 -19.862 -20.370  0.00  0.00    +0.149 HD
ENDBRANCH  20  23
ENDBRANCH  19  20
ENDBRANCH   6  19
TORSDOF 4
ENDMDL
MODEL 3
REMARK VINA RESULT:      -8.5      8.558     11.635
REMARK  Name = 446622
REMARK  4 active torsions:
REMARK  status: ('A' for Active; 'I' for Inactive)
REMARK    1  A    between atoms: C_6  and  C_19
REMARK    2  A    between atoms: C_10  and  N_16
REMARK    3  A    between atoms: C_19  and  S_20
REMARK    4  A    between atoms: S_20  and  C_23
REMARK                            x       y       z     vdW  Elec       q    Type
REMARK                         _______ _______ _______ _____ _____    ______ ____
ROOT
ATOM      1  O   UNL     1      36.183 -25.468 -11.801  0.00  0.00    -0.209 OA
ATOM      2  N   UNL     1      36.977 -24.105 -15.484  0.00  0.00    -0.275 N 
ATOM      3  N   UNL     1      37.710 -25.165 -13.482  0.00  0.00    -0.302 NA
ATOM      4  N   UNL     1      39.159 -24.785 -15.285  0.00  0.00    -0.320 N 
ATOM      5  C   UNL     1      35.673 -23.954 -15.008  0.00  0.00    +0.060 C 
ATOM      6  C   UNL     1      34.675 -23.351 -15.777  0.00  0.00    +0.004 C 
ATOM      7  C   UNL     1      35.363 -24.419 -13.725  0.00  0.00    +0.109 C 
ATOM      8  C   UNL     1      33.382 -23.216 -15.267  0.00  0.00    +0.012 C 
ATOM      9  C   UNL     1      34.070 -24.287 -13.210  0.00  0.00    +0.028 C 
ATOM     10  C   UNL     1      33.081 -23.684 -13.987  0.00  0.00    +0.042 C 
ATOM     11  C   UNL     1      36.447 -25.058 -12.927  0.00  0.00    +0.208 C 
ATOM     12  C   UNL     1      37.926 -24.706 -14.687  0.00  0.00    +0.248 C 
ATOM     13  H   UNL     1      37.216 -23.784 -16.383  0.00  0.00    +0.156 HD
ATOM     14  H   UNL     1      39.289 -24.431 -16.195  0.00  0.00    +0.146 HD
ATOM     15  H   UNL     1      39.913 -25.197 -14.804  0.00  0.00    +0.146 HD
ENDROOT
BRANCH  10  16
ATOM     16  N   UNL     1      31.773 -23.545 -13.478  0.00  0.00    -0.357 N 
ATOM     17  H   UNL     1      31.516 -24.010 -12.649  0.00  0.00    +0.142 HD
ATOM     18  H   UNL     1      31.117 -22.984 -13.952  0.00  0.00    +0.142 HD
ENDBRANCH  10  16
BRANCH   6  19
ATOM     19  C   UNL     1      34.954 -22.837 -17.153  0.00  0.00    +0.088 C 
BRANCH  19  20
ATOM     20  S   UNL     1      33.511 -22.973 -18.250  0.00  0.00    -0.096 S 
BRANCH  20  23
ATOM     21  N   UNL     1      32.720 -20.907 -19.781  0.00  0.00    -0.308 N 
ATOM     22  N   UNL     1      34.919 -21.215 -19.793  0.00  0.00    -0.308 N 
ATOM     23  C   UNL     1      33.782 -21.597 -19.362  0.00  0.00    +0.196 C 
ATOM     24  C   UNL     1      33.229 -19.939 -20.601  0.00  0.00    +0.076 C 
ATOM     25  C   UNL     1      34.588 -20.149 -20.591  0.00  0.00    +0.076 C 
ATOM     26  H   UNL     1      31.776 -21.062 -19.551  0.00  0.00    +0.149 HD
ATOM     27  H   UNL     1      35.810 -21.590 -19.601  0.00  0.00    +0.149 HD
ENDBRANCH  20  23
ENDBRANCH  19  20
ENDBRANCH   6  19
TORSDOF 4
ENDMDL
MODEL 4
REMARK VINA RESULT:      -8.5      1.057      3.402
REMARK  Name = 446622
REMARK  4 active torsions:
REMARK  status: ('A' for Active; 'I' for Inactive)
REMARK    1  A    between atoms: C_6  and  C_19
REMARK    2  A    between atoms: C_10  and  N_16
REMARK    3  A    between atoms: C_19  and  S_20
REMARK    4  A    between atoms: S_20  and  C_23
REMARK                            x       y       z     vdW  Elec       q    Type
REMARK                         _______ _______ _______ _____ _____    ______ ____
ROOT
ATOM      1  O   UNL     1      34.734 -19.052 -25.169  0.00  0.00    -0.209 OA
ATOM      2  N   UNL     1      35.053 -16.815 -21.861  0.00  0.00    -0.275 N 
ATOM      3  N   UNL     1      35.348 -18.903 -22.967  0.00  0.00    -0.302 NA
ATOM      4  N   UNL     1      35.928 -18.600 -20.717  0.00  0.00    -0.320 N 
ATOM      5  C   UNL     1      34.531 -16.205 -23.003  0.00  0.00    +0.060 C 
ATOM      6  C   UNL     1      34.130 -14.867 -23.005  0.00  0.00    +0.004 C 
ATOM      7  C   UNL     1      34.406 -16.960 -24.176  0.00  0.00    +0.109 C 
ATOM      8  C   UNL     1      33.611 -14.292 -24.166  0.00  0.00    +0.012 C 
ATOM      9  C   UNL     1      33.887 -16.388 -25.341  0.00  0.00    +0.028 C 
ATOM     10  C   UNL     1      33.490 -15.051 -25.331  0.00  0.00    +0.042 C 
ATOM     11  C   UNL     1      34.841 -18.384 -24.145  0.00  0.00    +0.208 C 
ATOM     12  C   UNL     1      35.435 -18.137 -21.911  0.00  0.00    +0.248 C 
ATOM     13  H   UNL     1      35.149 -16.302 -21.026  0.00  0.00    +0.156 HD
ATOM     14  H   UNL     1      35.981 -17.998 -19.939  0.00  0.00    +0.146 HD
ATOM     15  H   UNL     1      36.231 -19.533 -20.638  0.00  0.00    +0.146 HD
ENDROOT
BRANCH  10  16
ATOM     16  N   UNL     1      32.965 -14.464 -26.501  0.00  0.00    -0.357 N 
ATOM     17  H   UNL     1      33.174 -14.850 -27.383  0.00  0.00    +0.142 HD
ATOM     18  H   UNL     1      32.390 -13.667 -26.437  0.00  0.00    +0.142 HD
ENDBRANCH  10  16
BRANCH   6  19
ATOM     19  C   UNL     1      34.242 -14.018 -21.780  0.00  0.00    +0.088 C 
BRANCH  19  20
ATOM     20  S   UNL     1      32.821 -14.219 -20.664  0.00  0.00    -0.096 S 
BRANCH  20  23
ATOM     21  N   UNL     1      31.741 -11.882 -19.882  0.00  0.00    -0.308 N 
ATOM     22  N   UNL     1      31.491 -12.280 -22.051  0.00  0.00    -0.308 N 
ATOM     23  C   UNL     1      31.944 -12.682 -20.930  0.00  0.00    +0.196 C 
ATOM     24  C   UNL     1      31.060 -10.808 -20.382  0.00  0.00    +0.076 C 
ATOM     25  C   UNL     1      30.919 -11.076 -21.724  0.00  0.00    +0.076 C 
ATOM     26  H   UNL     1      32.020 -12.034 -18.950  0.00  0.00    +0.149 HD
ATOM     27  H   UNL     1      31.540 -12.721 -22.931  0.00  0.00    +0.149 HD
ENDBRANCH  20  23
ENDBRANCH  19  20
ENDBRANCH   6  19
TORSDOF 4
ENDMDL
MODEL 5
REMARK VINA RESULT:      -8.4      1.809      2.478
REMARK  Name = 446622
REMARK  4 active torsions:
REMARK  status: ('A' for Active; 'I' for Inactive)
REMARK    1  A    between atoms: C_6  and  C_19
REMARK    2  A    between atoms: C_10  and  N_16
REMARK    3  A    between atoms: C_19  and  S_20
REMARK    4  A    between atoms: S_20  and  C_23
REMARK                            x       y       z     vdW  Elec       q    Type
REMARK                         _______ _______ _______ _____ _____    ______ ____
ROOT
ATOM      1  O   UNL     1      34.894 -17.205 -25.138  0.00  0.00    -0.209 OA
ATOM      2  N   UNL     1      32.665 -13.889 -24.845  0.00  0.00    -0.275 N 
ATOM      3  N   UNL     1      33.648 -15.594 -26.186  0.00  0.00    -0.302 NA
ATOM      4  N   UNL     1      32.349 -13.879 -27.117  0.00  0.00    -0.320 N 
ATOM      5  C   UNL     1      33.189 -14.420 -23.665  0.00  0.00    +0.060 C 
ATOM      6  C   UNL     1      32.952 -13.827 -22.422  0.00  0.00    +0.004 C 
ATOM      7  C   UNL     1      33.972 -15.579 -23.733  0.00  0.00    +0.109 C 
ATOM      8  C   UNL     1      33.493 -14.386 -21.263  0.00  0.00    +0.012 C 
ATOM      9  C   UNL     1      34.516 -16.142 -22.575  0.00  0.00    +0.028 C 
ATOM     10  C   UNL     1      34.273 -15.541 -21.340  0.00  0.00    +0.042 C 
ATOM     11  C   UNL     1      34.208 -16.190 -25.071  0.00  0.00    +0.208 C 
ATOM     12  C   UNL     1      32.926 -14.512 -26.045  0.00  0.00    +0.248 C 
ATOM     13  H   UNL     1      32.112 -13.075 -24.819  0.00  0.00    +0.156 HD
ATOM     14  H   UNL     1      31.811 -13.065 -26.977  0.00  0.00    +0.146 HD
ATOM     15  H   UNL     1      32.471 -14.239 -28.025  0.00  0.00    +0.146 HD
ENDROOT
BRANCH  10  16
ATOM     16  N   UNL     1      34.817 -16.102 -20.166  0.00  0.00    -0.357 N 
ATOM     17  H   UNL     1      34.331 -16.025 -19.313  0.00  0.00    +0.142 HD
ATOM     18  H   UNL     1      35.683 -16.570 -20.199  0.00  0.00    +0.142 HD
ENDBRANCH  10  16
BRANCH   6  19
ATOM     19  C   UNL     1      32.123 -12.590 -22.294  0.00  0.00    +0.088 C 
BRANCH  19  20
ATOM     20  S   UNL     1      31.749 -12.180 -20.563  0.00  0.00    -0.096 S 
BRANCH  20  23
ATOM     21  N   UNL     1      31.824  -9.762 -21.740  0.00  0.00    -0.308 N 
ATOM     22  N   UNL     1      32.169  -9.681 -19.549  0.00  0.00    -0.308 N 
ATOM     23  C   UNL     1      31.935 -10.401 -20.574  0.00  0.00    +0.196 C 
ATOM     24  C   UNL     1      32.010  -8.442 -21.440  0.00  0.00    +0.076 C 
ATOM     25  C   UNL     1      32.220  -8.417 -20.081  0.00  0.00    +0.076 C 
ATOM     26  H   UNL     1      31.647 -10.156 -22.625  0.00  0.00    +0.149 HD
ATOM     27  H   UNL     1      32.283  -9.961 -18.611  0.00  0.00    +0.149 HD
ENDBRANCH  20  23
ENDBRANCH  19  20
ENDBRANCH   6  19
TORSDOF 4
ENDMDL
MODEL 6
REMARK VINA RESULT:      -8.4      9.544     12.754
REMARK  Name = 446622
REMARK  4 active torsions:
REMARK  status: ('A' for Active; 'I' for Inactive)
REMARK    1  A    between atoms: C_6  and  C_19
REMARK    2  A    between atoms: C_10  and  N_16
REMARK    3  A    between atoms: C_19  and  S_20
REMARK    4  A    between atoms: S_20  and  C_23
REMARK                            x       y       z     vdW  Elec       q    Type
REMARK                         _______ _______ _______ _____ _____    ______ ____
ROOT
ATOM      1  O   UNL     1      29.756 -22.766 -16.996  0.00  0.00    -0.209 OA
ATOM      2  N   UNL     1      32.117 -24.355 -14.176  0.00  0.00    -0.275 N 
ATOM      3  N   UNL     1      29.939 -23.793 -14.956  0.00  0.00    -0.302 NA
ATOM      4  N   UNL     1      30.282 -24.845 -12.890  0.00  0.00    -0.320 N 
ATOM      5  C   UNL     1      32.734 -23.840 -15.318  0.00  0.00    +0.060 C 
ATOM      6  C   UNL     1      34.121 -23.870 -15.482  0.00  0.00    +0.004 C 
ATOM      7  C   UNL     1      31.937 -23.277 -16.322  0.00  0.00    +0.109 C 
ATOM      8  C   UNL     1      34.702 -23.343 -16.637  0.00  0.00    +0.012 C 
ATOM      9  C   UNL     1      32.514 -22.749 -17.480  0.00  0.00    +0.028 C 
ATOM     10  C   UNL     1      33.900 -22.785 -17.633  0.00  0.00    +0.042 C 
ATOM     11  C   UNL     1      30.461 -23.258 -16.120  0.00  0.00    +0.208 C 
ATOM     12  C   UNL     1      30.746 -24.302 -14.062  0.00  0.00    +0.248 C 
ATOM     13  H   UNL     1      32.660 -24.755 -13.458  0.00  0.00    +0.156 HD
ATOM     14  H   UNL     1      30.916 -25.220 -12.236  0.00  0.00    +0.146 HD
ATOM     15  H   UNL     1      29.316 -24.859 -12.703  0.00  0.00    +0.146 HD
ENDROOT
BRANCH  10  16
ATOM     16  N   UNL     1      34.493 -22.255 -18.798  0.00  0.00    -0.357 N 
ATOM     17  H   UNL     1      34.739 -21.302 -18.836  0.00  0.00    +0.142 HD
ATOM     18  H   UNL     1      34.661 -22.838 -19.574  0.00  0.00    +0.142 HD
ENDBRANCH  10  16
BRANCH   6  19
ATOM     19  C   UNL     1      35.017 -24.459 -14.440  0.00  0.00    +0.088 C 
BRANCH  19  20
ATOM     20  S   UNL     1      36.311 -23.302 -13.903  0.00  0.00    -0.096 S 
BRANCH  20  23
ATOM     21  N   UNL     1      38.290 -24.953 -13.131  0.00  0.00    -0.308 N 
ATOM     22  N   UNL     1      38.411 -24.383 -15.273  0.00  0.00    -0.308 N 
ATOM     23  C   UNL     1      37.788 -24.278 -14.166  0.00  0.00    +0.196 C 
ATOM     24  C   UNL     1      39.393 -25.590 -13.625  0.00  0.00    +0.076 C 
ATOM     25  C   UNL     1      39.446 -25.224 -14.950  0.00  0.00    +0.076 C 
ATOM     26  H   UNL     1      37.941 -24.986 -12.211  0.00  0.00    +0.149 HD
ATOM     27  H   UNL     1      38.201 -23.968 -16.142  0.00  0.00    +0.149 HD
ENDBRANCH  20  23
ENDBRANCH  19  20
ENDBRANCH   6  19
TORSDOF 4
ENDMDL
MODEL 7
REMARK VINA RESULT:      -8.3      2.789      5.706
REMARK  Name = 446622
REMARK  4 active torsions:
REMARK  status: ('A' for Active; 'I' for Inactive)
REMARK    1  A    between atoms: C_6  and  C_19
REMARK    2  A    between atoms: C_10  and  N_16
REMARK    3  A    between atoms: C_19  and  S_20
REMARK    4  A    between atoms: S_20  and  C_23
REMARK                            x       y       z     vdW  Elec       q    Type
REMARK                         _______ _______ _______ _____ _____    ______ ____
ROOT
ATOM      1  O   UNL     1      33.405 -15.668 -26.552  0.00  0.00    -0.209 OA
ATOM      2  N   UNL     1      34.534 -15.520 -22.711  0.00  0.00    -0.275 N 
ATOM      3  N   UNL     1      33.720 -14.418 -24.658  0.00  0.00    -0.302 NA
ATOM      4  N   UNL     1      34.093 -13.270 -22.649  0.00  0.00    -0.320 N 
ATOM      5  C   UNL     1      34.593 -16.759 -23.353  0.00  0.00    +0.060 C 
ATOM      6  C   UNL     1      35.027 -17.910 -22.692  0.00  0.00    +0.004 C 
ATOM      7  C   UNL     1      34.205 -16.844 -24.696  0.00  0.00    +0.109 C 
ATOM      8  C   UNL     1      35.074 -19.131 -23.368  0.00  0.00    +0.012 C 
ATOM      9  C   UNL     1      34.250 -18.064 -25.376  0.00  0.00    +0.028 C 
ATOM     10  C   UNL     1      34.686 -19.207 -24.706  0.00  0.00    +0.042 C 
ATOM     11  C   UNL     1      33.745 -15.600 -25.375  0.00  0.00    +0.208 C 
ATOM     12  C   UNL     1      34.097 -14.415 -23.406  0.00  0.00    +0.248 C 
ATOM     13  H   UNL     1      34.802 -15.439 -21.767  0.00  0.00    +0.156 HD
ATOM     14  H   UNL     1      34.383 -13.301 -21.708  0.00  0.00    +0.146 HD
ATOM     15  H   UNL     1      33.799 -12.419 -23.046  0.00  0.00    +0.146 HD
ENDROOT
BRANCH  10  16
ATOM     16  N   UNL     1      34.735 -20.444 -25.383  0.00  0.00    -0.357 N 
ATOM     17  H   UNL     1      34.695 -20.469 -26.366  0.00  0.00    +0.142 HD
ATOM     18  H   UNL     1      34.808 -21.282 -24.871  0.00  0.00    +0.142 HD
ENDBRANCH  10  16
BRANCH   6  19
ATOM     19  C   UNL     1      35.452 -17.873 -21.259  0.00  0.00    +0.088 C 
BRANCH  19  20
ATOM     20  S   UNL     1      36.477 -19.303 -20.803  0.00  0.00    -0.096 S 
BRANCH  20  23
ATOM     21  N   UNL     1      35.658 -21.543 -19.557  0.00  0.00    -0.308 N 
ATOM     22  N   UNL     1      33.982 -20.271 -20.264  0.00  0.00    -0.308 N 
ATOM     23  C   UNL     1      35.242 -20.435 -20.173  0.00  0.00    +0.196 C 
ATOM     24  C   UNL     1      34.515 -22.197 -19.194  0.00  0.00    +0.076 C 
ATOM     25  C   UNL     1      33.493 -21.391 -19.640  0.00  0.00    +0.076 C 
ATOM     26  H   UNL     1      36.588 -21.828 -19.399  0.00  0.00    +0.149 HD
ATOM     27  H   UNL     1      33.484 -19.528 -20.676  0.00  0.00    +0.149 HD
ENDBRANCH  20  23
ENDBRANCH  19  20
ENDBRANCH   6  19
TORSDOF 4
ENDMDL
MODEL 8
REMARK VINA RESULT:      -8.3      7.319     10.479
REMARK  Name = 446622
REMARK  4 active torsions:
REMARK  status: ('A' for Active; 'I' for Inactive)
REMARK    1  A    between atoms: C_6  and  C_19
REMARK    2  A    between atoms: C_10  and  N_16
REMARK    3  A    between atoms: C_19  and  S_20
REMARK    4  A    between atoms: S_20  and  C_23
REMARK                            x       y       z     vdW  Elec       q    Type
REMARK                         _______ _______ _______ _____ _____    ______ ____
ROOT
ATOM      1  O   UNL     1      34.110 -24.259 -12.826  0.00  0.00    -0.209 OA
ATOM      2  N   UNL     1      35.846 -23.289 -16.304  0.00  0.00    -0.275 N 
ATOM      3  N   UNL     1      36.037 -23.973 -14.031  0.00  0.00    -0.302 NA
ATOM      4  N   UNL     1      37.920 -23.639 -15.387  0.00  0.00    -0.320 N 
ATOM      5  C   UNL     1      34.451 -23.254 -16.248  0.00  0.00    +0.060 C 
ATOM      6  C   UNL     1      33.679 -22.896 -17.356  0.00  0.00    +0.004 C 
ATOM      7  C   UNL     1      33.814 -23.588 -15.047  0.00  0.00    +0.109 C 
ATOM      8  C   UNL     1      32.287 -22.871 -17.262  0.00  0.00    +0.012 C 
ATOM      9  C   UNL     1      32.420 -23.565 -14.948  0.00  0.00    +0.028 C 
ATOM     10  C   UNL     1      31.659 -23.205 -16.061  0.00  0.00    +0.042 C 
ATOM     11  C   UNL     1      34.662 -23.966 -13.882  0.00  0.00    +0.208 C 
ATOM     12  C   UNL     1      36.562 -23.650 -15.184  0.00  0.00    +0.248 C 
ATOM     13  H   UNL     1      36.314 -23.058 -17.138  0.00  0.00    +0.156 HD
ATOM     14  H   UNL     1      38.284 -23.391 -16.267  0.00  0.00    +0.146 HD
ATOM     15  H   UNL     1      38.528 -23.880 -14.652  0.00  0.00    +0.146 HD
ENDROOT
BRANCH  10  16
ATOM     16  N   UNL     1      30.252 -23.179 -15.972  0.00  0.00    -0.357 N 
ATOM     17  H   UNL     1      29.719 -22.788 -16.702  0.00  0.00    +0.142 HD
ATOM     18  H   UNL     1      29.802 -23.551 -15.179  0.00  0.00    +0.142 HD
ENDBRANCH  10  16
BRANCH   6  19
ATOM     19  C   UNL     1      34.311 -22.531 -18.661  0.00  0.00    +0.088 C 
BRANCH  19  20
ATOM     20  S   UNL     1      33.300 -21.362 -19.618  0.00  0.00    -0.096 S 
BRANCH  20  23
ATOM     21  N   UNL     1      35.816 -20.459 -19.916  0.00  0.00    -0.308 N 
ATOM     22  N   UNL     1      34.354 -19.429 -21.231  0.00  0.00    -0.308 N 
ATOM     23  C   UNL     1      34.559 -20.314 -20.338  0.00  0.00    +0.196 C 
ATOM     24  C   UNL     1      36.536 -19.543 -20.630  0.00  0.00    +0.076 C 
ATOM     25  C   UNL     1      35.612 -18.920 -21.436  0.00  0.00    +0.076 C 
ATOM     26  H   UNL     1      36.152 -21.089 -19.238  0.00  0.00    +0.149 HD
ATOM     27  H   UNL     1      33.507 -19.175 -21.665  0.00  0.00    +0.149 HD
ENDBRANCH  20  23
ENDBRANCH  19  20
ENDBRANCH   6  19
TORSDOF 4
ENDMDL
MODEL 9
REMARK VINA RESULT:      -8.3      9.799     11.818
REMARK  Name = 446622
REMARK  4 active torsions:
REMARK  status: ('A' for Active; 'I' for Inactive)
REMARK    1  A    between atoms: C_6  and  C_19
REMARK    2  A    between atoms: C_10  and  N_16
REMARK    3  A    between atoms: C_19  and  S_20
REMARK    4  A    between atoms: S_20  and  C_23
REMARK                            x       y       z     vdW  Elec       q    Type
REMARK                         _______ _______ _______ _____ _____    ______ ____
ROOT
ATOM      1  O   UNL     1      37.156 -22.969 -15.923  0.00  0.00    -0.209 OA
ATOM      2  N   UNL     1      34.066 -23.710 -13.483  0.00  0.00    -0.275 N 
ATOM      3  N   UNL     1      36.410 -23.457 -13.812  0.00  0.00    -0.302 NA
ATOM      4  N   UNL     1      35.501 -23.957 -11.711  0.00  0.00    -0.320 N 
ATOM      5  C   UNL     1      33.781 -23.458 -14.827  0.00  0.00    +0.060 C 
ATOM      6  C   UNL     1      32.471 -23.462 -15.314  0.00  0.00    +0.004 C 
ATOM      7  C   UNL     1      34.838 -23.196 -15.706  0.00  0.00    +0.109 C 
ATOM      8  C   UNL     1      32.225 -23.207 -16.664  0.00  0.00    +0.012 C 
ATOM      9  C   UNL     1      34.596 -22.940 -17.058  0.00  0.00    +0.028 C 
ATOM     10  C   UNL     1      33.285 -22.946 -17.534  0.00  0.00    +0.042 C 
ATOM     11  C   UNL     1      36.224 -23.197 -15.158  0.00  0.00    +0.208 C 
ATOM     12  C   UNL     1      35.373 -23.693 -13.052  0.00  0.00    +0.248 C 
ATOM     13  H   UNL     1      33.336 -23.896 -12.849  0.00  0.00    +0.156 HD
ATOM     14  H   UNL     1      34.700 -24.131 -11.165  0.00  0.00    +0.146 HD
ATOM     15  H   UNL     1      36.393 -23.971 -11.295  0.00  0.00    +0.146 HD
ENDROOT
BRANCH  10  16
ATOM     16  N   UNL     1      33.030 -22.689 -18.897  0.00  0.00    -0.357 N 
ATOM     17  H   UNL     1      33.657 -22.139 -19.420  0.00  0.00    +0.142 HD
ATOM     18  H   UNL     1      32.223 -23.059 -19.325  0.00  0.00    +0.142 HD
ENDBRANCH  10  16
BRANCH   6  19
ATOM     19  C   UNL     1      31.306 -23.736 -14.418  0.00  0.00    +0.088 C 
BRANCH  19  20
ATOM     20  S   UNL     1      30.177 -24.980 -15.110  0.00  0.00    -0.096 S 
BRANCH  20  23
ATOM     21  N   UNL     1      28.688 -22.759 -15.402  0.00  0.00    -0.308 N 
ATOM     22  N   UNL     1      28.367 -24.247 -17.018  0.00  0.00    -0.308 N 
ATOM     23  C   UNL     1      28.977 -23.945 -15.941  0.00  0.00    +0.196 C 
ATOM     24  C   UNL     1      27.761 -22.206 -16.240  0.00  0.00    +0.076 C 
ATOM     25  C   UNL     1      27.579 -23.144 -17.230  0.00  0.00    +0.076 C 
ATOM     26  H   UNL     1      29.062 -22.367 -14.580  0.00  0.00    +0.149 HD
ATOM     27  H   UNL     1      28.442 -25.066 -17.561  0.00  0.00    +0.149 HD
ENDBRANCH  20  23
ENDBRANCH  19  20
ENDBRANCH   6  19
TORSDOF 4
ENDMDL
