MODEL 1
REMARK VINA RESULT:     -10.0      0.000      0.000
REMARK  Name = 46937131
REMARK  4 active torsions:
REMARK  status: ('A' for Active; 'I' for Inactive)
REMARK    1  A    between atoms: C_2  and  C_15
REMARK    2  A    between atoms: C_16  and  C_18
REMARK    3  A    between atoms: CA_17  and  C_22
REMARK    4  A    between atoms: C_22  and  O_23
REMARK                            x       y       z     vdW  Elec       q    Type
REMARK                         _______ _______ _______ _____ _____    ______ ____
ROOT
ATOM      1  N   UNL     1      36.085 -17.779 -21.793  0.00  0.00    +0.393 N 
ATOM      2  C   UNL     1      34.869 -18.113 -22.555  0.00  0.00    +0.003 C 
ATOM      3  C   UNL     1      33.824 -18.766 -21.629  0.00  0.00    +0.012 C 
ATOM      4  C   UNL     1      34.414 -19.868 -20.784  0.00  0.00    -0.030 C 
ATOM      5  C   UNL     1      36.736 -19.000 -21.303  0.00  0.00    -0.054 C 
ATOM      6  C   UNL     1      35.804 -19.953 -20.594  0.00  0.00    -0.048 C 
ATOM      7  C   UNL     1      33.569 -20.780 -20.135  0.00  0.00    -0.005 C 
ATOM      8  C   UNL     1      36.330 -20.970 -19.787  0.00  0.00    -0.007 C 
ATOM      9  C   UNL     1      34.103 -21.783 -19.326  0.00  0.00    -0.000 C 
ATOM     10  C   UNL     1      35.482 -21.879 -19.154  0.00  0.00    -0.000 C 
ATOM     11  H   UNL     1      35.832 -17.190 -20.999  0.00  0.00    -0.083 HD
ATOM     12  H   UNL     1      36.732 -17.282 -22.406  0.00  0.00    -0.083 HD
ENDROOT
BRANCH   2  15
ATOM     13  S   UNL     1      33.895 -15.506 -22.350  0.00  0.00    -0.082 S 
ATOM     14  N   UNL     1      34.106 -16.821 -24.566  0.00  0.00    -0.399 NA
ATOM     15  C   UNL     1      34.306 -16.896 -23.269  0.00  0.00    +0.115 C 
ATOM     16  C   UNL     1      33.405 -14.726 -23.796  0.00  0.00    +0.113 C 
ATOM     17  CA  UNL     1      33.588 -15.577 -24.866  0.00  0.00    +0.194 C 
BRANCH  16  18
ATOM     18  C   UNL     1      32.882 -13.345 -23.752  0.00  0.00    +0.017 C 
ATOM     19  C   UNL     1      33.952 -12.284 -24.096  0.00  0.00    +0.001 C 
ATOM     20  C   UNL     1      32.229 -12.990 -22.397  0.00  0.00    +0.001 C 
ENDBRANCH  16  18
BRANCH  17  22
ATOM     21  OXT UNL     1      33.826 -14.350 -26.906  0.00  0.00    -0.243 OA
ATOM     22  C   UNL     1      33.278 -15.239 -26.228  0.00  0.00    +0.365 C 
BRANCH  22  23
ATOM     23  O   UNL     1      32.277 -16.007 -26.759  0.00  0.00    -0.476 OA
ATOM     24  H   UNL     1      32.203 -16.910 -26.518  0.00  0.00    +0.295 HD
ENDBRANCH  22  23
ENDBRANCH  17  22
ENDBRANCH   2  15
TORSDOF 4
ENDMDL
MODEL 2
REMARK VINA RESULT:      -9.3     10.953     13.017
REMARK  Name = 46937131
REMARK  4 active torsions:
REMARK  status: ('A' for Active; 'I' for Inactive)
REMARK    1  A    between atoms: C_2  and  C_15
REMARK    2  A    between atoms: C_16  and  C_18
REMARK    3  A    between atoms: CA_17  and  C_22
REMARK    4  A    between atoms: C_22  and  O_23
REMARK                            x       y       z     vdW  Elec       q    Type
REMARK                         _______ _______ _______ _____ _____    ______ ____
ROOT
ATOM      1  N   UNL     1      31.760 -25.128 -13.429  0.00  0.00    +0.393 N 
ATOM      2  C   UNL     1      32.738 -24.619 -14.406  0.00  0.00    +0.003 C 
ATOM      3  C   UNL     1      32.240 -23.293 -15.015  0.00  0.00    +0.012 C 
ATOM      4  C   UNL     1      30.806 -23.377 -15.479  0.00  0.00    -0.030 C 
ATOM      5  C   UNL     1      30.501 -25.479 -14.099  0.00  0.00    -0.054 C 
ATOM      6  C   UNL     1      29.964 -24.399 -15.006  0.00  0.00    -0.048 C 
ATOM      7  C   UNL     1      30.291 -22.399 -16.341  0.00  0.00    -0.005 C 
ATOM      8  C   UNL     1      28.630 -24.446 -15.430  0.00  0.00    -0.007 C 
ATOM      9  C   UNL     1      28.959 -22.450 -16.750  0.00  0.00    -0.000 C 
ATOM     10  C   UNL     1      28.130 -23.474 -16.297  0.00  0.00    -0.000 C 
ATOM     11  H   UNL     1      31.579 -24.409 -12.728  0.00  0.00    -0.083 HD
ATOM     12  H   UNL     1      32.142 -25.963 -12.985  0.00  0.00    -0.083 HD
ENDROOT
BRANCH   2  15
ATOM     13  S   UNL     1      35.502 -24.745 -14.762  0.00  0.00    -0.082 S 
ATOM     14  N   UNL     1      34.339 -24.137 -12.535  0.00  0.00    -0.399 NA
ATOM     15  C   UNL     1      34.117 -24.469 -13.787  0.00  0.00    +0.115 C 
ATOM     16  C   UNL     1      36.495 -24.393 -13.409  0.00  0.00    +0.113 C 
ATOM     17  CA  UNL     1      35.703 -24.094 -12.320  0.00  0.00    +0.194 C 
BRANCH  16  18
ATOM     18  C   UNL     1      37.966 -24.441 -13.536  0.00  0.00    +0.017 C 
ATOM     19  C   UNL     1      38.452 -24.259 -14.992  0.00  0.00    +0.001 C 
ATOM     20  C   UNL     1      38.579 -25.734 -12.951  0.00  0.00    +0.001 C 
ENDBRANCH  16  18
BRANCH  17  22
ATOM     21  OXT UNL     1      37.137 -22.952 -10.783  0.00  0.00    -0.243 OA
ATOM     22  C   UNL     1      36.213 -23.752 -11.021  0.00  0.00    +0.365 C 
BRANCH  22  23
ATOM     23  O   UNL     1      35.576 -24.408 -10.002  0.00  0.00    -0.476 OA
ATOM     24  H   UNL     1      35.353 -23.947  -9.217  0.00  0.00    +0.295 HD
ENDBRANCH  22  23
ENDBRANCH  17  22
ENDBRANCH   2  15
TORSDOF 4
ENDMDL
MODEL 3
REMARK VINA RESULT:      -9.3      2.114      2.594
REMARK  Name = 46937131
REMARK  4 active torsions:
REMARK  status: ('A' for Active; 'I' for Inactive)
REMARK    1  A    between atoms: C_2  and  C_15
REMARK    2  A    between atoms: C_16  and  C_18
REMARK    3  A    between atoms: CA_17  and  C_22
REMARK    4  A    between atoms: C_22  and  O_23
REMARK                            x       y       z     vdW  Elec       q    Type
REMARK                         _______ _______ _______ _____ _____    ______ ____
ROOT
ATOM      1  N   UNL     1      35.827 -17.665 -21.375  0.00  0.00    +0.393 N 
ATOM      2  C   UNL     1      34.540 -17.822 -22.073  0.00  0.00    +0.003 C 
ATOM      3  C   UNL     1      33.539 -18.583 -21.180  0.00  0.00    +0.012 C 
ATOM      4  C   UNL     1      34.138 -19.833 -20.582  0.00  0.00    -0.030 C 
ATOM      5  C   UNL     1      36.453 -18.974 -21.151  0.00  0.00    -0.054 C 
ATOM      6  C   UNL     1      35.533 -19.998 -20.530  0.00  0.00    -0.048 C 
ATOM      7  C   UNL     1      33.304 -20.809 -20.022  0.00  0.00    -0.005 C 
ATOM      8  C   UNL     1      36.071 -21.154 -19.951  0.00  0.00    -0.007 C 
ATOM      9  C   UNL     1      33.849 -21.952 -19.439  0.00  0.00    -0.000 C 
ATOM     10  C   UNL     1      35.230 -22.126 -19.405  0.00  0.00    -0.000 C 
ATOM     11  H   UNL     1      35.668 -17.210 -20.476  0.00  0.00    -0.083 HD
ATOM     12  H   UNL     1      36.448 -17.096 -21.951  0.00  0.00    -0.083 HD
ENDROOT
BRANCH   2  15
ATOM     13  S   UNL     1      34.128 -16.035 -24.176  0.00  0.00    -0.082 S 
ATOM     14  N   UNL     1      33.386 -15.620 -21.735  0.00  0.00    -0.399 NA
ATOM     15  C   UNL     1      33.984 -16.483 -22.526  0.00  0.00    +0.115 C 
ATOM     16  C   UNL     1      33.325 -14.562 -23.821  0.00  0.00    +0.113 C 
ATOM     17  CA  UNL     1      33.009 -14.519 -22.479  0.00  0.00    +0.194 C 
BRANCH  16  18
ATOM     18  C   UNL     1      33.076 -13.576 -24.892  0.00  0.00    +0.017 C 
ATOM     19  C   UNL     1      33.127 -14.197 -26.307  0.00  0.00    +0.001 C 
ATOM     20  C   UNL     1      34.035 -12.365 -24.832  0.00  0.00    +0.001 C 
ENDBRANCH  16  18
BRANCH  17  22
ATOM     21  OXT UNL     1      31.673 -12.535 -22.419  0.00  0.00    -0.243 OA
ATOM     22  C   UNL     1      32.331 -13.423 -21.844  0.00  0.00    +0.365 C 
BRANCH  22  23
ATOM     23  O   UNL     1      32.468 -13.421 -20.482  0.00  0.00    -0.476 OA
ATOM     24  H   UNL     1      33.087 -12.847 -20.075  0.00  0.00    +0.295 HD
ENDBRANCH  22  23
ENDBRANCH  17  22
ENDBRANCH   2  15
TORSDOF 4
ENDMDL
MODEL 4
REMARK VINA RESULT:      -9.3      6.345      9.840
REMARK  Name = 46937131
REMARK  4 active torsions:
REMARK  status: ('A' for Active; 'I' for Inactive)
REMARK    1  A    between atoms: C_2  and  C_15
REMARK    2  A    between atoms: C_16  and  C_18
REMARK    3  A    between atoms: CA_17  and  C_22
REMARK    4  A    between atoms: C_22  and  O_23
REMARK                            x       y       z     vdW  Elec       q    Type
REMARK                         _______ _______ _______ _____ _____    ______ ____
ROOT
ATOM      1  N   UNL     1      32.816 -21.016 -19.360  0.00  0.00    +0.393 N 
ATOM      2  C   UNL     1      33.935 -21.939 -19.099  0.00  0.00    +0.003 C 
ATOM      3  C   UNL     1      35.273 -21.172 -19.123  0.00  0.00    +0.012 C 
ATOM      4  C   UNL     1      35.403 -20.281 -20.334  0.00  0.00    -0.030 C 
ATOM      5  C   UNL     1      32.907 -20.471 -20.720  0.00  0.00    -0.054 C 
ATOM      6  C   UNL     1      34.264 -19.912 -21.071  0.00  0.00    -0.048 C 
ATOM      7  C   UNL     1      36.657 -19.770 -20.694  0.00  0.00    -0.005 C 
ATOM      8  C   UNL     1      34.403 -19.066 -22.178  0.00  0.00    -0.007 C 
ATOM      9  C   UNL     1      36.783 -18.920 -21.792  0.00  0.00    -0.000 C 
ATOM     10  C   UNL     1      35.658 -18.570 -22.535  0.00  0.00    -0.000 C 
ATOM     11  H   UNL     1      32.849 -20.249 -18.687  0.00  0.00    -0.083 HD
ATOM     12  H   UNL     1      31.938 -21.527 -19.266  0.00  0.00    -0.083 HD
ENDROOT
BRANCH   2  15
ATOM     13  S   UNL     1      32.161 -22.845 -17.145  0.00  0.00    -0.082 S 
ATOM     14  N   UNL     1      34.714 -23.254 -17.110  0.00  0.00    -0.399 NA
ATOM     15  C   UNL     1      33.742 -22.694 -17.795  0.00  0.00    +0.115 C 
ATOM     16  C   UNL     1      32.813 -23.736 -15.832  0.00  0.00    +0.113 C 
ATOM     17  CA  UNL     1      34.180 -23.851 -15.984  0.00  0.00    +0.194 C 
BRANCH  16  18
ATOM     18  C   UNL     1      31.925 -24.244 -14.767  0.00  0.00    +0.017 C 
ATOM     19  C   UNL     1      30.548 -24.703 -15.298  0.00  0.00    +0.001 C 
ATOM     20  C   UNL     1      31.716 -23.229 -13.621  0.00  0.00    +0.001 C 
ENDBRANCH  16  18
BRANCH  17  22
ATOM     21  OXT UNL     1      35.188 -24.266 -13.855  0.00  0.00    -0.243 OA
ATOM     22  C   UNL     1      35.039 -24.538 -15.061  0.00  0.00    +0.365 C 
BRANCH  22  23
ATOM     23  O   UNL     1      35.726 -25.574 -15.634  0.00  0.00    -0.476 OA
ATOM     24  H   UNL     1      36.581 -25.428 -15.989  0.00  0.00    +0.295 HD
ENDBRANCH  22  23
ENDBRANCH  17  22
ENDBRANCH   2  15
TORSDOF 4
ENDMDL
MODEL 5
REMARK VINA RESULT:      -9.0      4.400      6.354
REMARK  Name = 46937131
REMARK  4 active torsions:
REMARK  status: ('A' for Active; 'I' for Inactive)
REMARK    1  A    between atoms: C_2  and  C_15
REMARK    2  A    between atoms: C_16  and  C_18
REMARK    3  A    between atoms: CA_17  and  C_22
REMARK    4  A    between atoms: C_22  and  O_23
REMARK                            x       y       z     vdW  Elec       q    Type
REMARK                         _______ _______ _______ _____ _____    ______ ____
ROOT
ATOM      1  N   UNL     1      33.139 -13.340 -24.597  0.00  0.00    +0.393 N 
ATOM      2  C   UNL     1      32.707 -13.499 -23.198  0.00  0.00    +0.003 C 
ATOM      3  C   UNL     1      33.748 -14.318 -22.409  0.00  0.00    +0.012 C 
ATOM      4  C   UNL     1      34.158 -15.577 -23.135  0.00  0.00    -0.030 C 
ATOM      5  C   UNL     1      33.175 -14.642 -25.274  0.00  0.00    -0.054 C 
ATOM      6  C   UNL     1      33.922 -15.711 -24.514  0.00  0.00    -0.048 C 
ATOM      7  C   UNL     1      34.831 -16.595 -22.446  0.00  0.00    -0.005 C 
ATOM      8  C   UNL     1      34.330 -16.877 -25.175  0.00  0.00    -0.007 C 
ATOM      9  C   UNL     1      35.242 -17.747 -23.114  0.00  0.00    -0.000 C 
ATOM     10  C   UNL     1      34.990 -17.889 -24.477  0.00  0.00    -0.000 C 
ATOM     11  H   UNL     1      34.070 -12.925 -24.616  0.00  0.00    -0.083 HD
ATOM     12  H   UNL     1      32.475 -12.734 -25.080  0.00  0.00    -0.083 HD
ENDROOT
BRANCH   2  15
ATOM     13  S   UNL     1      32.576 -10.726 -23.479  0.00  0.00    -0.082 S 
ATOM     14  N   UNL     1      32.090 -12.000 -21.283  0.00  0.00    -0.399 NA
ATOM     15  C   UNL     1      32.434 -12.157 -22.542  0.00  0.00    +0.115 C 
ATOM     16  C   UNL     1      32.141  -9.807 -22.099  0.00  0.00    +0.113 C 
ATOM     17  CA  UNL     1      31.923 -10.652 -21.030  0.00  0.00    +0.194 C 
BRANCH  16  18
ATOM     18  C   UNL     1      32.054  -8.335 -22.186  0.00  0.00    +0.017 C 
ATOM     19  C   UNL     1      31.161  -7.852 -23.351  0.00  0.00    +0.001 C 
ATOM     20  C   UNL     1      33.437  -7.654 -22.286  0.00  0.00    +0.001 C 
ENDBRANCH  16  18
BRANCH  17  22
ATOM     21  OXT UNL     1      30.440 -10.402 -19.169  0.00  0.00    -0.243 OA
ATOM     22  C   UNL     1      31.542 -10.211 -19.717  0.00  0.00    +0.365 C 
BRANCH  22  23
ATOM     23  O   UNL     1      32.534  -9.523 -19.072  0.00  0.00    -0.476 OA
ATOM     24  H   UNL     1      32.354  -8.681 -18.701  0.00  0.00    +0.295 HD
ENDBRANCH  22  23
ENDBRANCH  17  22
ENDBRANCH   2  15
TORSDOF 4
ENDMDL
MODEL 6
REMARK VINA RESULT:      -9.0      2.218      7.079
REMARK  Name = 46937131
REMARK  4 active torsions:
REMARK  status: ('A' for Active; 'I' for Inactive)
REMARK    1  A    between atoms: C_2  and  C_15
REMARK    2  A    between atoms: C_16  and  C_18
REMARK    3  A    between atoms: CA_17  and  C_22
REMARK    4  A    between atoms: C_22  and  O_23
REMARK                            x       y       z     vdW  Elec       q    Type
REMARK                         _______ _______ _______ _____ _____    ______ ____
ROOT
ATOM      1  N   UNL     1      33.463 -13.596 -23.798  0.00  0.00    +0.393 N 
ATOM      2  C   UNL     1      33.869 -14.184 -22.510  0.00  0.00    +0.003 C 
ATOM      3  C   UNL     1      32.776 -13.947 -21.449  0.00  0.00    +0.012 C 
ATOM      4  C   UNL     1      32.308 -12.512 -21.416  0.00  0.00    -0.030 C 
ATOM      5  C   UNL     1      33.365 -12.135 -23.687  0.00  0.00    -0.054 C 
ATOM      6  C   UNL     1      32.553 -11.660 -22.507  0.00  0.00    -0.048 C 
ATOM      7  C   UNL     1      31.573 -12.041 -20.320  0.00  0.00    -0.005 C 
ATOM      8  C   UNL     1      32.091 -10.338 -22.468  0.00  0.00    -0.007 C 
ATOM      9  C   UNL     1      31.109 -10.726 -20.295  0.00  0.00    -0.000 C 
ATOM     10  C   UNL     1      31.369  -9.875 -21.366  0.00  0.00    -0.000 C 
ATOM     11  H   UNL     1      32.555 -13.974 -24.069  0.00  0.00    -0.083 HD
ATOM     12  H   UNL     1      34.164 -13.827 -24.502  0.00  0.00    -0.083 HD
ENDROOT
BRANCH   2  15
ATOM     13  S   UNL     1      34.542 -16.576 -21.241  0.00  0.00    -0.082 S 
ATOM     14  N   UNL     1      34.258 -16.303 -23.796  0.00  0.00    -0.399 NA
ATOM     15  C   UNL     1      34.205 -15.658 -22.651  0.00  0.00    +0.115 C 
ATOM     16  C   UNL     1      34.781 -17.958 -22.227  0.00  0.00    +0.113 C 
ATOM     17  CA  UNL     1      34.590 -17.621 -23.551  0.00  0.00    +0.194 C 
BRANCH  16  18
ATOM     18  C   UNL     1      35.138 -19.253 -21.613  0.00  0.00    +0.017 C 
ATOM     19  C   UNL     1      34.005 -19.840 -20.740  0.00  0.00    +0.001 C 
ATOM     20  C   UNL     1      36.440 -19.190 -20.783  0.00  0.00    +0.001 C 
ENDBRANCH  16  18
BRANCH  17  22
ATOM     21  OXT UNL     1      34.923 -19.769 -24.551  0.00  0.00    -0.243 OA
ATOM     22  C   UNL     1      34.713 -18.545 -24.644  0.00  0.00    +0.365 C 
BRANCH  22  23
ATOM     23  O   UNL     1      34.576 -17.950 -25.869  0.00  0.00    -0.476 OA
ATOM     24  H   UNL     1      33.761 -18.006 -26.328  0.00  0.00    +0.295 HD
ENDBRANCH  22  23
ENDBRANCH  17  22
ENDBRANCH   2  15
TORSDOF 4
ENDMDL
MODEL 7
REMARK VINA RESULT:      -8.9      3.420      5.258
REMARK  Name = 46937131
REMARK  4 active torsions:
REMARK  status: ('A' for Active; 'I' for Inactive)
REMARK    1  A    between atoms: C_2  and  C_15
REMARK    2  A    between atoms: C_16  and  C_18
REMARK    3  A    between atoms: CA_17  and  C_22
REMARK    4  A    between atoms: C_22  and  O_23
REMARK                            x       y       z     vdW  Elec       q    Type
REMARK                         _______ _______ _______ _____ _____    ______ ____
ROOT
ATOM      1  N   UNL     1      33.679 -14.500 -25.466  0.00  0.00    +0.393 N 
ATOM      2  C   UNL     1      33.462 -14.185 -24.044  0.00  0.00    +0.003 C 
ATOM      3  C   UNL     1      34.514 -14.902 -23.174  0.00  0.00    +0.012 C 
ATOM      4  C   UNL     1      34.652 -16.363 -23.527  0.00  0.00    -0.030 C 
ATOM      5  C   UNL     1      33.454 -15.929 -25.716  0.00  0.00    -0.054 C 
ATOM      6  C   UNL     1      34.183 -16.844 -24.761  0.00  0.00    -0.048 C 
ATOM      7  C   UNL     1      35.304 -17.237 -22.645  0.00  0.00    -0.005 C 
ATOM      8  C   UNL     1      34.341 -18.198 -25.080  0.00  0.00    -0.007 C 
ATOM      9  C   UNL     1      35.465 -18.581 -22.976  0.00  0.00    -0.000 C 
ATOM     10  C   UNL     1      34.982 -19.063 -24.191  0.00  0.00    -0.000 C 
ATOM     11  H   UNL     1      34.638 -14.261 -25.721  0.00  0.00    -0.083 HD
ATOM     12  H   UNL     1      33.022 -13.959 -26.028  0.00  0.00    -0.083 HD
ENDROOT
BRANCH   2  15
ATOM     13  S   UNL     1      32.268 -12.014 -22.760  0.00  0.00    -0.082 S 
ATOM     14  N   UNL     1      34.314 -11.842 -24.333  0.00  0.00    -0.399 NA
ATOM     15  C   UNL     1      33.458 -12.686 -23.800  0.00  0.00    +0.115 C 
ATOM     16  C   UNL     1      32.942 -10.461 -23.034  0.00  0.00    +0.113 C 
ATOM     17  CA  UNL     1      34.016 -10.567 -23.894  0.00  0.00    +0.194 C 
BRANCH  16  18
ATOM     18  C   UNL     1      32.355  -9.273 -22.382  0.00  0.00    +0.017 C 
ATOM     19  C   UNL     1      31.753  -9.584 -20.992  0.00  0.00    +0.001 C 
ATOM     20  C   UNL     1      31.289  -8.571 -23.253  0.00  0.00    +0.001 C 
ENDBRANCH  16  18
BRANCH  17  22
ATOM     21  OXT UNL     1      35.024  -8.407 -23.695  0.00  0.00    -0.243 OA
ATOM     22  C   UNL     1      34.810  -9.454 -24.334  0.00  0.00    +0.365 C 
BRANCH  22  23
ATOM     23  O   UNL     1      35.345  -9.634 -25.581  0.00  0.00    -0.476 OA
ATOM     24  H   UNL     1      35.861 -10.395 -25.763  0.00  0.00    +0.295 HD
ENDBRANCH  22  23
ENDBRANCH  17  22
ENDBRANCH   2  15
TORSDOF 4
ENDMDL
MODEL 8
REMARK VINA RESULT:      -8.9      3.845      5.643
REMARK  Name = 46937131
REMARK  4 active torsions:
REMARK  status: ('A' for Active; 'I' for Inactive)
REMARK    1  A    between atoms: C_2  and  C_15
REMARK    2  A    between atoms: C_16  and  C_18
REMARK    3  A    between atoms: CA_17  and  C_22
REMARK    4  A    between atoms: C_22  and  O_23
REMARK                            x       y       z     vdW  Elec       q    Type
REMARK                         _______ _______ _______ _____ _____    ______ ____
ROOT
ATOM      1  N   UNL     1      33.470 -14.200 -25.090  0.00  0.00    +0.393 N 
ATOM      2  C   UNL     1      33.079 -14.139 -23.672  0.00  0.00    +0.003 C 
ATOM      3  C   UNL     1      34.120 -14.869 -22.800  0.00  0.00    +0.012 C 
ATOM      4  C   UNL     1      34.470 -16.232 -23.344  0.00  0.00    -0.030 C 
ATOM      5  C   UNL     1      33.447 -15.587 -25.570  0.00  0.00    -0.054 C 
ATOM      6  C   UNL     1      34.186 -16.559 -24.682  0.00  0.00    -0.048 C 
ATOM      7  C   UNL     1      35.134 -17.161 -22.531  0.00  0.00    -0.005 C 
ATOM      8  C   UNL     1      34.539 -17.821 -25.174  0.00  0.00    -0.007 C 
ATOM      9  C   UNL     1      35.490 -18.411 -23.034  0.00  0.00    -0.000 C 
ATOM     10  C   UNL     1      35.191 -18.743 -24.353  0.00  0.00    -0.000 C 
ATOM     11  H   UNL     1      34.413 -13.824 -25.195  0.00  0.00    -0.083 HD
ATOM     12  H   UNL     1      32.810 -13.649 -25.639  0.00  0.00    -0.083 HD
ENDROOT
BRANCH   2  15
ATOM     13  S   UNL     1      33.597 -11.430 -24.098  0.00  0.00    -0.082 S 
ATOM     14  N   UNL     1      32.150 -12.358 -22.167  0.00  0.00    -0.399 NA
ATOM     15  C   UNL     1      32.867 -12.706 -23.213  0.00  0.00    +0.115 C 
ATOM     16  C   UNL     1      32.905 -10.307 -23.003  0.00  0.00    +0.113 C 
ATOM     17  CA  UNL     1      32.174 -10.982 -22.048  0.00  0.00    +0.194 C 
BRANCH  16  18
ATOM     18  C   UNL     1      33.142  -8.860 -23.178  0.00  0.00    +0.017 C 
ATOM     19  C   UNL     1      31.960  -8.132 -23.858  0.00  0.00    +0.001 C 
ATOM     20  C   UNL     1      34.444  -8.551 -23.952  0.00  0.00    +0.001 C 
ENDBRANCH  16  18
BRANCH  17  22
ATOM     21  OXT UNL     1      31.758  -9.257 -20.443  0.00  0.00    -0.243 OA
ATOM     22  C   UNL     1      31.462 -10.343 -20.976  0.00  0.00    +0.365 C 
BRANCH  22  23
ATOM     23  O   UNL     1      30.371 -11.055 -20.555  0.00  0.00    -0.476 OA
ATOM     24  H   UNL     1      29.548 -10.622 -20.438  0.00  0.00    +0.295 HD
ENDBRANCH  22  23
ENDBRANCH  17  22
ENDBRANCH   2  15
TORSDOF 4
ENDMDL
MODEL 9
REMARK VINA RESULT:      -8.9      3.360      5.196
REMARK  Name = 46937131
REMARK  4 active torsions:
REMARK  status: ('A' for Active; 'I' for Inactive)
REMARK    1  A    between atoms: C_2  and  C_15
REMARK    2  A    between atoms: C_16  and  C_18
REMARK    3  A    between atoms: CA_17  and  C_22
REMARK    4  A    between atoms: C_22  and  O_23
REMARK                            x       y       z     vdW  Elec       q    Type
REMARK                         _______ _______ _______ _____ _____    ______ ____
ROOT
ATOM      1  N   UNL     1      33.674 -14.301 -24.269  0.00  0.00    +0.393 N 
ATOM      2  C   UNL     1      33.021 -14.325 -22.949  0.00  0.00    +0.003 C 
ATOM      3  C   UNL     1      33.932 -15.021 -21.918  0.00  0.00    +0.012 C 
ATOM      4  C   UNL     1      34.475 -16.334 -22.425  0.00  0.00    -0.030 C 
ATOM      5  C   UNL     1      33.842 -15.665 -24.784  0.00  0.00    -0.054 C 
ATOM      6  C   UNL     1      34.471 -16.622 -23.801  0.00  0.00    -0.048 C 
ATOM      7  C   UNL     1      35.042 -17.250 -21.527  0.00  0.00    -0.005 C 
ATOM      8  C   UNL     1      35.001 -17.837 -24.254  0.00  0.00    -0.007 C 
ATOM      9  C   UNL     1      35.576 -18.452 -21.990  0.00  0.00    -0.000 C 
ATOM     10  C   UNL     1      35.553 -18.747 -23.351  0.00  0.00    -0.000 C 
ATOM     11  H   UNL     1      34.590 -13.859 -24.183  0.00  0.00    -0.083 HD
ATOM     12  H   UNL     1      33.090 -13.773 -24.917  0.00  0.00    -0.083 HD
ENDROOT
BRANCH   2  15
ATOM     13  S   UNL     1      32.087 -12.697 -20.885  0.00  0.00    -0.082 S 
ATOM     14  N   UNL     1      32.659 -11.862 -23.263  0.00  0.00    -0.399 NA
ATOM     15  C   UNL     1      32.624 -12.930 -22.498  0.00  0.00    +0.115 C 
ATOM     16  C   UNL     1      31.882 -11.028 -21.220  0.00  0.00    +0.113 C 
ATOM     17  CA  UNL     1      32.233 -10.772 -22.530  0.00  0.00    +0.194 C 
BRANCH  16  18
ATOM     18  C   UNL     1      31.392 -10.115 -20.167  0.00  0.00    +0.017 C 
ATOM     19  C   UNL     1      32.286  -8.867 -19.988  0.00  0.00    +0.001 C 
ATOM     20  C   UNL     1      31.211 -10.813 -18.800  0.00  0.00    +0.001 C 
ENDBRANCH  16  18
BRANCH  17  22
ATOM     21  OXT UNL     1      31.148  -8.816 -23.376  0.00  0.00    -0.243 OA
ATOM     22  C   UNL     1      32.179  -9.473 -23.141  0.00  0.00    +0.365 C 
BRANCH  22  23
ATOM     23  O   UNL     1      33.413  -8.980 -23.467  0.00  0.00    -0.476 OA
ATOM     24  H   UNL     1      34.028  -9.522 -23.923  0.00  0.00    +0.295 HD
ENDBRANCH  22  23
ENDBRANCH  17  22
ENDBRANCH   2  15
TORSDOF 4
ENDMDL
