MODEL 1
REMARK VINA RESULT:     -10.3      0.000      0.000
REMARK  Name = 25070031
REMARK  6 active torsions:
REMARK  status: ('A' for Active; 'I' for Inactive)
REMARK    1  A    between atoms: C_1  and  O_15
REMARK    2  A    between atoms: C_4  and  C_10
REMARK    3  A    between atoms: O_15  and  C_16
REMARK    4  A    between atoms: C_16  and  C_17
REMARK    5  A    between atoms: C_17  and  C_18
REMARK    6  A    between atoms: C_18  and  N_19
REMARK                            x       y       z     vdW  Elec       q    Type
REMARK                         _______ _______ _______ _____ _____    ______ ____
ROOT
ATOM      1  C   UNL     1      34.350 -22.227 -18.853  0.00  0.00    +0.139 C 
ATOM      2  C   UNL     1      33.234 -21.542 -19.335  0.00  0.00    +0.037 C 
ATOM      3  C   UNL     1      35.632 -21.813 -19.215  0.00  0.00    +0.037 C 
ATOM      4  C   UNL     1      34.682 -20.029 -20.538  0.00  0.00    +0.019 C 
ATOM      5  C   UNL     1      33.401 -20.442 -20.177  0.00  0.00    +0.005 C 
ATOM      6  C   UNL     1      35.798 -20.714 -20.058  0.00  0.00    +0.005 C 
ENDROOT
BRANCH   4  10
ATOM      7  O   UNL     1      35.302 -15.758 -23.877  0.00  0.00    -0.268 OA
ATOM      8  N   UNL     1      35.007 -17.681 -20.911  0.00  0.00    -0.179 NA
ATOM      9  N   UNL     1      35.161 -16.637 -21.760  0.00  0.00    -0.202 N 
ATOM     10  C   UNL     1      34.859 -18.857 -21.437  0.00  0.00    +0.099 C 
ATOM     11  C   UNL     1      34.869 -19.129 -22.891  0.00  0.00    +0.025 C 
ATOM     12  C   UNL     1      35.019 -18.080 -23.699  0.00  0.00    +0.061 C 
ATOM     13  C   UNL     1      35.171 -16.726 -23.131  0.00  0.00    +0.265 C 
ATOM     14  H   UNL     1      35.274 -15.743 -21.362  0.00  0.00    +0.178 HD
ENDBRANCH   4  10
BRANCH   1  15
ATOM     15  O   UNL     1      34.186 -23.309 -18.029  0.00  0.00    -0.476 OA
BRANCH  15  16
ATOM     16  C   UNL     1      33.001 -23.345 -17.245  0.00  0.00    +0.203 C 
BRANCH  16  17
ATOM     17  C   UNL     1      33.371 -23.679 -15.807  0.00  0.00    +0.025 C 
BRANCH  17  18
ATOM     18  C   UNL     1      34.631 -22.940 -15.366  0.00  0.00    -0.073 C 
BRANCH  18  19
ATOM     19  N   UNL     1      35.804 -23.784 -15.555  0.00  0.00    +0.388 N 
ATOM     20  C   UNL     1      37.060 -23.133 -15.156  0.00  0.00    -0.058 C 
ATOM     21  C   UNL     1      38.030 -24.311 -15.041  0.00  0.00    -0.023 C 
ATOM     22  C   UNL     1      35.731 -24.995 -14.734  0.00  0.00    -0.077 C 
ATOM     23  C   UNL     1      37.154 -25.529 -14.770  0.00  0.00    -0.025 C 
ATOM     24  C   UNL     1      37.548 -22.096 -16.160  0.00  0.00    -0.023 C 
ATOM     25  H   UNL     1      35.805 -23.988 -16.554  0.00  0.00    -0.080 HD
ENDBRANCH  18  19
ENDBRANCH  17  18
ENDBRANCH  16  17
ENDBRANCH  15  16
ENDBRANCH   1  15
TORSDOF 6
ENDMDL
MODEL 2
REMARK VINA RESULT:     -10.1      1.107      1.726
REMARK  Name = 25070031
REMARK  6 active torsions:
REMARK  status: ('A' for Active; 'I' for Inactive)
REMARK    1  A    between atoms: C_1  and  O_15
REMARK    2  A    between atoms: C_4  and  C_10
REMARK    3  A    between atoms: O_15  and  C_16
REMARK    4  A    between atoms: C_16  and  C_17
REMARK    5  A    between atoms: C_17  and  C_18
REMARK    6  A    between atoms: C_18  and  N_19
REMARK                            x       y       z     vdW  Elec       q    Type
REMARK                         _______ _______ _______ _____ _____    ______ ____
ROOT
ATOM      1  C   UNL     1      34.404 -22.287 -19.064  0.00  0.00    +0.139 C 
ATOM      2  C   UNL     1      35.677 -21.822 -19.391  0.00  0.00    +0.037 C 
ATOM      3  C   UNL     1      33.275 -21.601 -19.514  0.00  0.00    +0.037 C 
ATOM      4  C   UNL     1      34.694 -19.989 -20.620  0.00  0.00    +0.019 C 
ATOM      5  C   UNL     1      35.823 -20.674 -20.170  0.00  0.00    +0.005 C 
ATOM      6  C   UNL     1      33.420 -20.453 -20.292  0.00  0.00    +0.005 C 
ENDROOT
BRANCH   4  10
ATOM      7  O   UNL     1      35.238 -15.520 -23.703  0.00  0.00    -0.268 OA
ATOM      8  N   UNL     1      34.923 -17.613 -20.856  0.00  0.00    -0.179 NA
ATOM      9  N   UNL     1      35.059 -16.518 -21.642  0.00  0.00    -0.202 N 
ATOM     10  C   UNL     1      34.850 -18.764 -21.448  0.00  0.00    +0.099 C 
ATOM     11  C   UNL     1      34.927 -18.956 -22.913  0.00  0.00    +0.025 C 
ATOM     12  C   UNL     1      35.058 -17.859 -23.658  0.00  0.00    +0.061 C 
ATOM     13  C   UNL     1      35.125 -16.532 -23.015  0.00  0.00    +0.265 C 
ATOM     14  H   UNL     1      35.114 -15.644 -21.194  0.00  0.00    +0.178 HD
ENDBRANCH   4  10
BRANCH   1  15
ATOM     15  O   UNL     1      34.261 -23.413 -18.297  0.00  0.00    -0.476 OA
BRANCH  15  16
ATOM     16  C   UNL     1      33.682 -23.244 -17.010  0.00  0.00    +0.203 C 
BRANCH  16  17
ATOM     17  C   UNL     1      34.795 -23.208 -15.971  0.00  0.00    +0.025 C 
BRANCH  17  18
ATOM     18  C   UNL     1      34.681 -24.369 -14.989  0.00  0.00    -0.073 C 
BRANCH  18  19
ATOM     19  N   UNL     1      36.004 -24.772 -14.527  0.00  0.00    +0.388 N 
ATOM     20  C   UNL     1      36.090 -24.920 -13.067  0.00  0.00    -0.058 C 
ATOM     21  C   UNL     1      37.377 -25.729 -12.885  0.00  0.00    -0.023 C 
ATOM     22  C   UNL     1      36.382 -26.082 -15.061  0.00  0.00    -0.077 C 
ATOM     23  C   UNL     1      37.566 -26.484 -14.196  0.00  0.00    -0.025 C 
ATOM     24  C   UNL     1      36.151 -23.590 -12.327  0.00  0.00    -0.023 C 
ATOM     25  H   UNL     1      36.617 -24.025 -14.850  0.00  0.00    -0.080 HD
ENDBRANCH  18  19
ENDBRANCH  17  18
ENDBRANCH  16  17
ENDBRANCH  15  16
ENDBRANCH   1  15
TORSDOF 6
ENDMDL
MODEL 3
REMARK VINA RESULT:      -9.9      2.529      3.797
REMARK  Name = 25070031
REMARK  6 active torsions:
REMARK  status: ('A' for Active; 'I' for Inactive)
REMARK    1  A    between atoms: C_1  and  O_15
REMARK    2  A    between atoms: C_4  and  C_10
REMARK    3  A    between atoms: O_15  and  C_16
REMARK    4  A    between atoms: C_16  and  C_17
REMARK    5  A    between atoms: C_17  and  C_18
REMARK    6  A    between atoms: C_18  and  N_19
REMARK                            x       y       z     vdW  Elec       q    Type
REMARK                         _______ _______ _______ _____ _____    ______ ____
ROOT
ATOM      1  C   UNL     1      34.702 -21.753 -19.048  0.00  0.00    +0.139 C 
ATOM      2  C   UNL     1      33.503 -21.303 -19.601  0.00  0.00    +0.037 C 
ATOM      3  C   UNL     1      35.916 -21.247 -19.513  0.00  0.00    +0.037 C 
ATOM      4  C   UNL     1      34.731 -19.842 -21.080  0.00  0.00    +0.019 C 
ATOM      5  C   UNL     1      33.517 -20.347 -20.617  0.00  0.00    +0.005 C 
ATOM      6  C   UNL     1      35.931 -20.292 -20.529  0.00  0.00    +0.005 C 
ENDROOT
BRANCH   4  10
ATOM      7  O   UNL     1      34.758 -16.144 -25.093  0.00  0.00    -0.268 OA
ATOM      8  N   UNL     1      34.819 -17.570 -21.845  0.00  0.00    -0.179 NA
ATOM      9  N   UNL     1      34.826 -16.671 -22.858  0.00  0.00    -0.202 N 
ATOM     10  C   UNL     1      34.746 -18.824 -22.165  0.00  0.00    +0.099 C 
ATOM     11  C   UNL     1      34.693 -19.330 -23.554  0.00  0.00    +0.025 C 
ATOM     12  C   UNL     1      34.698 -18.420 -24.527  0.00  0.00    +0.061 C 
ATOM     13  C   UNL     1      34.761 -16.983 -24.195  0.00  0.00    +0.265 C 
ATOM     14  H   UNL     1      34.881 -15.718 -22.617  0.00  0.00    +0.178 HD
ENDBRANCH   4  10
BRANCH   1  15
ATOM     15  O   UNL     1      34.688 -22.693 -18.052  0.00  0.00    -0.476 OA
BRANCH  15  16
ATOM     16  C   UNL     1      33.503 -23.466 -17.917  0.00  0.00    +0.203 C 
BRANCH  16  17
ATOM     17  C   UNL     1      32.889 -23.192 -16.550  0.00  0.00    +0.025 C 
BRANCH  17  18
ATOM     18  C   UNL     1      31.398 -22.888 -16.657  0.00  0.00    -0.073 C 
BRANCH  18  19
ATOM     19  N   UNL     1      30.682 -23.470 -15.528  0.00  0.00    +0.388 N 
ATOM     20  C   UNL     1      29.657 -24.445 -15.929  0.00  0.00    -0.058 C 
ATOM     21  C   UNL     1      29.372 -25.191 -14.624  0.00  0.00    -0.023 C 
ATOM     22  C   UNL     1      31.584 -24.214 -14.646  0.00  0.00    -0.077 C 
ATOM     23  C   UNL     1      30.635 -25.032 -13.785  0.00  0.00    -0.025 C 
ATOM     24  C   UNL     1      28.399 -23.799 -16.496  0.00  0.00    -0.023 C 
ATOM     25  H   UNL     1      30.255 -22.668 -15.065  0.00  0.00    -0.080 HD
ENDBRANCH  18  19
ENDBRANCH  17  18
ENDBRANCH  16  17
ENDBRANCH  15  16
ENDBRANCH   1  15
TORSDOF 6
ENDMDL
MODEL 4
REMARK VINA RESULT:      -9.8      4.894     10.703
REMARK  Name = 25070031
REMARK  6 active torsions:
REMARK  status: ('A' for Active; 'I' for Inactive)
REMARK    1  A    between atoms: C_1  and  O_15
REMARK    2  A    between atoms: C_4  and  C_10
REMARK    3  A    between atoms: O_15  and  C_16
REMARK    4  A    between atoms: C_16  and  C_17
REMARK    5  A    between atoms: C_17  and  C_18
REMARK    6  A    between atoms: C_18  and  N_19
REMARK                            x       y       z     vdW  Elec       q    Type
REMARK                         _______ _______ _______ _____ _____    ______ ____
ROOT
ATOM      1  C   UNL     1      34.434 -14.838 -22.831  0.00  0.00    +0.139 C 
ATOM      2  C   UNL     1      34.140 -15.009 -21.478  0.00  0.00    +0.037 C 
ATOM      3  C   UNL     1      34.916 -15.912 -23.580  0.00  0.00    +0.037 C 
ATOM      4  C   UNL     1      34.807 -17.325 -21.624  0.00  0.00    +0.019 C 
ATOM      5  C   UNL     1      34.326 -16.253 -20.875  0.00  0.00    +0.005 C 
ATOM      6  C   UNL     1      35.103 -17.155 -22.977  0.00  0.00    +0.005 C 
ENDROOT
BRANCH   4  10
ATOM      7  O   UNL     1      35.494 -22.211 -19.291  0.00  0.00    -0.268 OA
ATOM      8  N   UNL     1      36.196 -18.983 -20.585  0.00  0.00    -0.179 NA
ATOM      9  N   UNL     1      36.341 -20.200 -20.008  0.00  0.00    -0.202 N 
ATOM     10  C   UNL     1      35.006 -18.651 -20.980  0.00  0.00    +0.099 C 
ATOM     11  C   UNL     1      33.807 -19.502 -20.822  0.00  0.00    +0.025 C 
ATOM     12  C   UNL     1      33.983 -20.694 -20.252  0.00  0.00    +0.061 C 
ATOM     13  C   UNL     1      35.330 -21.108 -19.809  0.00  0.00    +0.265 C 
ATOM     14  H   UNL     1      37.244 -20.453 -19.708  0.00  0.00    +0.178 HD
ENDBRANCH   4  10
BRANCH   1  15
ATOM     15  O   UNL     1      34.254 -13.615 -23.423  0.00  0.00    -0.476 OA
BRANCH  15  16
ATOM     16  C   UNL     1      32.913 -13.182 -23.602  0.00  0.00    +0.203 C 
BRANCH  16  17
ATOM     17  C   UNL     1      32.777 -11.765 -23.063  0.00  0.00    +0.025 C 
BRANCH  17  18
ATOM     18  C   UNL     1      31.671 -11.668 -22.016  0.00  0.00    -0.073 C 
BRANCH  18  19
ATOM     19  N   UNL     1      31.537 -10.294 -21.548  0.00  0.00    +0.388 N 
ATOM     20  C   UNL     1      32.016 -10.098 -20.172  0.00  0.00    -0.058 C 
ATOM     21  C   UNL     1      32.168  -8.578 -20.080  0.00  0.00    -0.023 C 
ATOM     22  C   UNL     1      32.334  -9.371 -22.359  0.00  0.00    -0.077 C 
ATOM     23  C   UNL     1      32.370  -8.106 -21.516  0.00  0.00    -0.025 C 
ATOM     24  C   UNL     1      31.057 -10.635 -19.117  0.00  0.00    -0.023 C 
ATOM     25  H   UNL     1      30.537 -10.107 -21.611  0.00  0.00    -0.080 HD
ENDBRANCH  18  19
ENDBRANCH  17  18
ENDBRANCH  16  17
ENDBRANCH  15  16
ENDBRANCH   1  15
TORSDOF 6
ENDMDL
MODEL 5
REMARK VINA RESULT:      -9.7      3.110      9.510
REMARK  Name = 25070031
REMARK  6 active torsions:
REMARK  status: ('A' for Active; 'I' for Inactive)
REMARK    1  A    between atoms: C_1  and  O_15
REMARK    2  A    between atoms: C_4  and  C_10
REMARK    3  A    between atoms: O_15  and  C_16
REMARK    4  A    between atoms: C_16  and  C_17
REMARK    5  A    between atoms: C_17  and  C_18
REMARK    6  A    between atoms: C_18  and  N_19
REMARK                            x       y       z     vdW  Elec       q    Type
REMARK                         _______ _______ _______ _____ _____    ______ ____
ROOT
ATOM      1  C   UNL     1      34.970 -17.107 -23.229  0.00  0.00    +0.139 C 
ATOM      2  C   UNL     1      34.682 -18.379 -23.723  0.00  0.00    +0.037 C 
ATOM      3  C   UNL     1      35.058 -16.897 -21.852  0.00  0.00    +0.037 C 
ATOM      4  C   UNL     1      34.569 -19.231 -21.465  0.00  0.00    +0.019 C 
ATOM      5  C   UNL     1      34.481 -19.441 -22.841  0.00  0.00    +0.005 C 
ATOM      6  C   UNL     1      34.857 -17.959 -20.970  0.00  0.00    +0.005 C 
ENDROOT
BRANCH   4  10
ATOM      7  O   UNL     1      33.828 -23.371 -17.988  0.00  0.00    -0.268 OA
ATOM      8  N   UNL     1      33.146 -20.789 -20.324  0.00  0.00    -0.179 NA
ATOM      9  N   UNL     1      32.988 -21.819 -19.458  0.00  0.00    -0.202 N 
ATOM     10  C   UNL     1      34.354 -20.363 -20.525  0.00  0.00    +0.099 C 
ATOM     11  C   UNL     1      35.560 -20.940 -19.891  0.00  0.00    +0.025 C 
ATOM     12  C   UNL     1      35.369 -21.950 -19.042  0.00  0.00    +0.061 C 
ATOM     13  C   UNL     1      34.004 -22.445 -18.777  0.00  0.00    +0.265 C 
ATOM     14  H   UNL     1      32.071 -22.143 -19.303  0.00  0.00    +0.178 HD
ENDBRANCH   4  10
BRANCH   1  15
ATOM     15  O   UNL     1      35.165 -16.063 -24.095  0.00  0.00    -0.476 OA
BRANCH  15  16
ATOM     16  C   UNL     1      34.256 -15.955 -25.182  0.00  0.00    +0.203 C 
BRANCH  16  17
ATOM     17  C   UNL     1      33.272 -14.830 -24.892  0.00  0.00    +0.025 C 
BRANCH  17  18
ATOM     18  C   UNL     1      33.804 -13.882 -23.822  0.00  0.00    -0.073 C 
BRANCH  18  19
ATOM     19  N   UNL     1      32.701 -13.306 -23.063  0.00  0.00    +0.388 N 
ATOM     20  C   UNL     1      32.768 -13.600 -21.624  0.00  0.00    -0.058 C 
ATOM     21  C   UNL     1      31.802 -12.576 -21.025  0.00  0.00    -0.023 C 
ATOM     22  C   UNL     1      32.699 -11.843 -23.148  0.00  0.00    -0.077 C 
ATOM     23  C   UNL     1      31.756 -11.430 -22.029  0.00  0.00    -0.025 C 
ATOM     24  C   UNL     1      32.362 -15.028 -21.281  0.00  0.00    -0.023 C 
ATOM     25  H   UNL     1      31.869 -13.723 -23.478  0.00  0.00    -0.080 HD
ENDBRANCH  18  19
ENDBRANCH  17  18
ENDBRANCH  16  17
ENDBRANCH  15  16
ENDBRANCH   1  15
TORSDOF 6
ENDMDL
MODEL 6
REMARK VINA RESULT:      -9.7      4.938     11.336
REMARK  Name = 25070031
REMARK  6 active torsions:
REMARK  status: ('A' for Active; 'I' for Inactive)
REMARK    1  A    between atoms: C_1  and  O_15
REMARK    2  A    between atoms: C_4  and  C_10
REMARK    3  A    between atoms: O_15  and  C_16
REMARK    4  A    between atoms: C_16  and  C_17
REMARK    5  A    between atoms: C_17  and  C_18
REMARK    6  A    between atoms: C_18  and  N_19
REMARK                            x       y       z     vdW  Elec       q    Type
REMARK                         _______ _______ _______ _____ _____    ______ ____
ROOT
ATOM      1  C   UNL     1      34.531 -15.289 -23.097  0.00  0.00    +0.139 C 
ATOM      2  C   UNL     1      34.858 -16.465 -23.772  0.00  0.00    +0.037 C 
ATOM      3  C   UNL     1      34.371 -15.303 -21.711  0.00  0.00    +0.037 C 
ATOM      4  C   UNL     1      34.865 -17.668 -21.677  0.00  0.00    +0.019 C 
ATOM      5  C   UNL     1      35.025 -17.654 -23.062  0.00  0.00    +0.005 C 
ATOM      6  C   UNL     1      34.537 -16.492 -21.001  0.00  0.00    +0.005 C 
ENDROOT
BRANCH   4  10
ATOM      7  O   UNL     1      35.469 -22.344 -18.931  0.00  0.00    -0.268 OA
ATOM      8  N   UNL     1      36.216 -19.230 -20.457  0.00  0.00    -0.179 NA
ATOM      9  N   UNL     1      36.341 -20.395 -19.778  0.00  0.00    -0.202 N 
ATOM     10  C   UNL     1      35.041 -18.936 -20.921  0.00  0.00    +0.099 C 
ATOM     11  C   UNL     1      33.837 -19.775 -20.737  0.00  0.00    +0.025 C 
ATOM     12  C   UNL     1      33.994 -20.916 -20.067  0.00  0.00    +0.061 C 
ATOM     13  C   UNL     1      35.323 -21.288 -19.543  0.00  0.00    +0.265 C 
ATOM     14  H   UNL     1      37.232 -20.620 -19.425  0.00  0.00    +0.178 HD
ENDBRANCH   4  10
BRANCH   1  15
ATOM     15  O   UNL     1      34.364 -14.122 -23.795  0.00  0.00    -0.476 OA
BRANCH  15  16
ATOM     16  C   UNL     1      33.351 -13.239 -23.333  0.00  0.00    +0.203 C 
BRANCH  16  17
ATOM     17  C   UNL     1      33.662 -11.832 -23.826  0.00  0.00    +0.025 C 
BRANCH  17  18
ATOM     18  C   UNL     1      32.656 -10.817 -23.292  0.00  0.00    -0.073 C 
BRANCH  18  19
ATOM     19  N   UNL     1      33.098  -9.461 -23.594  0.00  0.00    +0.388 N 
ATOM     20  C   UNL     1      33.062  -8.564 -22.430  0.00  0.00    -0.058 C 
ATOM     21  C   UNL     1      33.938  -7.393 -22.879  0.00  0.00    -0.023 C 
ATOM     22  C   UNL     1      34.491  -9.438 -24.044  0.00  0.00    -0.077 C 
ATOM     23  C   UNL     1      34.869  -7.970 -23.940  0.00  0.00    -0.025 C 
ATOM     24  C   UNL     1      31.656  -8.109 -22.061  0.00  0.00    -0.023 C 
ATOM     25  H   UNL     1      32.449  -9.143 -24.314  0.00  0.00    -0.080 HD
ENDBRANCH  18  19
ENDBRANCH  17  18
ENDBRANCH  16  17
ENDBRANCH  15  16
ENDBRANCH   1  15
TORSDOF 6
ENDMDL
MODEL 7
REMARK VINA RESULT:      -9.7      3.817     10.342
REMARK  Name = 25070031
REMARK  6 active torsions:
REMARK  status: ('A' for Active; 'I' for Inactive)
REMARK    1  A    between atoms: C_1  and  O_15
REMARK    2  A    between atoms: C_4  and  C_10
REMARK    3  A    between atoms: O_15  and  C_16
REMARK    4  A    between atoms: C_16  and  C_17
REMARK    5  A    between atoms: C_17  and  C_18
REMARK    6  A    between atoms: C_18  and  N_19
REMARK                            x       y       z     vdW  Elec       q    Type
REMARK                         _______ _______ _______ _____ _____    ______ ____
ROOT
ATOM      1  C   UNL     1      34.698 -16.815 -23.120  0.00  0.00    +0.139 C 
ATOM      2  C   UNL     1      34.362 -16.653 -21.776  0.00  0.00    +0.037 C 
ATOM      3  C   UNL     1      34.872 -18.095 -23.646  0.00  0.00    +0.037 C 
ATOM      4  C   UNL     1      34.371 -19.051 -21.484  0.00  0.00    +0.019 C 
ATOM      5  C   UNL     1      34.198 -17.771 -20.958  0.00  0.00    +0.005 C 
ATOM      6  C   UNL     1      34.709 -19.213 -22.828  0.00  0.00    +0.005 C 
ENDROOT
BRANCH   4  10
ATOM      7  O   UNL     1      33.785 -23.411 -18.255  0.00  0.00    -0.268 OA
ATOM      8  N   UNL     1      33.001 -20.686 -20.388  0.00  0.00    -0.179 NA
ATOM      9  N   UNL     1      32.881 -21.771 -19.585  0.00  0.00    -0.202 N 
ATOM     10  C   UNL     1      34.198 -20.242 -20.611  0.00  0.00    +0.099 C 
ATOM     11  C   UNL     1      35.430 -20.853 -20.066  0.00  0.00    +0.025 C 
ATOM     12  C   UNL     1      35.278 -21.916 -19.277  0.00  0.00    +0.061 C 
ATOM     13  C   UNL     1      33.926 -22.434 -18.989  0.00  0.00    +0.265 C 
ATOM     14  H   UNL     1      31.972 -22.109 -19.414  0.00  0.00    +0.178 HD
ENDBRANCH   4  10
BRANCH   1  15
ATOM     15  O   UNL     1      34.862 -15.716 -23.923  0.00  0.00    -0.476 OA
BRANCH  15  16
ATOM     16  C   UNL     1      33.747 -15.330 -24.715  0.00  0.00    +0.203 C 
BRANCH  16  17
ATOM     17  C   UNL     1      33.045 -14.159 -24.040  0.00  0.00    +0.025 C 
BRANCH  17  18
ATOM     18  C   UNL     1      33.728 -12.834 -24.366  0.00  0.00    -0.073 C 
BRANCH  18  19
ATOM     19  N   UNL     1      33.404 -11.836 -23.354  0.00  0.00    +0.388 N 
ATOM     20  C   UNL     1      33.269 -10.477 -23.900  0.00  0.00    -0.058 C 
ATOM     21  C   UNL     1      32.536  -9.735 -22.780  0.00  0.00    -0.023 C 
ATOM     22  C   UNL     1      32.114 -12.115 -22.719  0.00  0.00    -0.077 C 
ATOM     23  C   UNL     1      31.786 -10.814 -22.006  0.00  0.00    -0.025 C 
ATOM     24  C   UNL     1      34.605  -9.824 -24.230  0.00  0.00    -0.023 C 
ATOM     25  H   UNL     1      34.183 -11.886 -22.699  0.00  0.00    -0.080 HD
ENDBRANCH  18  19
ENDBRANCH  17  18
ENDBRANCH  16  17
ENDBRANCH  15  16
ENDBRANCH   1  15
TORSDOF 6
ENDMDL
MODEL 8
REMARK VINA RESULT:      -9.6      2.499      8.760
REMARK  Name = 25070031
REMARK  6 active torsions:
REMARK  status: ('A' for Active; 'I' for Inactive)
REMARK    1  A    between atoms: C_1  and  O_15
REMARK    2  A    between atoms: C_4  and  C_10
REMARK    3  A    between atoms: O_15  and  C_16
REMARK    4  A    between atoms: C_16  and  C_17
REMARK    5  A    between atoms: C_17  and  C_18
REMARK    6  A    between atoms: C_18  and  N_19
REMARK                            x       y       z     vdW  Elec       q    Type
REMARK                         _______ _______ _______ _____ _____    ______ ____
ROOT
ATOM      1  C   UNL     1      34.919 -19.627 -21.591  0.00  0.00    +0.139 C 
ATOM      2  C   UNL     1      35.774 -20.392 -20.799  0.00  0.00    +0.037 C 
ATOM      3  C   UNL     1      33.545 -19.637 -21.345  0.00  0.00    +0.037 C 
ATOM      4  C   UNL     1      33.886 -21.175 -19.513  0.00  0.00    +0.019 C 
ATOM      5  C   UNL     1      35.258 -21.165 -19.759  0.00  0.00    +0.005 C 
ATOM      6  C   UNL     1      33.029 -20.411 -20.306  0.00  0.00    +0.005 C 
ENDROOT
BRANCH   4  10
ATOM      7  O   UNL     1      31.916 -24.199 -15.420  0.00  0.00    -0.268 OA
ATOM      8  N   UNL     1      32.052 -22.033 -18.226  0.00  0.00    -0.179 NA
ATOM      9  N   UNL     1      31.587 -22.792 -17.205  0.00  0.00    -0.202 N 
ATOM     10  C   UNL     1      33.336 -22.000 -18.405  0.00  0.00    +0.099 C 
ATOM     11  C   UNL     1      34.312 -22.750 -17.585  0.00  0.00    +0.025 C 
ATOM     12  C   UNL     1      33.823 -23.485 -16.586  0.00  0.00    +0.061 C 
ATOM     13  C   UNL     1      32.366 -23.527 -16.345  0.00  0.00    +0.265 C 
ATOM     14  H   UNL     1      30.612 -22.817 -17.068  0.00  0.00    +0.178 HD
ENDBRANCH   4  10
BRANCH   1  15
ATOM     15  O   UNL     1      35.426 -18.869 -22.614  0.00  0.00    -0.476 OA
BRANCH  15  16
ATOM     16  C   UNL     1      34.814 -19.021 -23.888  0.00  0.00    +0.203 C 
BRANCH  16  17
ATOM     17  C   UNL     1      34.704 -17.653 -24.547  0.00  0.00    +0.025 C 
BRANCH  17  18
ATOM     18  C   UNL     1      35.200 -16.545 -23.624  0.00  0.00    -0.073 C 
BRANCH  18  19
ATOM     19  N   UNL     1      34.073 -15.876 -22.985  0.00  0.00    +0.388 N 
ATOM     20  C   UNL     1      34.439 -15.169 -21.750  0.00  0.00    -0.058 C 
ATOM     21  C   UNL     1      33.245 -14.239 -21.526  0.00  0.00    -0.023 C 
ATOM     22  C   UNL     1      33.500 -14.844 -23.853  0.00  0.00    -0.077 C 
ATOM     23  C   UNL     1      32.630 -14.034 -22.906  0.00  0.00    -0.025 C 
ATOM     24  C   UNL     1      34.659 -16.101 -20.564  0.00  0.00    -0.023 C 
ATOM     25  H   UNL     1      33.416 -16.631 -22.788  0.00  0.00    -0.080 HD
ENDBRANCH  18  19
ENDBRANCH  17  18
ENDBRANCH  16  17
ENDBRANCH  15  16
ENDBRANCH   1  15
TORSDOF 6
ENDMDL
MODEL 9
REMARK VINA RESULT:      -9.5      5.068     11.261
REMARK  Name = 25070031
REMARK  6 active torsions:
REMARK  status: ('A' for Active; 'I' for Inactive)
REMARK    1  A    between atoms: C_1  and  O_15
REMARK    2  A    between atoms: C_4  and  C_10
REMARK    3  A    between atoms: O_15  and  C_16
REMARK    4  A    between atoms: C_16  and  C_17
REMARK    5  A    between atoms: C_17  and  C_18
REMARK    6  A    between atoms: C_18  and  N_19
REMARK                            x       y       z     vdW  Elec       q    Type
REMARK                         _______ _______ _______ _____ _____    ______ ____
ROOT
ATOM      1  C   UNL     1      33.943 -14.954 -23.365  0.00  0.00    +0.139 C 
ATOM      2  C   UNL     1      33.405 -15.150 -22.094  0.00  0.00    +0.037 C 
ATOM      3  C   UNL     1      34.777 -15.922 -23.926  0.00  0.00    +0.037 C 
ATOM      4  C   UNL     1      34.531 -17.281 -21.945  0.00  0.00    +0.019 C 
ATOM      5  C   UNL     1      33.699 -16.314 -21.383  0.00  0.00    +0.005 C 
ATOM      6  C   UNL     1      35.071 -17.086 -23.216  0.00  0.00    +0.005 C 
ENDROOT
BRANCH   4  10
ATOM      7  O   UNL     1      35.641 -21.860 -19.191  0.00  0.00    -0.268 OA
ATOM      8  N   UNL     1      36.055 -18.704 -20.757  0.00  0.00    -0.179 NA
ATOM      9  N   UNL     1      36.306 -19.847 -20.075  0.00  0.00    -0.202 N 
ATOM     10  C   UNL     1      34.845 -18.522 -21.187  0.00  0.00    +0.099 C 
ATOM     11  C   UNL     1      33.728 -19.465 -20.962  0.00  0.00    +0.025 C 
ATOM     12  C   UNL     1      34.008 -20.582 -20.290  0.00  0.00    +0.061 C 
ATOM     13  C   UNL     1      35.381 -20.827 -19.804  0.00  0.00    +0.265 C 
ATOM     14  H   UNL     1      37.224 -19.987 -19.748  0.00  0.00    +0.178 HD
ENDBRANCH   4  10
BRANCH   1  15
ATOM     15  O   UNL     1      33.657 -13.809 -24.062  0.00  0.00    -0.476 OA
BRANCH  15  16
ATOM     16  C   UNL     1      33.404 -12.639 -23.295  0.00  0.00    +0.203 C 
BRANCH  16  17
ATOM     17  C   UNL     1      33.860 -11.422 -24.089  0.00  0.00    +0.025 C 
BRANCH  17  18
ATOM     18  C   UNL     1      32.870 -10.269 -23.964  0.00  0.00    -0.073 C 
BRANCH  18  19
ATOM     19  N   UNL     1      33.081  -9.554 -22.711  0.00  0.00    +0.388 N 
ATOM     20  C   UNL     1      33.258  -8.106 -22.889  0.00  0.00    -0.058 C 
ATOM     21  C   UNL     1      33.032  -7.562 -21.476  0.00  0.00    -0.023 C 
ATOM     22  C   UNL     1      31.927  -9.686 -21.819  0.00  0.00    -0.077 C 
ATOM     23  C   UNL     1      32.164  -8.604 -20.778  0.00  0.00    -0.025 C 
ATOM     24  C   UNL     1      34.632  -7.727 -23.427  0.00  0.00    -0.023 C 
ATOM     25  H   UNL     1      33.924  -9.976 -22.324  0.00  0.00    -0.080 HD
ENDBRANCH  18  19
ENDBRANCH  17  18
ENDBRANCH  16  17
ENDBRANCH  15  16
ENDBRANCH   1  15
TORSDOF 6
ENDMDL
