MODEL 1
REMARK VINA RESULT:      -7.6      0.000      0.000
REMARK  Name = 6916249
REMARK  4 active torsions:
REMARK  status: ('A' for Active; 'I' for Inactive)
REMARK    1  A    between atoms: N_1  and  C_23
REMARK    2  A    between atoms: C_3  and  O_19
REMARK    3  A    between atoms: C_16  and  O_21
REMARK    4  A    between atoms: C_23  and  C_24
REMARK                            x       y       z     vdW  Elec       q    Type
REMARK                         _______ _______ _______ _____ _____    ______ ____
ROOT
ATOM      1  N   UNL     1      31.647  -6.295 -23.447  0.00  0.00    +0.390 N 
ATOM      2  C   UNL     1      32.909  -8.927 -23.135  0.00  0.00    +0.037 C 
ATOM      3  C   UNL     1      33.725  -7.596 -23.095  0.00  0.00    +0.075 C 
ATOM      4  C   UNL     1      32.800  -6.484 -22.544  0.00  0.00    -0.028 C 
ATOM      5  C   UNL     1      31.635  -8.718 -24.007  0.00  0.00    -0.017 C 
ATOM      6  C   UNL     1      33.798 -10.049 -23.746  0.00  0.00    +0.006 C 
ATOM      7  C   UNL     1      34.327  -7.231 -24.471  0.00  0.00    +0.025 C 
ATOM      8  C   UNL     1      32.421  -9.278 -21.711  0.00  0.00    -0.022 C 
ATOM      9  C   UNL     1      30.811  -7.487 -23.598  0.00  0.00    -0.077 C 
ATOM     10  C   UNL     1      32.451  -6.796 -21.069  0.00  0.00    +0.008 C 
ATOM     11  C   UNL     1      34.458  -9.678 -25.078  0.00  0.00    +0.000 C 
ATOM     12  C   UNL     1      35.207  -8.355 -25.016  0.00  0.00    +0.002 C 
ATOM     13  C   UNL     1      32.190  -8.255 -20.763  0.00  0.00    -0.028 C 
ATOM     14  C   UNL     1      32.132 -10.605 -21.339  0.00  0.00    +0.032 C 
ATOM     15  C   UNL     1      31.725  -8.580 -19.477  0.00  0.00    -0.002 C 
ATOM     16  C   UNL     1      31.665 -10.913 -20.059  0.00  0.00    +0.133 C 
ATOM     17  C   UNL     1      31.467  -9.903 -19.127  0.00  0.00    +0.036 C 
ATOM     18  H   UNL     1      32.073  -6.126 -24.358  0.00  0.00    -0.080 HD
ENDROOT
BRANCH   3  19
ATOM     19  O   UNL     1      34.844  -7.762 -22.205  0.00  0.00    -0.388 OA
ATOM     20  H   UNL     1      34.528  -7.780 -21.288  0.00  0.00    +0.210 HD
ENDBRANCH   3  19
BRANCH  16  21
ATOM     21  O   UNL     1      31.400 -12.206 -19.727  0.00  0.00    -0.506 OA
ATOM     22  H   UNL     1      30.591 -12.425 -19.307  0.00  0.00    +0.292 HD
ENDBRANCH  16  21
BRANCH   1  23
ATOM     23  C   UNL     1      30.844  -5.119 -23.129  0.00  0.00    -0.077 C 
BRANCH  23  24
ATOM     24  C   UNL     1      30.847  -4.138 -24.257  0.00  0.00    -0.021 C 
ATOM     25  C   UNL     1      31.859  -4.443 -25.381  0.00  0.00    -0.002 C 
ATOM     26  C   UNL     1      31.649  -2.847 -23.989  0.00  0.00    -0.002 C 
ATOM     27  C   UNL     1      32.113  -2.923 -25.459  0.00  0.00    -0.000 C 
ENDBRANCH  23  24
ENDBRANCH   1  23
TORSDOF 4
ENDMDL
MODEL 2
REMARK VINA RESULT:      -7.4     15.636     18.811
REMARK  Name = 6916249
REMARK  4 active torsions:
REMARK  status: ('A' for Active; 'I' for Inactive)
REMARK    1  A    between atoms: N_1  and  C_23
REMARK    2  A    between atoms: C_3  and  O_19
REMARK    3  A    between atoms: C_16  and  O_21
REMARK    4  A    between atoms: C_23  and  C_24
REMARK                            x       y       z     vdW  Elec       q    Type
REMARK                         _______ _______ _______ _____ _____    ______ ____
ROOT
ATOM      1  N   UNL     1      34.219 -24.769 -13.628  0.00  0.00    +0.390 N 
ATOM      2  C   UNL     1      36.927 -23.869 -14.316  0.00  0.00    +0.037 C 
ATOM      3  C   UNL     1      36.462 -25.349 -14.506  0.00  0.00    +0.075 C 
ATOM      4  C   UNL     1      34.940 -25.339 -14.785  0.00  0.00    -0.028 C 
ATOM      5  C   UNL     1      36.108 -23.221 -13.161  0.00  0.00    -0.017 C 
ATOM      6  C   UNL     1      38.445 -23.855 -13.971  0.00  0.00    +0.006 C 
ATOM      7  C   UNL     1      36.832 -26.242 -13.300  0.00  0.00    +0.025 C 
ATOM      8  C   UNL     1      36.611 -23.060 -15.595  0.00  0.00    -0.022 C 
ATOM      9  C   UNL     1      34.589 -23.386 -13.322  0.00  0.00    -0.077 C 
ATOM     10  C   UNL     1      34.675 -24.649 -16.144  0.00  0.00    +0.008 C 
ATOM     11  C   UNL     1      38.841 -24.788 -12.822  0.00  0.00    +0.000 C 
ATOM     12  C   UNL     1      38.333 -26.210 -13.016  0.00  0.00    +0.002 C 
ATOM     13  C   UNL     1      35.530 -23.433 -16.427  0.00  0.00    -0.028 C 
ATOM     14  C   UNL     1      37.339 -21.903 -15.931  0.00  0.00    +0.032 C 
ATOM     15  C   UNL     1      35.236 -22.679 -17.576  0.00  0.00    -0.002 C 
ATOM     16  C   UNL     1      37.032 -21.160 -17.073  0.00  0.00    +0.133 C 
ATOM     17  C   UNL     1      35.985 -21.550 -17.898  0.00  0.00    +0.036 C 
ATOM     18  H   UNL     1      34.536 -25.332 -12.839  0.00  0.00    -0.080 HD
ENDROOT
BRANCH   3  19
ATOM     19  O   UNL     1      37.146 -25.911 -15.640  0.00  0.00    -0.388 OA
ATOM     20  H   UNL     1      37.871 -25.324 -15.904  0.00  0.00    +0.210 HD
ENDBRANCH   3  19
BRANCH  16  21
ATOM     21  O   UNL     1      37.757 -20.048 -17.375  0.00  0.00    -0.506 OA
ATOM     22  H   UNL     1      38.044 -19.901 -18.255  0.00  0.00    +0.292 HD
ENDBRANCH  16  21
BRANCH   1  23
ATOM     23  C   UNL     1      32.771 -24.928 -13.708  0.00  0.00    -0.077 C 
BRANCH  23  24
ATOM     24  C   UNL     1      32.096 -23.623 -13.984  0.00  0.00    -0.021 C 
ATOM     25  C   UNL     1      30.622 -23.547 -13.537  0.00  0.00    -0.002 C 
ATOM     26  C   UNL     1      31.587 -23.451 -15.430  0.00  0.00    -0.002 C 
ATOM     27  C   UNL     1      30.351 -22.750 -14.830  0.00  0.00    -0.000 C 
ENDBRANCH  23  24
ENDBRANCH   1  23
TORSDOF 4
ENDMDL
MODEL 3
REMARK VINA RESULT:      -6.9      2.213      6.475
REMARK  Name = 6916249
REMARK  4 active torsions:
REMARK  status: ('A' for Active; 'I' for Inactive)
REMARK    1  A    between atoms: N_1  and  C_23
REMARK    2  A    between atoms: C_3  and  O_19
REMARK    3  A    between atoms: C_16  and  O_21
REMARK    4  A    between atoms: C_23  and  C_24
REMARK                            x       y       z     vdW  Elec       q    Type
REMARK                         _______ _______ _______ _____ _____    ______ ____
ROOT
ATOM      1  N   UNL     1      32.765  -9.737 -23.560  0.00  0.00    +0.390 N 
ATOM      2  C   UNL     1      32.259  -6.912 -22.947  0.00  0.00    +0.037 C 
ATOM      3  C   UNL     1      33.318  -7.760 -22.173  0.00  0.00    +0.075 C 
ATOM      4  C   UNL     1      33.861  -8.842 -23.138  0.00  0.00    -0.028 C 
ATOM      5  C   UNL     1      31.142  -7.855 -23.483  0.00  0.00    -0.017 C 
ATOM      6  C   UNL     1      31.649  -5.856 -21.979  0.00  0.00    +0.006 C 
ATOM      7  C   UNL     1      32.749  -8.368 -20.871  0.00  0.00    +0.025 C 
ATOM      8  C   UNL     1      32.921  -6.259 -24.181  0.00  0.00    -0.022 C 
ATOM      9  C   UNL     1      31.684  -9.056 -24.274  0.00  0.00    -0.077 C 
ATOM     10  C   UNL     1      34.643  -8.155 -24.284  0.00  0.00    +0.008 C 
ATOM     11  C   UNL     1      31.143  -6.432 -20.652  0.00  0.00    +0.000 C 
ATOM     12  C   UNL     1      32.183  -7.290 -19.947  0.00  0.00    +0.002 C 
ATOM     13  C   UNL     1      34.028  -6.876 -24.808  0.00  0.00    -0.028 C 
ATOM     14  C   UNL     1      32.409  -5.078 -24.753  0.00  0.00    +0.032 C 
ATOM     15  C   UNL     1      34.611  -6.287 -25.943  0.00  0.00    -0.002 C 
ATOM     16  C   UNL     1      32.994  -4.508 -25.885  0.00  0.00    +0.133 C 
ATOM     17  C   UNL     1      34.098  -5.108 -26.477  0.00  0.00    +0.036 C 
ATOM     18  H   UNL     1      32.365 -10.067 -22.682  0.00  0.00    -0.080 HD
ENDROOT
BRANCH   3  19
ATOM     19  O   UNL     1      34.400  -6.902 -21.770  0.00  0.00    -0.388 OA
ATOM     20  H   UNL     1      34.045  -6.043 -21.491  0.00  0.00    +0.210 HD
ENDBRANCH   3  19
BRANCH  16  21
ATOM     21  O   UNL     1      32.479  -3.363 -26.412  0.00  0.00    -0.506 OA
ATOM     22  H   UNL     1      33.045  -2.743 -26.829  0.00  0.00    +0.292 HD
ENDBRANCH  16  21
BRANCH   1  23
ATOM     23  C   UNL     1      33.223 -10.916 -24.287  0.00  0.00    -0.077 C 
BRANCH  23  24
ATOM     24  C   UNL     1      33.432 -12.075 -23.367  0.00  0.00    -0.021 C 
ATOM     25  C   UNL     1      33.249 -13.462 -24.016  0.00  0.00    -0.002 C 
ATOM     26  C   UNL     1      32.222 -12.418 -22.473  0.00  0.00    -0.002 C 
ATOM     27  C   UNL     1      32.573 -13.903 -22.701  0.00  0.00    -0.000 C 
ENDBRANCH  23  24
ENDBRANCH   1  23
TORSDOF 4
ENDMDL
MODEL 4
REMARK VINA RESULT:      -6.6      1.916      5.725
REMARK  Name = 6916249
REMARK  4 active torsions:
REMARK  status: ('A' for Active; 'I' for Inactive)
REMARK    1  A    between atoms: N_1  and  C_23
REMARK    2  A    between atoms: C_3  and  O_19
REMARK    3  A    between atoms: C_16  and  O_21
REMARK    4  A    between atoms: C_23  and  C_24
REMARK                            x       y       z     vdW  Elec       q    Type
REMARK                         _______ _______ _______ _____ _____    ______ ____
ROOT
ATOM      1  N   UNL     1      32.653  -8.392 -21.334  0.00  0.00    +0.390 N 
ATOM      2  C   UNL     1      33.696  -8.023 -24.053  0.00  0.00    +0.037 C 
ATOM      3  C   UNL     1      32.690  -9.161 -23.689  0.00  0.00    +0.075 C 
ATOM      4  C   UNL     1      31.810  -8.664 -22.517  0.00  0.00    -0.028 C 
ATOM      5  C   UNL     1      34.529  -7.655 -22.790  0.00  0.00    -0.017 C 
ATOM      6  C   UNL     1      34.637  -8.521 -25.188  0.00  0.00    +0.006 C 
ATOM      7  C   UNL     1      33.401 -10.494 -23.366  0.00  0.00    +0.025 C 
ATOM      8  C   UNL     1      32.915  -6.752 -24.457  0.00  0.00    -0.022 C 
ATOM      9  C   UNL     1      33.665  -7.359 -21.553  0.00  0.00    -0.077 C 
ATOM     10  C   UNL     1      30.935  -7.484 -23.001  0.00  0.00    +0.008 C 
ATOM     11  C   UNL     1      35.297  -9.876 -24.914  0.00  0.00    +0.000 C 
ATOM     12  C   UNL     1      34.294 -10.950 -24.519  0.00  0.00    +0.002 C 
ATOM     13  C   UNL     1      31.626  -6.508 -23.929  0.00  0.00    -0.028 C 
ATOM     14  C   UNL     1      33.482  -5.777 -25.300  0.00  0.00    +0.032 C 
ATOM     15  C   UNL     1      30.931  -5.340 -24.284  0.00  0.00    -0.002 C 
ATOM     16  C   UNL     1      32.782  -4.617 -25.639  0.00  0.00    +0.133 C 
ATOM     17  C   UNL     1      31.505  -4.400 -25.136  0.00  0.00    +0.036 C 
ATOM     18  H   UNL     1      33.160  -9.265 -21.188  0.00  0.00    -0.080 HD
ENDROOT
BRANCH   3  19
ATOM     19  O   UNL     1      31.852  -9.425 -24.829  0.00  0.00    -0.388 OA
ATOM     20  H   UNL     1      32.324  -9.181 -25.640  0.00  0.00    +0.210 HD
ENDBRANCH   3  19
BRANCH  16  21
ATOM     21  O   UNL     1      33.354  -3.694 -26.460  0.00  0.00    -0.506 OA
ATOM     22  H   UNL     1      33.352  -3.828 -27.388  0.00  0.00    +0.292 HD
ENDBRANCH  16  21
BRANCH   1  23
ATOM     23  C   UNL     1      31.886  -8.138 -20.119  0.00  0.00    -0.077 C 
BRANCH  23  24
ATOM     24  C   UNL     1      31.308  -9.401 -19.567  0.00  0.00    -0.021 C 
ATOM     25  C   UNL     1      32.317 -10.315 -18.842  0.00  0.00    -0.002 C 
ATOM     26  C   UNL     1      31.134 -10.537 -20.597  0.00  0.00    -0.002 C 
ATOM     27  C   UNL     1      31.579 -11.509 -19.484  0.00  0.00    -0.000 C 
ENDBRANCH  23  24
ENDBRANCH   1  23
TORSDOF 4
ENDMDL
MODEL 5
REMARK VINA RESULT:      -6.4     15.659     18.858
REMARK  Name = 6916249
REMARK  4 active torsions:
REMARK  status: ('A' for Active; 'I' for Inactive)
REMARK    1  A    between atoms: N_1  and  C_23
REMARK    2  A    between atoms: C_3  and  O_19
REMARK    3  A    between atoms: C_16  and  O_21
REMARK    4  A    between atoms: C_23  and  C_24
REMARK                            x       y       z     vdW  Elec       q    Type
REMARK                         _______ _______ _______ _____ _____    ______ ____
ROOT
ATOM      1  N   UNL     1      35.907 -25.095 -13.927  0.00  0.00    +0.390 N 
ATOM      2  C   UNL     1      33.999 -23.859 -15.783  0.00  0.00    +0.037 C 
ATOM      3  C   UNL     1      34.063 -23.477 -14.270  0.00  0.00    +0.075 C 
ATOM      4  C   UNL     1      35.521 -23.677 -13.788  0.00  0.00    -0.028 C 
ATOM      5  C   UNL     1      34.496 -25.324 -15.962  0.00  0.00    -0.017 C 
ATOM      6  C   UNL     1      32.529 -23.728 -16.278  0.00  0.00    +0.006 C 
ATOM      7  C   UNL     1      33.049 -24.273 -13.418  0.00  0.00    +0.025 C 
ATOM      8  C   UNL     1      34.967 -22.960 -16.585  0.00  0.00    -0.022 C 
ATOM      9  C   UNL     1      35.859 -25.591 -15.303  0.00  0.00    -0.077 C 
ATOM     10  C   UNL     1      36.438 -22.660 -14.507  0.00  0.00    +0.008 C 
ATOM     11  C   UNL     1      31.501 -24.454 -15.404  0.00  0.00    +0.000 C 
ATOM     12  C   UNL     1      31.621 -24.094 -13.930  0.00  0.00    +0.002 C 
ATOM     13  C   UNL     1      36.122 -22.426 -15.968  0.00  0.00    -0.028 C 
ATOM     14  C   UNL     1      34.767 -22.702 -17.955  0.00  0.00    +0.032 C 
ATOM     15  C   UNL     1      37.009 -21.628 -16.710  0.00  0.00    -0.002 C 
ATOM     16  C   UNL     1      35.660 -21.911 -18.681  0.00  0.00    +0.133 C 
ATOM     17  C   UNL     1      36.778 -21.370 -18.059  0.00  0.00    +0.036 C 
ATOM     18  H   UNL     1      35.183 -25.599 -13.415  0.00  0.00    -0.080 HD
ENDROOT
BRANCH   3  19
ATOM     19  O   UNL     1      33.704 -22.091 -14.123  0.00  0.00    -0.388 OA
ATOM     20  H   UNL     1      33.268 -21.783 -14.932  0.00  0.00    +0.210 HD
ENDBRANCH   3  19
BRANCH  16  21
ATOM     21  O   UNL     1      35.437 -21.675 -20.003  0.00  0.00    -0.506 OA
ATOM     22  H   UNL     1      35.599 -20.824 -20.361  0.00  0.00    +0.292 HD
ENDBRANCH  16  21
BRANCH   1  23
ATOM     23  C   UNL     1      37.179 -25.418 -13.290  0.00  0.00    -0.077 C 
BRANCH  23  24
ATOM     24  C   UNL     1      38.215 -25.789 -14.302  0.00  0.00    -0.021 C 
ATOM     25  C   UNL     1      39.580 -26.200 -13.713  0.00  0.00    -0.002 C 
ATOM     26  C   UNL     1      38.941 -24.593 -14.953  0.00  0.00    -0.002 C 
ATOM     27  C   UNL     1      40.229 -25.441 -14.889  0.00  0.00    -0.000 C 
ENDBRANCH  23  24
ENDBRANCH   1  23
TORSDOF 4
ENDMDL
MODEL 6
REMARK VINA RESULT:      -6.3      2.109      6.502
REMARK  Name = 6916249
REMARK  4 active torsions:
REMARK  status: ('A' for Active; 'I' for Inactive)
REMARK    1  A    between atoms: N_1  and  C_23
REMARK    2  A    between atoms: C_3  and  O_19
REMARK    3  A    between atoms: C_16  and  O_21
REMARK    4  A    between atoms: C_23  and  C_24
REMARK                            x       y       z     vdW  Elec       q    Type
REMARK                         _______ _______ _______ _____ _____    ______ ____
ROOT
ATOM      1  N   UNL     1      32.211  -9.229 -22.914  0.00  0.00    +0.390 N 
ATOM      2  C   UNL     1      31.734  -6.350 -23.227  0.00  0.00    +0.037 C 
ATOM      3  C   UNL     1      32.488  -6.945 -21.995  0.00  0.00    +0.075 C 
ATOM      4  C   UNL     1      33.205  -8.238 -22.454  0.00  0.00    -0.028 C 
ATOM      5  C   UNL     1      30.748  -7.417 -23.786  0.00  0.00    -0.017 C 
ATOM      6  C   UNL     1      30.951  -5.081 -22.777  0.00  0.00    +0.006 C 
ATOM      7  C   UNL     1      31.551  -7.189 -20.791  0.00  0.00    +0.025 C 
ATOM      8  C   UNL     1      32.745  -6.043 -24.354  0.00  0.00    -0.022 C 
ATOM      9  C   UNL     1      31.409  -8.779 -24.053  0.00  0.00    -0.077 C 
ATOM     10  C   UNL     1      34.309  -7.874 -23.474  0.00  0.00    +0.008 C 
ATOM     11  C   UNL     1      30.069  -5.287 -21.541  0.00  0.00    +0.000 C 
ATOM     12  C   UNL     1      30.824  -5.910 -20.376  0.00  0.00    +0.002 C 
ATOM     13  C   UNL     1      33.940  -6.791 -24.465  0.00  0.00    -0.028 C 
ATOM     14  C   UNL     1      32.481  -5.067 -25.334  0.00  0.00    +0.032 C 
ATOM     15  C   UNL     1      34.844  -6.521 -25.506  0.00  0.00    -0.002 C 
ATOM     16  C   UNL     1      33.386  -4.813 -26.367  0.00  0.00    +0.133 C 
ATOM     17  C   UNL     1      34.569  -5.536 -26.450  0.00  0.00    +0.036 C 
ATOM     18  H   UNL     1      31.568  -9.317 -22.127  0.00  0.00    -0.080 HD
ENDROOT
BRANCH   3  19
ATOM     19  O   UNL     1      33.472  -5.995 -21.546  0.00  0.00    -0.388 OA
ATOM     20  H   UNL     1      33.053  -5.352 -20.953  0.00  0.00    +0.210 HD
ENDBRANCH   3  19
BRANCH  16  21
ATOM     21  O   UNL     1      33.105  -3.859 -27.296  0.00  0.00    -0.506 OA
ATOM     22  H   UNL     1      32.633  -3.088 -27.049  0.00  0.00    +0.292 HD
ENDBRANCH  16  21
BRANCH   1  23
ATOM     23  C   UNL     1      32.775 -10.554 -23.151  0.00  0.00    -0.077 C 
BRANCH  23  24
ATOM     24  C   UNL     1      31.953 -11.619 -22.499  0.00  0.00    -0.021 C 
ATOM     25  C   UNL     1      31.834 -11.500 -20.966  0.00  0.00    -0.002 C 
ATOM     26  C   UNL     1      32.692 -12.952 -22.262  0.00  0.00    -0.002 C 
ATOM     27  C   UNL     1      31.944 -13.038 -20.915  0.00  0.00    -0.000 C 
ENDBRANCH  23  24
ENDBRANCH   1  23
TORSDOF 4
ENDMDL
MODEL 7
REMARK VINA RESULT:      -6.2      2.028      5.019
REMARK  Name = 6916249
REMARK  4 active torsions:
REMARK  status: ('A' for Active; 'I' for Inactive)
REMARK    1  A    between atoms: N_1  and  C_23
REMARK    2  A    between atoms: C_3  and  O_19
REMARK    3  A    between atoms: C_16  and  O_21
REMARK    4  A    between atoms: C_23  and  C_24
REMARK                            x       y       z     vdW  Elec       q    Type
REMARK                         _______ _______ _______ _____ _____    ______ ____
ROOT
ATOM      1  N   UNL     1      33.756  -9.123 -24.317  0.00  0.00    +0.390 N 
ATOM      2  C   UNL     1      32.332  -7.833 -22.099  0.00  0.00    +0.037 C 
ATOM      3  C   UNL     1      31.685  -8.033 -23.506  0.00  0.00    +0.075 C 
ATOM      4  C   UNL     1      32.301  -9.304 -24.139  0.00  0.00    -0.028 C 
ATOM      5  C   UNL     1      33.878  -7.736 -22.257  0.00  0.00    -0.017 C 
ATOM      6  C   UNL     1      31.775  -6.523 -21.466  0.00  0.00    +0.006 C 
ATOM      7  C   UNL     1      31.845  -6.790 -24.411  0.00  0.00    +0.025 C 
ATOM      8  C   UNL     1      32.050  -9.072 -21.219  0.00  0.00    -0.022 C 
ATOM      9  C   UNL     1      34.483  -8.894 -23.067  0.00  0.00    -0.077 C 
ATOM     10  C   UNL     1      31.877 -10.541 -23.312  0.00  0.00    +0.008 C 
ATOM     11  C   UNL     1      31.863  -5.294 -22.377  0.00  0.00    +0.000 C 
ATOM     12  C   UNL     1      31.264  -5.538 -23.755  0.00  0.00    +0.002 C 
ATOM     13  C   UNL     1      31.864 -10.341 -21.813  0.00  0.00    -0.028 C 
ATOM     14  C   UNL     1      32.038  -8.988 -19.813  0.00  0.00    +0.032 C 
ATOM     15  C   UNL     1      31.630 -11.467 -21.004  0.00  0.00    -0.002 C 
ATOM     16  C   UNL     1      31.811 -10.117 -19.022  0.00  0.00    +0.133 C 
ATOM     17  C   UNL     1      31.602 -11.354 -19.617  0.00  0.00    +0.036 C 
ATOM     18  H   UNL     1      33.832  -8.261 -24.856  0.00  0.00    -0.080 HD
ENDROOT
BRANCH   3  19
ATOM     19  O   UNL     1      30.268  -8.226 -23.345  0.00  0.00    -0.388 OA
ATOM     20  H   UNL     1      30.109  -8.901 -22.667  0.00  0.00    +0.210 HD
ENDBRANCH   3  19
BRANCH  16  21
ATOM     21  O   UNL     1      31.799 -10.004 -17.666  0.00  0.00    -0.506 OA
ATOM     22  H   UNL     1      30.993 -10.092 -17.195  0.00  0.00    +0.292 HD
ENDBRANCH  16  21
BRANCH   1  23
ATOM     23  C   UNL     1      34.381 -10.176 -25.110  0.00  0.00    -0.077 C 
BRANCH  23  24
ATOM     24  C   UNL     1      33.494 -11.374 -25.219  0.00  0.00    -0.021 C 
ATOM     25  C   UNL     1      33.971 -12.611 -24.431  0.00  0.00    -0.002 C 
ATOM     26  C   UNL     1      33.691 -12.210 -26.502  0.00  0.00    -0.002 C 
ATOM     27  C   UNL     1      33.487 -13.462 -25.623  0.00  0.00    -0.000 C 
ENDBRANCH  23  24
ENDBRANCH   1  23
TORSDOF 4
ENDMDL
MODEL 8
REMARK VINA RESULT:      -5.6      4.763      8.169
REMARK  Name = 6916249
REMARK  4 active torsions:
REMARK  status: ('A' for Active; 'I' for Inactive)
REMARK    1  A    between atoms: N_1  and  C_23
REMARK    2  A    between atoms: C_3  and  O_19
REMARK    3  A    between atoms: C_16  and  O_21
REMARK    4  A    between atoms: C_23  and  C_24
REMARK                            x       y       z     vdW  Elec       q    Type
REMARK                         _______ _______ _______ _____ _____    ______ ____
ROOT
ATOM      1  N   UNL     1      34.118 -14.937 -22.141  0.00  0.00    +0.390 N 
ATOM      2  C   UNL     1      33.291 -12.589 -23.696  0.00  0.00    +0.037 C 
ATOM      3  C   UNL     1      32.608 -13.984 -23.858  0.00  0.00    +0.075 C 
ATOM      4  C   UNL     1      32.702 -14.723 -22.501  0.00  0.00    -0.028 C 
ATOM      5  C   UNL     1      34.761 -12.792 -23.222  0.00  0.00    -0.017 C 
ATOM      6  C   UNL     1      33.267 -11.849 -25.065  0.00  0.00    +0.006 C 
ATOM      7  C   UNL     1      33.216 -14.806 -25.018  0.00  0.00    +0.025 C 
ATOM      8  C   UNL     1      32.573 -11.787 -22.587  0.00  0.00    -0.022 C 
ATOM      9  C   UNL     1      34.885 -13.700 -21.988  0.00  0.00    -0.077 C 
ATOM     10  C   UNL     1      31.851 -13.970 -21.451  0.00  0.00    +0.008 C 
ATOM     11  C   UNL     1      33.802 -12.676 -26.239  0.00  0.00    +0.000 C 
ATOM     12  C   UNL     1      33.148 -14.046 -26.341  0.00  0.00    +0.002 C 
ATOM     13  C   UNL     1      31.922 -12.460 -21.527  0.00  0.00    -0.028 C 
ATOM     14  C   UNL     1      32.600 -10.380 -22.561  0.00  0.00    +0.032 C 
ATOM     15  C   UNL     1      31.290 -11.724 -20.511  0.00  0.00    -0.002 C 
ATOM     16  C   UNL     1      31.973  -9.661 -21.541  0.00  0.00    +0.133 C 
ATOM     17  C   UNL     1      31.313 -10.332 -20.519  0.00  0.00    +0.036 C 
ATOM     18  H   UNL     1      34.508 -15.418 -22.952  0.00  0.00    -0.080 HD
ENDROOT
BRANCH   3  19
ATOM     19  O   UNL     1      31.222 -13.789 -24.194  0.00  0.00    -0.388 OA
ATOM     20  H   UNL     1      31.106 -13.880 -25.152  0.00  0.00    +0.210 HD
ENDBRANCH   3  19
BRANCH  16  21
ATOM     21  O   UNL     1      32.012  -8.300 -21.546  0.00  0.00    -0.506 OA
ATOM     22  H   UNL     1      31.616  -7.818 -20.847  0.00  0.00    +0.292 HD
ENDBRANCH  16  21
BRANCH   1  23
ATOM     23  C   UNL     1      34.301 -15.821 -20.995  0.00  0.00    -0.077 C 
BRANCH  23  24
ATOM     24  C   UNL     1      35.071 -17.046 -21.371  0.00  0.00    -0.021 C 
ATOM     25  C   UNL     1      35.245 -17.264 -22.888  0.00  0.00    -0.002 C 
ATOM     26  C   UNL     1      34.253 -18.355 -21.355  0.00  0.00    -0.002 C 
ATOM     27  C   UNL     1      35.036 -18.769 -22.619  0.00  0.00    -0.000 C 
ENDBRANCH  23  24
ENDBRANCH   1  23
TORSDOF 4
ENDMDL
MODEL 9
REMARK VINA RESULT:      -5.2     17.407     19.685
REMARK  Name = 6916249
REMARK  4 active torsions:
REMARK  status: ('A' for Active; 'I' for Inactive)
REMARK    1  A    between atoms: N_1  and  C_23
REMARK    2  A    between atoms: C_3  and  O_19
REMARK    3  A    between atoms: C_16  and  O_21
REMARK    4  A    between atoms: C_23  and  C_24
REMARK                            x       y       z     vdW  Elec       q    Type
REMARK                         _______ _______ _______ _____ _____    ______ ____
ROOT
ATOM      1  N   UNL     1      34.709 -23.465 -14.763  0.00  0.00    +0.390 N 
ATOM      2  C   UNL     1      37.026 -23.945 -13.027  0.00  0.00    +0.037 C 
ATOM      3  C   UNL     1      35.610 -24.525 -12.714  0.00  0.00    +0.075 C 
ATOM      4  C   UNL     1      34.878 -24.752 -14.059  0.00  0.00    -0.028 C 
ATOM      5  C   UNL     1      36.870 -22.635 -13.855  0.00  0.00    -0.017 C 
ATOM      6  C   UNL     1      37.761 -23.647 -11.688  0.00  0.00    +0.006 C 
ATOM      7  C   UNL     1      34.804 -23.623 -11.751  0.00  0.00    +0.025 C 
ATOM      8  C   UNL     1      37.809 -24.941 -13.913  0.00  0.00    -0.022 C 
ATOM      9  C   UNL     1      35.969 -22.797 -15.090  0.00  0.00    -0.077 C 
ATOM     10  C   UNL     1      35.608 -25.860 -14.855  0.00  0.00    +0.008 C 
ATOM     11  C   UNL     1      36.948 -22.812 -10.693  0.00  0.00    +0.000 C 
ATOM     12  C   UNL     1      35.558 -23.380 -10.445  0.00  0.00    +0.002 C 
ATOM     13  C   UNL     1      37.119 -25.816 -14.784  0.00  0.00    -0.028 C 
ATOM     14  C   UNL     1      39.216 -24.962 -13.931  0.00  0.00    +0.032 C 
ATOM     15  C   UNL     1      37.838 -26.704 -15.602  0.00  0.00    -0.002 C 
ATOM     16  C   UNL     1      39.918 -25.845 -14.754  0.00  0.00    +0.133 C 
ATOM     17  C   UNL     1      39.230 -26.719 -15.585  0.00  0.00    +0.036 C 
ATOM     18  H   UNL     1      34.238 -22.871 -14.081  0.00  0.00    -0.080 HD
ENDROOT
BRANCH   3  19
ATOM     19  O   UNL     1      35.762 -25.788 -12.040  0.00  0.00    -0.388 OA
ATOM     20  H   UNL     1      35.247 -26.466 -12.505  0.00  0.00    +0.210 HD
ENDBRANCH   3  19
BRANCH  16  21
ATOM     21  O   UNL     1      41.279 -25.845 -14.744  0.00  0.00    -0.506 OA
ATOM     22  H   UNL     1      41.742 -25.811 -13.930  0.00  0.00    +0.292 HD
ENDBRANCH  16  21
BRANCH   1  23
ATOM     23  C   UNL     1      33.833 -23.549 -15.927  0.00  0.00    -0.077 C 
BRANCH  23  24
ATOM     24  C   UNL     1      32.412 -23.776 -15.524  0.00  0.00    -0.021 C 
ATOM     25  C   UNL     1      31.364 -23.098 -16.429  0.00  0.00    -0.002 C 
ATOM     26  C   UNL     1      31.910 -22.862 -14.386  0.00  0.00    -0.002 C 
ATOM     27  C   UNL     1      30.567 -22.788 -15.144  0.00  0.00    -0.000 C 
ENDBRANCH  23  24
ENDBRANCH   1  23
TORSDOF 4
ENDMDL
