MODEL 1
REMARK VINA RESULT:      -6.1      0.000      0.000
REMARK  Name = 4626
REMARK  3 active torsions:
REMARK  status: ('A' for Active; 'I' for Inactive)
REMARK    1  A    between atoms: N_2  and  C_9
REMARK    2  A    between atoms: C_3  and  O_7
REMARK    3  A    between atoms: C_9  and  C_12
REMARK                            x       y       z     vdW  Elec       q    Type
REMARK                         _______ _______ _______ _____ _____    ______ ____
ROOT
ATOM      1  O   UNL     1      37.944 -23.320 -15.232  0.00  0.00    -0.275 OA
ATOM      2  N   UNL     1      38.248 -25.444 -14.267  0.00  0.00    -0.269 N 
ATOM      3  C   UNL     1      36.307 -26.473 -15.024  0.00  0.00    +0.139 C 
ATOM      4  C   UNL     1      37.445 -26.624 -14.032  0.00  0.00    +0.123 C 
ATOM      5  C   UNL     1      36.164 -24.966 -15.213  0.00  0.00    +0.116 C 
ATOM      6  C   UNL     1      37.556 -24.442 -14.940  0.00  0.00    +0.229 C 
ENDROOT
BRANCH   3   7
ATOM      7  O   UNL     1      36.668 -27.060 -16.271  0.00  0.00    -0.382 OA
ATOM      8  H   UNL     1      36.385 -26.481 -16.996  0.00  0.00    +0.210 HD
ENDBRANCH   3   7
BRANCH   2   9
ATOM      9  C   UNL     1      39.584 -25.319 -13.724  0.00  0.00    +0.179 C 
BRANCH   9  12
ATOM     10  O   UNL     1      40.647 -25.954 -15.804  0.00  0.00    -0.273 OA
ATOM     11  N   UNL     1      41.302 -26.991 -13.860  0.00  0.00    -0.327 N 
ATOM     12  C   UNL     1      40.558 -26.086 -14.586  0.00  0.00    +0.240 C 
ATOM     13  H   UNL     1      41.974 -27.551 -14.310  0.00  0.00    +0.145 HD
ATOM     14  H   UNL     1      41.162 -27.075 -12.888  0.00  0.00    +0.145 HD
ENDBRANCH   9  12
ENDBRANCH   2   9
TORSDOF 3
ENDMDL
MODEL 2
REMARK VINA RESULT:      -6.0      2.728      3.733
REMARK  Name = 4626
REMARK  3 active torsions:
REMARK  status: ('A' for Active; 'I' for Inactive)
REMARK    1  A    between atoms: N_2  and  C_9
REMARK    2  A    between atoms: C_3  and  O_7
REMARK    3  A    between atoms: C_9  and  C_12
REMARK                            x       y       z     vdW  Elec       q    Type
REMARK                         _______ _______ _______ _____ _____    ______ ____
ROOT
ATOM      1  O   UNL     1      36.903 -26.498 -11.968  0.00  0.00    -0.275 OA
ATOM      2  N   UNL     1      37.046 -24.692 -13.469  0.00  0.00    -0.269 N 
ATOM      3  C   UNL     1      37.048 -22.943 -11.940  0.00  0.00    +0.139 C 
ATOM      4  C   UNL     1      36.881 -23.256 -13.415  0.00  0.00    +0.123 C 
ATOM      5  C   UNL     1      36.590 -24.211 -11.227  0.00  0.00    +0.116 C 
ATOM      6  C   UNL     1      36.879 -25.304 -12.231  0.00  0.00    +0.229 C 
ENDROOT
BRANCH   3   7
ATOM      7  O   UNL     1      38.423 -22.719 -11.644  0.00  0.00    -0.382 OA
ATOM      8  H   UNL     1      38.798 -22.103 -12.291  0.00  0.00    +0.210 HD
ENDBRANCH   3   7
BRANCH   2   9
ATOM      9  C   UNL     1      37.234 -25.384 -14.727  0.00  0.00    +0.179 C 
BRANCH   9  12
ATOM     10  O   UNL     1      39.134 -26.868 -14.503  0.00  0.00    -0.273 OA
ATOM     11  N   UNL     1      39.453 -24.786 -15.424  0.00  0.00    -0.327 N 
ATOM     12  C   UNL     1      38.682 -25.788 -14.873  0.00  0.00    +0.240 C 
ATOM     13  H   UNL     1      40.416 -24.929 -15.571  0.00  0.00    +0.145 HD
ATOM     14  H   UNL     1      39.039 -23.927 -15.671  0.00  0.00    +0.145 HD
ENDBRANCH   9  12
ENDBRANCH   2   9
TORSDOF 3
ENDMDL
MODEL 3
REMARK VINA RESULT:      -6.0      2.746      3.931
REMARK  Name = 4626
REMARK  3 active torsions:
REMARK  status: ('A' for Active; 'I' for Inactive)
REMARK    1  A    between atoms: N_2  and  C_9
REMARK    2  A    between atoms: C_3  and  O_7
REMARK    3  A    between atoms: C_9  and  C_12
REMARK                            x       y       z     vdW  Elec       q    Type
REMARK                         _______ _______ _______ _____ _____    ______ ____
ROOT
ATOM      1  O   UNL     1      36.805 -26.189 -11.730  0.00  0.00    -0.275 OA
ATOM      2  N   UNL     1      36.707 -24.608 -13.469  0.00  0.00    -0.269 N 
ATOM      3  C   UNL     1      37.272 -25.988 -15.252  0.00  0.00    +0.139 C 
ATOM      4  C   UNL     1      37.119 -24.532 -14.854  0.00  0.00    +0.123 C 
ATOM      5  C   UNL     1      37.628 -26.703 -13.952  0.00  0.00    +0.116 C 
ATOM      6  C   UNL     1      36.984 -25.842 -12.888  0.00  0.00    +0.229 C 
ENDROOT
BRANCH   3   7
ATOM      7  O   UNL     1      36.029 -26.494 -15.730  0.00  0.00    -0.382 OA
ATOM      8  H   UNL     1      35.595 -27.003 -15.028  0.00  0.00    +0.210 HD
ENDBRANCH   3   7
BRANCH   2   9
ATOM      9  C   UNL     1      36.184 -23.453 -12.772  0.00  0.00    +0.179 C 
BRANCH   9  12
ATOM     10  O   UNL     1      38.215 -22.440 -11.928  0.00  0.00    -0.273 OA
ATOM     11  N   UNL     1      36.750 -23.399 -10.439  0.00  0.00    -0.327 N 
ATOM     12  C   UNL     1      37.157 -23.021 -11.701  0.00  0.00    +0.240 C 
ATOM     13  H   UNL     1      37.301 -23.174  -9.655  0.00  0.00    +0.145 HD
ATOM     14  H   UNL     1      35.906 -23.894 -10.322  0.00  0.00    +0.145 HD
ENDBRANCH   9  12
ENDBRANCH   2   9
TORSDOF 3
ENDMDL
MODEL 4
REMARK VINA RESULT:      -5.8      2.596      3.103
REMARK  Name = 4626
REMARK  3 active torsions:
REMARK  status: ('A' for Active; 'I' for Inactive)
REMARK    1  A    between atoms: N_2  and  C_9
REMARK    2  A    between atoms: C_3  and  O_7
REMARK    3  A    between atoms: C_9  and  C_12
REMARK                            x       y       z     vdW  Elec       q    Type
REMARK                         _______ _______ _______ _____ _____    ______ ____
ROOT
ATOM      1  O   UNL     1      39.082 -23.238 -11.662  0.00  0.00    -0.275 OA
ATOM      2  N   UNL     1      37.767 -24.871 -12.731  0.00  0.00    -0.269 N 
ATOM      3  C   UNL     1      35.684 -23.866 -12.511  0.00  0.00    +0.139 C 
ATOM      4  C   UNL     1      36.360 -25.180 -12.856  0.00  0.00    +0.123 C 
ATOM      5  C   UNL     1      36.660 -23.171 -11.567  0.00  0.00    +0.116 C 
ATOM      6  C   UNL     1      38.006 -23.721 -11.985  0.00  0.00    +0.229 C 
ENDROOT
BRANCH   3   7
ATOM      7  O   UNL     1      35.536 -23.073 -13.685  0.00  0.00    -0.382 OA
ATOM      8  H   UNL     1      36.175 -23.363 -14.355  0.00  0.00    +0.210 HD
ENDBRANCH   3   7
BRANCH   2   9
ATOM      9  C   UNL     1      38.785 -25.767 -13.236  0.00  0.00    +0.179 C 
BRANCH   9  12
ATOM     10  O   UNL     1      40.748 -24.881 -14.343  0.00  0.00    -0.273 OA
ATOM     11  N   UNL     1      38.710 -24.710 -15.391  0.00  0.00    -0.327 N 
ATOM     12  C   UNL     1      39.540 -25.098 -14.361  0.00  0.00    +0.240 C 
ATOM     13  H   UNL     1      39.084 -24.263 -16.184  0.00  0.00    +0.145 HD
ATOM     14  H   UNL     1      37.741 -24.882 -15.334  0.00  0.00    +0.145 HD
ENDBRANCH   9  12
ENDBRANCH   2   9
TORSDOF 3
ENDMDL
MODEL 5
REMARK VINA RESULT:      -5.8      2.839      4.440
REMARK  Name = 4626
REMARK  3 active torsions:
REMARK  status: ('A' for Active; 'I' for Inactive)
REMARK    1  A    between atoms: N_2  and  C_9
REMARK    2  A    between atoms: C_3  and  O_7
REMARK    3  A    between atoms: C_9  and  C_12
REMARK                            x       y       z     vdW  Elec       q    Type
REMARK                         _______ _______ _______ _____ _____    ______ ____
ROOT
ATOM      1  O   UNL     1      38.307 -24.533 -11.402  0.00  0.00    -0.275 OA
ATOM      2  N   UNL     1      37.231 -24.346 -13.486  0.00  0.00    -0.269 N 
ATOM      3  C   UNL     1      38.572 -25.785 -14.723  0.00  0.00    +0.139 C 
ATOM      4  C   UNL     1      37.511 -24.709 -14.858  0.00  0.00    +0.123 C 
ATOM      5  C   UNL     1      39.291 -25.450 -13.419  0.00  0.00    +0.116 C 
ATOM      6  C   UNL     1      38.232 -24.741 -12.605  0.00  0.00    +0.229 C 
ENDROOT
BRANCH   3   7
ATOM      7  O   UNL     1      37.955 -27.062 -14.592  0.00  0.00    -0.382 OA
ATOM      8  H   UNL     1      38.548 -27.661 -14.112  0.00  0.00    +0.210 HD
ENDBRANCH   3   7
BRANCH   2   9
ATOM      9  C   UNL     1      36.078 -23.543 -13.137  0.00  0.00    +0.179 C 
BRANCH   9  12
ATOM     10  O   UNL     1      34.957 -24.863 -11.445  0.00  0.00    -0.273 OA
ATOM     11  N   UNL     1      34.042 -24.748 -13.551  0.00  0.00    -0.327 N 
ATOM     12  C   UNL     1      34.983 -24.432 -12.595  0.00  0.00    +0.240 C 
ATOM     13  H   UNL     1      33.278 -25.322 -13.319  0.00  0.00    +0.145 HD
ATOM     14  H   UNL     1      34.136 -24.398 -14.467  0.00  0.00    +0.145 HD
ENDBRANCH   9  12
ENDBRANCH   2   9
TORSDOF 3
ENDMDL
MODEL 6
REMARK VINA RESULT:      -5.7      2.897      3.967
REMARK  Name = 4626
REMARK  3 active torsions:
REMARK  status: ('A' for Active; 'I' for Inactive)
REMARK    1  A    between atoms: N_2  and  C_9
REMARK    2  A    between atoms: C_3  and  O_7
REMARK    3  A    between atoms: C_9  and  C_12
REMARK                            x       y       z     vdW  Elec       q    Type
REMARK                         _______ _______ _______ _____ _____    ______ ____
ROOT
ATOM      1  O   UNL     1      34.586 -23.694 -16.878  0.00  0.00    -0.275 OA
ATOM      2  N   UNL     1      35.139 -24.357 -14.690  0.00  0.00    -0.269 N 
ATOM      3  C   UNL     1      33.044 -24.157 -13.705  0.00  0.00    +0.139 C 
ATOM      4  C   UNL     1      34.519 -24.319 -13.384  0.00  0.00    +0.123 C 
ATOM      5  C   UNL     1      33.023 -23.426 -15.044  0.00  0.00    +0.116 C 
ATOM      6  C   UNL     1      34.324 -23.844 -15.693  0.00  0.00    +0.229 C 
ENDROOT
BRANCH   3   7
ATOM      7  O   UNL     1      32.440 -25.437 -13.870  0.00  0.00    -0.382 OA
ATOM      8  H   UNL     1      33.088 -26.055 -14.242  0.00  0.00    +0.210 HD
ENDBRANCH   3   7
BRANCH   2   9
ATOM      9  C   UNL     1      36.515 -24.776 -14.860  0.00  0.00    +0.179 C 
BRANCH   9  12
ATOM     10  O   UNL     1      36.278 -26.888 -16.018  0.00  0.00    -0.273 OA
ATOM     11  N   UNL     1      36.958 -26.895 -13.823  0.00  0.00    -0.327 N 
ATOM     12  C   UNL     1      36.577 -26.279 -14.996  0.00  0.00    +0.240 C 
ATOM     13  H   UNL     1      37.036 -27.875 -13.784  0.00  0.00    +0.145 HD
ATOM     14  H   UNL     1      37.153 -26.353 -13.024  0.00  0.00    +0.145 HD
ENDBRANCH   9  12
ENDBRANCH   2   9
TORSDOF 3
ENDMDL
MODEL 7
REMARK VINA RESULT:      -5.7      2.519      3.272
REMARK  Name = 4626
REMARK  3 active torsions:
REMARK  status: ('A' for Active; 'I' for Inactive)
REMARK    1  A    between atoms: N_2  and  C_9
REMARK    2  A    between atoms: C_3  and  O_7
REMARK    3  A    between atoms: C_9  and  C_12
REMARK                            x       y       z     vdW  Elec       q    Type
REMARK                         _______ _______ _______ _____ _____    ______ ____
ROOT
ATOM      1  O   UNL     1      38.964 -23.911 -15.374  0.00  0.00    -0.275 OA
ATOM      2  N   UNL     1      36.804 -24.184 -14.484  0.00  0.00    -0.269 N 
ATOM      3  C   UNL     1      35.693 -22.550 -15.708  0.00  0.00    +0.139 C 
ATOM      4  C   UNL     1      35.554 -23.456 -14.498  0.00  0.00    +0.123 C 
ATOM      5  C   UNL     1      37.195 -22.320 -15.840  0.00  0.00    +0.116 C 
ATOM      6  C   UNL     1      37.798 -23.569 -15.237  0.00  0.00    +0.229 C 
ENDROOT
BRANCH   3   7
ATOM      7  O   UNL     1      35.226 -23.222 -16.874  0.00  0.00    -0.382 OA
ATOM      8  H   UNL     1      35.692 -22.880 -17.653  0.00  0.00    +0.210 HD
ENDBRANCH   3   7
BRANCH   2   9
ATOM      9  C   UNL     1      36.986 -25.355 -13.653  0.00  0.00    +0.179 C 
BRANCH   9  12
ATOM     10  O   UNL     1      38.271 -27.162 -14.625  0.00  0.00    -0.273 OA
ATOM     11  N   UNL     1      36.070 -26.910 -15.237  0.00  0.00    -0.327 N 
ATOM     12  C   UNL     1      37.200 -26.570 -14.525  0.00  0.00    +0.240 C 
ATOM     13  H   UNL     1      36.083 -27.686 -15.842  0.00  0.00    +0.145 HD
ATOM     14  H   UNL     1      35.248 -26.376 -15.139  0.00  0.00    +0.145 HD
ENDBRANCH   9  12
ENDBRANCH   2   9
TORSDOF 3
ENDMDL
MODEL 8
REMARK VINA RESULT:      -5.7      7.066      8.672
REMARK  Name = 4626
REMARK  3 active torsions:
REMARK  status: ('A' for Active; 'I' for Inactive)
REMARK    1  A    between atoms: N_2  and  C_9
REMARK    2  A    between atoms: C_3  and  O_7
REMARK    3  A    between atoms: C_9  and  C_12
REMARK                            x       y       z     vdW  Elec       q    Type
REMARK                         _______ _______ _______ _____ _____    ______ ____
ROOT
ATOM      1  O   UNL     1      32.456 -20.487 -19.804  0.00  0.00    -0.275 OA
ATOM      2  N   UNL     1      34.763 -20.946 -19.749  0.00  0.00    -0.269 N 
ATOM      3  C   UNL     1      35.480 -19.414 -21.344  0.00  0.00    +0.139 C 
ATOM      4  C   UNL     1      35.924 -20.632 -20.554  0.00  0.00    +0.123 C 
ATOM      5  C   UNL     1      33.966 -19.568 -21.463  0.00  0.00    +0.116 C 
ATOM      6  C   UNL     1      33.595 -20.365 -20.232  0.00  0.00    +0.229 C 
ENDROOT
BRANCH   3   7
ATOM      7  O   UNL     1      35.764 -18.228 -20.608  0.00  0.00    -0.382 OA
ATOM      8  H   UNL     1      35.726 -17.462 -21.202  0.00  0.00    +0.210 HD
ENDBRANCH   3   7
BRANCH   2   9
ATOM      9  C   UNL     1      34.840 -21.876 -18.643  0.00  0.00    +0.179 C 
BRANCH   9  12
ATOM     10  O   UNL     1      33.970 -23.898 -19.651  0.00  0.00    -0.273 OA
ATOM     11  N   UNL     1      32.721 -22.832 -18.042  0.00  0.00    -0.327 N 
ATOM     12  C   UNL     1      33.835 -22.986 -18.840  0.00  0.00    +0.240 C 
ATOM     13  H   UNL     1      31.994 -23.494 -18.079  0.00  0.00    +0.145 HD
ATOM     14  H   UNL     1      32.655 -22.061 -17.433  0.00  0.00    +0.145 HD
ENDBRANCH   9  12
ENDBRANCH   2   9
TORSDOF 3
ENDMDL
MODEL 9
REMARK VINA RESULT:      -5.6      2.845      3.258
REMARK  Name = 4626
REMARK  3 active torsions:
REMARK  status: ('A' for Active; 'I' for Inactive)
REMARK    1  A    between atoms: N_2  and  C_9
REMARK    2  A    between atoms: C_3  and  O_7
REMARK    3  A    between atoms: C_9  and  C_12
REMARK                            x       y       z     vdW  Elec       q    Type
REMARK                         _______ _______ _______ _____ _____    ______ ____
ROOT
ATOM      1  O   UNL     1      38.352 -22.513 -12.032  0.00  0.00    -0.275 OA
ATOM      2  N   UNL     1      37.216 -24.237 -13.160  0.00  0.00    -0.269 N 
ATOM      3  C   UNL     1      35.395 -24.471 -11.736  0.00  0.00    +0.139 C 
ATOM      4  C   UNL     1      36.127 -25.148 -12.879  0.00  0.00    +0.123 C 
ATOM      5  C   UNL     1      36.471 -23.661 -11.020  0.00  0.00    +0.116 C 
ATOM      6  C   UNL     1      37.470 -23.356 -12.114  0.00  0.00    +0.229 C 
ENDROOT
BRANCH   3   7
ATOM      7  O   UNL     1      34.412 -23.576 -12.250  0.00  0.00    -0.382 OA
ATOM      8  H   UNL     1      34.387 -23.644 -13.218  0.00  0.00    +0.210 HD
ENDBRANCH   3   7
BRANCH   2   9
ATOM      9  C   UNL     1      38.010 -24.357 -14.365  0.00  0.00    +0.179 C 
BRANCH   9  12
ATOM     10  O   UNL     1      38.101 -26.630 -15.194  0.00  0.00    -0.273 OA
ATOM     11  N   UNL     1      39.633 -25.961 -13.617  0.00  0.00    -0.327 N 
ATOM     12  C   UNL     1      38.569 -25.757 -14.469  0.00  0.00    +0.240 C 
ATOM     13  H   UNL     1      40.085 -26.835 -13.593  0.00  0.00    +0.145 HD
ATOM     14  H   UNL     1      39.943 -25.230 -13.033  0.00  0.00    +0.145 HD
ENDBRANCH   9  12
ENDBRANCH   2   9
TORSDOF 3
ENDMDL
