MODEL 1
REMARK VINA RESULT:      -9.9      0.000      0.000
REMARK  Name = 65679
REMARK  0 active torsions:
REMARK  status: ('A' for Active; 'I' for Inactive)
REMARK                            x       y       z     vdW  Elec       q    Type
REMARK                         _______ _______ _______ _____ _____    ______ ____
ROOT
ATOM      1  S   UNL     1      37.385 -25.561 -12.263  0.00  0.00    +0.077 S 
ATOM      2  O   UNL     1      35.745 -24.108 -16.041  0.00  0.00    -0.406 OA
ATOM      3  O   UNL     1      36.885 -26.897 -12.520  0.00  0.00    -0.150 OA
ATOM      4  O   UNL     1      38.174 -25.265 -11.081  0.00  0.00    -0.150 OA
ATOM      5  O   UNL     1      33.252 -24.452 -12.921  0.00  0.00    -0.265 OA
ATOM      6  O   UNL     1      34.127 -23.334 -17.371  0.00  0.00    -0.222 OA
ATOM      7  N   UNL     1      36.098 -24.424 -12.365  0.00  0.00    -0.181 N 
ATOM      8  N   UNL     1      33.603 -23.711 -15.109  0.00  0.00    -0.193 N 
ATOM      9  C   UNL     1      35.485 -24.297 -13.663  0.00  0.00    +0.160 A 
ATOM     10  C   UNL     1      38.361 -25.104 -13.648  0.00  0.00    +0.128 C 
ATOM     11  C   UNL     1      37.730 -24.495 -14.733  0.00  0.00    +0.055 C 
ATOM     12  C   UNL     1      36.267 -24.302 -14.751  0.00  0.00    +0.171 A 
ATOM     13  C   UNL     1      34.018 -24.135 -13.831  0.00  0.00    +0.288 A 
ATOM     14  C   UNL     1      35.321 -24.207 -11.122  0.00  0.00    +0.139 C 
ATOM     15  C   UNL     1      39.739 -25.320 -13.609  0.00  0.00    +0.020 C 
ATOM     16  C   UNL     1      38.536 -24.109 -15.815  0.00  0.00    +0.004 C 
ATOM     17  C   UNL     1      34.449 -23.700 -16.240  0.00  0.00    +0.429 A 
ATOM     18  C   UNL     1      40.519 -24.928 -14.692  0.00  0.00    +0.001 C 
ATOM     19  C   UNL     1      39.919 -24.322 -15.794  0.00  0.00    +0.000 C 
ATOM     20  N   UNL     1      31.643 -23.529 -16.484  0.00  0.00    -0.226 NA
ATOM     21  C   UNL     1      32.213 -23.341 -15.275  0.00  0.00    +0.155 C 
ATOM     22  C   UNL     1      31.562 -22.820 -14.174  0.00  0.00    +0.038 C 
ATOM     23  C   UNL     1      30.226 -22.462 -14.322  0.00  0.00    +0.005 C 
ATOM     24  C   UNL     1      30.345 -23.170 -16.590  0.00  0.00    +0.101 C 
ATOM     25  C   UNL     1      29.598 -22.637 -15.551  0.00  0.00    +0.021 C 
ENDROOT
TORSDOF 0
ENDMDL
MODEL 2
REMARK VINA RESULT:      -8.4      4.233      6.639
REMARK  Name = 65679
REMARK  0 active torsions:
REMARK  status: ('A' for Active; 'I' for Inactive)
REMARK                            x       y       z     vdW  Elec       q    Type
REMARK                         _______ _______ _______ _____ _____    ______ ____
ROOT
ATOM      1  S   UNL     1      36.271 -21.538 -19.946  0.00  0.00    +0.077 S 
ATOM      2  O   UNL     1      32.117 -21.826 -18.631  0.00  0.00    -0.406 OA
ATOM      3  O   UNL     1      36.190 -22.830 -20.600  0.00  0.00    -0.150 OA
ATOM      4  O   UNL     1      37.476 -20.731 -20.018  0.00  0.00    -0.150 OA
ATOM      5  O   UNL     1      34.897 -23.779 -16.506  0.00  0.00    -0.265 OA
ATOM      6  O   UNL     1      30.473 -22.498 -17.278  0.00  0.00    -0.222 OA
ATOM      7  N   UNL     1      35.805 -21.687 -18.297  0.00  0.00    -0.181 N 
ATOM      8  N   UNL     1      32.677 -23.074 -16.698  0.00  0.00    -0.193 N 
ATOM      9  C   UNL     1      34.436 -22.079 -18.073  0.00  0.00    +0.160 A 
ATOM     10  C   UNL     1      34.966 -20.556 -20.588  0.00  0.00    +0.128 C 
ATOM     11  C   UNL     1      33.718 -20.622 -19.967  0.00  0.00    +0.055 C 
ATOM     12  C   UNL     1      33.477 -21.547 -18.842  0.00  0.00    +0.171 A 
ATOM     13  C   UNL     1      34.053 -23.032 -17.000  0.00  0.00    +0.288 A 
ATOM     14  C   UNL     1      36.879 -22.065 -17.349  0.00  0.00    +0.139 C 
ATOM     15  C   UNL     1      35.221 -19.708 -21.666  0.00  0.00    +0.020 C 
ATOM     16  C   UNL     1      32.700 -19.803 -20.477  0.00  0.00    +0.004 C 
ATOM     17  C   UNL     1      31.682 -22.487 -17.509  0.00  0.00    +0.429 A 
ATOM     18  C   UNL     1      34.197 -18.903 -22.154  0.00  0.00    +0.001 C 
ATOM     19  C   UNL     1      32.937 -18.950 -21.561  0.00  0.00    +0.000 C 
ATOM     20  N   UNL     1      31.050 -24.404 -15.537  0.00  0.00    -0.226 NA
ATOM     21  C   UNL     1      32.270 -23.829 -15.531  0.00  0.00    +0.155 C 
ATOM     22  C   UNL     1      33.169 -23.909 -14.485  0.00  0.00    +0.038 C 
ATOM     23  C   UNL     1      32.788 -24.632 -13.359  0.00  0.00    +0.005 C 
ATOM     24  C   UNL     1      30.714 -25.097 -14.427  0.00  0.00    +0.101 C 
ATOM     25  C   UNL     1      31.538 -25.240 -13.322  0.00  0.00    +0.021 C 
ENDROOT
TORSDOF 0
ENDMDL
MODEL 3
REMARK VINA RESULT:      -8.1      3.344      4.866
REMARK  Name = 65679
REMARK  0 active torsions:
REMARK  status: ('A' for Active; 'I' for Inactive)
REMARK                            x       y       z     vdW  Elec       q    Type
REMARK                         _______ _______ _______ _____ _____    ______ ____
ROOT
ATOM      1  S   UNL     1      33.646 -24.870 -14.188  0.00  0.00    +0.077 S 
ATOM      2  O   UNL     1      36.534 -22.293 -16.212  0.00  0.00    -0.406 OA
ATOM      3  O   UNL     1      34.045 -26.007 -14.993  0.00  0.00    -0.150 OA
ATOM      4  O   UNL     1      32.653 -25.000 -13.137  0.00  0.00    -0.150 OA
ATOM      5  O   UNL     1      33.047 -23.009 -18.052  0.00  0.00    -0.265 OA
ATOM      6  O   UNL     1      37.247 -20.976 -17.867  0.00  0.00    -0.222 OA
ATOM      7  N   UNL     1      33.198 -23.558 -15.209  0.00  0.00    -0.181 N 
ATOM      8  N   UNL     1      35.054 -21.814 -17.997  0.00  0.00    -0.193 N 
ATOM      9  C   UNL     1      34.256 -23.022 -16.028  0.00  0.00    +0.160 A 
ATOM     10  C   UNL     1      35.100 -24.241 -13.434  0.00  0.00    +0.128 C 
ATOM     11  C   UNL     1      35.852 -23.293 -14.129  0.00  0.00    +0.055 C 
ATOM     12  C   UNL     1      35.477 -22.878 -15.495  0.00  0.00    +0.171 A 
ATOM     13  C   UNL     1      34.029 -22.600 -17.433  0.00  0.00    +0.288 A 
ATOM     14  C   UNL     1      31.788 -23.539 -15.662  0.00  0.00    +0.139 C 
ATOM     15  C   UNL     1      35.440 -24.669 -12.150  0.00  0.00    +0.020 C 
ATOM     16  C   UNL     1      36.993 -22.780 -13.492  0.00  0.00    +0.004 C 
ATOM     17  C   UNL     1      36.328 -21.654 -17.410  0.00  0.00    +0.429 A 
ATOM     18  C   UNL     1      36.573 -24.146 -11.537  0.00  0.00    +0.001 C 
ATOM     19  C   UNL     1      37.350 -23.202 -12.206  0.00  0.00    +0.000 C 
ATOM     20  N   UNL     1      35.848 -20.998 -20.111  0.00  0.00    -0.226 NA
ATOM     21  C   UNL     1      34.800 -21.206 -19.286  0.00  0.00    +0.155 C 
ATOM     22  C   UNL     1      33.491 -20.879 -19.585  0.00  0.00    +0.038 C 
ATOM     23  C   UNL     1      33.237 -20.294 -20.821  0.00  0.00    +0.005 C 
ATOM     24  C   UNL     1      35.562 -20.429 -21.303  0.00  0.00    +0.101 C 
ATOM     25  C   UNL     1      34.287 -20.061 -21.702  0.00  0.00    +0.021 C 
ENDROOT
TORSDOF 0
ENDMDL
MODEL 4
REMARK VINA RESULT:      -8.0      3.303      6.687
REMARK  Name = 65679
REMARK  0 active torsions:
REMARK  status: ('A' for Active; 'I' for Inactive)
REMARK                            x       y       z     vdW  Elec       q    Type
REMARK                         _______ _______ _______ _____ _____    ______ ____
ROOT
ATOM      1  S   UNL     1      32.758 -24.088 -13.951  0.00  0.00    +0.077 S 
ATOM      2  O   UNL     1      31.849 -22.407 -17.878  0.00  0.00    -0.406 OA
ATOM      3  O   UNL     1      32.750 -22.770 -13.347  0.00  0.00    -0.150 OA
ATOM      4  O   UNL     1      32.960 -25.283 -13.152  0.00  0.00    -0.150 OA
ATOM      5  O   UNL     1      35.650 -22.276 -16.615  0.00  0.00    -0.265 OA
ATOM      6  O   UNL     1      32.359 -21.426 -19.817  0.00  0.00    -0.222 OA
ATOM      7  N   UNL     1      33.856 -24.118 -15.275  0.00  0.00    -0.181 N 
ATOM      8  N   UNL     1      34.123 -21.947 -18.353  0.00  0.00    -0.193 N 
ATOM      9  C   UNL     1      33.519 -23.256 -16.380  0.00  0.00    +0.160 A 
ATOM     10  C   UNL     1      31.220 -24.285 -14.773  0.00  0.00    +0.128 C 
ATOM     11  C   UNL     1      31.112 -23.846 -16.093  0.00  0.00    +0.055 C 
ATOM     12  C   UNL     1      32.239 -23.169 -16.763  0.00  0.00    +0.171 A 
ATOM     13  C   UNL     1      34.548 -22.485 -17.121  0.00  0.00    +0.288 A 
ATOM     14  C   UNL     1      35.267 -24.429 -14.943  0.00  0.00    +0.139 C 
ATOM     15  C   UNL     1      30.167 -24.909 -14.103  0.00  0.00    +0.020 C 
ATOM     16  C   UNL     1      29.882 -24.043 -16.740  0.00  0.00    +0.004 C 
ATOM     17  C   UNL     1      32.770 -21.883 -18.751  0.00  0.00    +0.429 A 
ATOM     18  C   UNL     1      28.958 -25.096 -14.765  0.00  0.00    +0.001 C 
ATOM     19  C   UNL     1      28.814 -24.664 -16.082  0.00  0.00    +0.000 C 
ATOM     20  N   UNL     1      34.765 -20.348 -20.025  0.00  0.00    -0.226 NA
ATOM     21  C   UNL     1      35.131 -21.361 -19.212  0.00  0.00    +0.155 C 
ATOM     22  C   UNL     1      36.408 -21.884 -19.137  0.00  0.00    +0.038 C 
ATOM     23  C   UNL     1      37.383 -21.328 -19.958  0.00  0.00    +0.005 C 
ATOM     24  C   UNL     1      35.740 -19.834 -20.808  0.00  0.00    +0.101 C 
ATOM     25  C   UNL     1      37.051 -20.283 -20.813  0.00  0.00    +0.021 C 
ENDROOT
TORSDOF 0
ENDMDL
MODEL 5
REMARK VINA RESULT:      -8.0     11.669     13.802
REMARK  Name = 65679
REMARK  0 active torsions:
REMARK  status: ('A' for Active; 'I' for Inactive)
REMARK                            x       y       z     vdW  Elec       q    Type
REMARK                         _______ _______ _______ _____ _____    ______ ____
ROOT
ATOM      1  S   UNL     1      34.679 -16.565 -24.529  0.00  0.00    +0.077 S 
ATOM      2  O   UNL     1      33.111 -14.688 -20.911  0.00  0.00    -0.406 OA
ATOM      3  O   UNL     1      35.992 -15.993 -24.298  0.00  0.00    -0.150 OA
ATOM      4  O   UNL     1      34.431 -17.455 -25.648  0.00  0.00    -0.150 OA
ATOM      5  O   UNL     1      33.404 -12.439 -24.215  0.00  0.00    -0.265 OA
ATOM      6  O   UNL     1      32.257 -13.002 -19.722  0.00  0.00    -0.222 OA
ATOM      7  N   UNL     1      33.493 -15.319 -24.543  0.00  0.00    -0.181 N 
ATOM      8  N   UNL     1      32.646 -12.645 -22.014  0.00  0.00    -0.193 N 
ATOM      9  C   UNL     1      33.324 -14.610 -23.299  0.00  0.00    +0.160 A 
ATOM     10  C   UNL     1      34.240 -17.445 -23.076  0.00  0.00    +0.128 C 
ATOM     11  C   UNL     1      33.593 -16.754 -22.051  0.00  0.00    +0.055 C 
ATOM     12  C   UNL     1      33.344 -15.303 -22.153  0.00  0.00    +0.171 A 
ATOM     13  C   UNL     1      33.104 -13.143 -23.251  0.00  0.00    +0.288 A 
ATOM     14  C   UNL     1      33.264 -14.652 -25.846  0.00  0.00    +0.139 C 
ATOM     15  C   UNL     1      34.510 -18.812 -23.002  0.00  0.00    +0.020 C 
ATOM     16  C   UNL     1      33.223 -17.486 -20.913  0.00  0.00    +0.004 C 
ATOM     17  C   UNL     1      32.651 -13.397 -20.819  0.00  0.00    +0.429 A 
ATOM     18  C   UNL     1      34.132 -19.518 -21.865  0.00  0.00    +0.001 C 
ATOM     19  C   UNL     1      33.489 -18.857 -20.821  0.00  0.00    +0.000 C 
ATOM     20  N   UNL     1      32.369 -10.591 -20.803  0.00  0.00    -0.226 NA
ATOM     21  C   UNL     1      32.221 -11.261 -21.964  0.00  0.00    +0.155 C 
ATOM     22  C   UNL     1      31.691 -10.720 -23.119  0.00  0.00    +0.038 C 
ATOM     23  C   UNL     1      31.280  -9.392 -23.082  0.00  0.00    +0.005 C 
ATOM     24  C   UNL     1      31.959  -9.303 -20.804  0.00  0.00    +0.101 C 
ATOM     25  C   UNL     1      31.413  -8.663 -21.905  0.00  0.00    +0.021 C 
ENDROOT
TORSDOF 0
ENDMDL
MODEL 6
REMARK VINA RESULT:      -7.9      2.543      4.193
REMARK  Name = 65679
REMARK  0 active torsions:
REMARK  status: ('A' for Active; 'I' for Inactive)
REMARK                            x       y       z     vdW  Elec       q    Type
REMARK                         _______ _______ _______ _____ _____    ______ ____
ROOT
ATOM      1  S   UNL     1      36.094 -23.016 -15.633  0.00  0.00    +0.077 S 
ATOM      2  O   UNL     1      32.541 -23.492 -13.138  0.00  0.00    -0.406 OA
ATOM      3  O   UNL     1      36.053 -21.575 -15.475  0.00  0.00    -0.150 OA
ATOM      4  O   UNL     1      37.159 -23.663 -16.376  0.00  0.00    -0.150 OA
ATOM      5  O   UNL     1      32.015 -22.459 -16.974  0.00  0.00    -0.265 OA
ATOM      6  O   UNL     1      30.344 -23.515 -12.743  0.00  0.00    -0.222 OA
ATOM      7  N   UNL     1      34.582 -23.582 -16.230  0.00  0.00    -0.181 N 
ATOM      8  N   UNL     1      31.059 -23.126 -14.949  0.00  0.00    -0.193 N 
ATOM      9  C   UNL     1      33.456 -23.382 -15.353  0.00  0.00    +0.160 A 
ATOM     10  C   UNL     1      36.110 -23.707 -14.020  0.00  0.00    +0.128 C 
ATOM     11  C   UNL     1      34.889 -23.962 -13.394  0.00  0.00    +0.055 C 
ATOM     12  C   UNL     1      33.614 -23.595 -14.040  0.00  0.00    +0.171 A 
ATOM     13  C   UNL     1      32.122 -22.975 -15.862  0.00  0.00    +0.288 A 
ATOM     14  C   UNL     1      34.422 -23.578 -17.702  0.00  0.00    +0.139 C 
ATOM     15  C   UNL     1      37.334 -24.023 -13.429  0.00  0.00    +0.020 C 
ATOM     16  C   UNL     1      34.927 -24.545 -12.119  0.00  0.00    +0.004 C 
ATOM     17  C   UNL     1      31.243 -23.373 -13.571  0.00  0.00    +0.429 A 
ATOM     18  C   UNL     1      37.348 -24.602 -12.165  0.00  0.00    +0.001 C 
ATOM     19  C   UNL     1      36.146 -24.864 -11.509  0.00  0.00    +0.000 C 
ATOM     20  N   UNL     1      28.776 -22.471 -14.599  0.00  0.00    -0.226 NA
ATOM     21  C   UNL     1      29.713 -22.939 -15.449  0.00  0.00    +0.155 C 
ATOM     22  C   UNL     1      29.482 -23.254 -16.774  0.00  0.00    +0.038 C 
ATOM     23  C   UNL     1      28.192 -23.078 -17.265  0.00  0.00    +0.005 C 
ATOM     24  C   UNL     1      27.535 -22.313 -15.111  0.00  0.00    +0.101 C 
ATOM     25  C   UNL     1      27.194 -22.599 -16.424  0.00  0.00    +0.021 C 
ENDROOT
TORSDOF 0
ENDMDL
MODEL 7
REMARK VINA RESULT:      -7.8      1.758      2.506
REMARK  Name = 65679
REMARK  0 active torsions:
REMARK  status: ('A' for Active; 'I' for Inactive)
REMARK                            x       y       z     vdW  Elec       q    Type
REMARK                         _______ _______ _______ _____ _____    ______ ____
ROOT
ATOM      1  S   UNL     1      35.930 -24.816 -14.007  0.00  0.00    +0.077 S 
ATOM      2  O   UNL     1      33.694 -22.780 -17.158  0.00  0.00    -0.406 OA
ATOM      3  O   UNL     1      35.686 -26.107 -14.620  0.00  0.00    -0.150 OA
ATOM      4  O   UNL     1      36.748 -24.690 -12.814  0.00  0.00    -0.150 OA
ATOM      5  O   UNL     1      31.616 -24.497 -14.192  0.00  0.00    -0.265 OA
ATOM      6  O   UNL     1      31.840 -22.044 -18.160  0.00  0.00    -0.222 OA
ATOM      7  N   UNL     1      34.437 -24.003 -13.739  0.00  0.00    -0.181 N 
ATOM      8  N   UNL     1      31.611 -23.129 -16.086  0.00  0.00    -0.193 N 
ATOM      9  C   UNL     1      33.695 -23.663 -14.927  0.00  0.00    +0.160 A 
ATOM     10  C   UNL     1      36.664 -23.797 -15.232  0.00  0.00    +0.128 C 
ATOM     11  C   UNL     1      35.827 -23.067 -16.078  0.00  0.00    +0.055 C 
ATOM     12  C   UNL     1      34.360 -23.201 -15.994  0.00  0.00    +0.171 A 
ATOM     13  C   UNL     1      32.217 -23.785 -14.996  0.00  0.00    +0.288 A 
ATOM     14  C   UNL     1      33.750 -24.309 -12.463  0.00  0.00    +0.139 C 
ATOM     15  C   UNL     1      38.055 -23.710 -15.300  0.00  0.00    +0.020 C 
ATOM     16  C   UNL     1      36.438 -22.235 -17.028  0.00  0.00    +0.004 C 
ATOM     17  C   UNL     1      32.330 -22.626 -17.192  0.00  0.00    +0.429 A 
ATOM     18  C   UNL     1      38.638 -22.877 -16.248  0.00  0.00    +0.001 C 
ATOM     19  C   UNL     1      37.831 -22.139 -17.112  0.00  0.00    +0.000 C 
ATOM     20  N   UNL     1      29.537 -23.010 -17.289  0.00  0.00    -0.226 NA
ATOM     21  C   UNL     1      30.165 -23.040 -16.096  0.00  0.00    +0.155 C 
ATOM     22  C   UNL     1      29.526 -22.995 -14.872  0.00  0.00    +0.038 C 
ATOM     23  C   UNL     1      28.138 -22.910 -14.870  0.00  0.00    +0.005 C 
ATOM     24  C   UNL     1      28.188 -22.927 -17.248  0.00  0.00    +0.101 C 
ATOM     25  C   UNL     1      27.448 -22.874 -16.077  0.00  0.00    +0.021 C 
ENDROOT
TORSDOF 0
ENDMDL
MODEL 8
REMARK VINA RESULT:      -7.3     12.403     14.585
REMARK  Name = 65679
REMARK  0 active torsions:
REMARK  status: ('A' for Active; 'I' for Inactive)
REMARK                            x       y       z     vdW  Elec       q    Type
REMARK                         _______ _______ _______ _____ _____    ______ ____
ROOT
ATOM      1  S   UNL     1      34.262 -15.784 -23.994  0.00  0.00    +0.077 S 
ATOM      2  O   UNL     1      32.457 -13.478 -20.753  0.00  0.00    -0.406 OA
ATOM      3  O   UNL     1      35.586 -15.314 -23.637  0.00  0.00    -0.150 OA
ATOM      4  O   UNL     1      34.065 -16.739 -25.068  0.00  0.00    -0.150 OA
ATOM      5  O   UNL     1      33.372 -11.549 -24.145  0.00  0.00    -0.265 OA
ATOM      6  O   UNL     1      31.636 -11.629 -19.810  0.00  0.00    -0.222 OA
ATOM      7  N   UNL     1      33.215 -14.442 -24.250  0.00  0.00    -0.181 N 
ATOM      8  N   UNL     1      32.335 -11.501 -22.051  0.00  0.00    -0.193 N 
ATOM      9  C   UNL     1      32.967 -13.620 -23.093  0.00  0.00    +0.160 A 
ATOM     10  C   UNL     1      33.564 -16.497 -22.550  0.00  0.00    +0.128 C 
ATOM     11  C   UNL     1      32.868 -15.667 -21.670  0.00  0.00    +0.055 C 
ATOM     12  C   UNL     1      32.778 -14.213 -21.907  0.00  0.00    +0.171 A 
ATOM     13  C   UNL     1      32.889 -12.140 -23.179  0.00  0.00    +0.288 A 
ATOM     14  C   UNL     1      33.214 -13.870 -25.617  0.00  0.00    +0.139 C 
ATOM     15  C   UNL     1      33.686 -17.871 -22.344  0.00  0.00    +0.020 C 
ATOM     16  C   UNL     1      32.291 -16.265 -20.540  0.00  0.00    +0.004 C 
ATOM     17  C   UNL     1      32.120 -12.148 -20.815  0.00  0.00    +0.429 A 
ATOM     18  C   UNL     1      33.104 -18.443 -21.218  0.00  0.00    +0.001 C 
ATOM     19  C   UNL     1      32.407 -17.642 -20.316  0.00  0.00    +0.000 C 
ATOM     20  N   UNL     1      32.117  -9.336 -21.037  0.00  0.00    -0.226 NA
ATOM     21  C   UNL     1      32.046 -10.086 -22.156  0.00  0.00    +0.155 C 
ATOM     22  C   UNL     1      31.717  -9.599 -23.407  0.00  0.00    +0.038 C 
ATOM     23  C   UNL     1      31.438  -8.241 -23.518  0.00  0.00    +0.005 C 
ATOM     24  C   UNL     1      31.839  -8.022 -21.184  0.00  0.00    +0.101 C 
ATOM     25  C   UNL     1      31.498  -7.430 -22.390  0.00  0.00    +0.021 C 
ENDROOT
TORSDOF 0
ENDMDL
MODEL 9
REMARK VINA RESULT:      -7.2      4.271      7.297
REMARK  Name = 65679
REMARK  0 active torsions:
REMARK  status: ('A' for Active; 'I' for Inactive)
REMARK                            x       y       z     vdW  Elec       q    Type
REMARK                         _______ _______ _______ _____ _____    ______ ____
ROOT
ATOM      1  S   UNL     1      33.171 -21.515 -19.790  0.00  0.00    +0.077 S 
ATOM      2  O   UNL     1      36.921 -21.026 -17.607  0.00  0.00    -0.406 OA
ATOM      3  O   UNL     1      32.454 -20.729 -18.805  0.00  0.00    -0.150 OA
ATOM      4  O   UNL     1      32.505 -22.028 -20.975  0.00  0.00    -0.150 OA
ATOM      5  O   UNL     1      34.354 -23.823 -16.324  0.00  0.00    -0.265 OA
ATOM      6  O   UNL     1      38.406 -21.521 -16.015  0.00  0.00    -0.222 OA
ATOM      7  N   UNL     1      33.996 -22.812 -19.017  0.00  0.00    -0.181 N 
ATOM      8  N   UNL     1      36.475 -22.854 -16.169  0.00  0.00    -0.193 N 
ATOM      9  C   UNL     1      35.034 -22.424 -18.095  0.00  0.00    +0.160 A 
ATOM     10  C   UNL     1      34.514 -20.535 -20.351  0.00  0.00    +0.128 C 
ATOM     11  C   UNL     1      35.718 -20.595 -19.649  0.00  0.00    +0.055 C 
ATOM     12  C   UNL     1      35.843 -21.409 -18.424  0.00  0.00    +0.171 A 
ATOM     13  C   UNL     1      35.249 -23.130 -16.807  0.00  0.00    +0.288 A 
ATOM     14  C   UNL     1      33.214 -24.054 -18.818  0.00  0.00    +0.139 C 
ATOM     15  C   UNL     1      34.356 -19.759 -21.500  0.00  0.00    +0.020 C 
ATOM     16  C   UNL     1      36.787 -19.827 -20.135  0.00  0.00    +0.004 C 
ATOM     17  C   UNL     1      37.328 -21.793 -16.543  0.00  0.00    +0.429 A 
ATOM     18  C   UNL     1      35.430 -19.008 -21.965  0.00  0.00    +0.001 C 
ATOM     19  C   UNL     1      36.645 -19.041 -21.284  0.00  0.00    +0.000 C 
ATOM     20  N   UNL     1      37.590 -23.099 -14.056  0.00  0.00    -0.226 NA
ATOM     21  C   UNL     1      36.829 -23.660 -15.019  0.00  0.00    +0.155 C 
ATOM     22  C   UNL     1      36.359 -24.959 -14.989  0.00  0.00    +0.038 C 
ATOM     23  C   UNL     1      36.693 -25.742 -13.890  0.00  0.00    +0.005 C 
ATOM     24  C   UNL     1      37.894 -23.890 -13.004  0.00  0.00    +0.101 C 
ATOM     25  C   UNL     1      37.476 -25.205 -12.874  0.00  0.00    +0.021 C 
ENDROOT
TORSDOF 0
ENDMDL
