MODEL 1
REMARK VINA RESULT:     -10.8      0.000      0.000
REMARK  Name = 25052023
REMARK  8 active torsions:
REMARK  status: ('A' for Active; 'I' for Inactive)
REMARK    1  A    between atoms: N_1  and  C_31
REMARK    2  A    between atoms: C_2  and  C_7
REMARK    3  A    between atoms: C_4  and  C_19
REMARK    4  A    between atoms: C_8  and  C_16
REMARK    5  A    between atoms: N_18  and  C_21
REMARK    6  A    between atoms: C_22  and  S_27
REMARK    7  A    between atoms: C_31  and  C_32
REMARK    8  A    between atoms: C_32  and  O_33
REMARK                            x       y       z     vdW  Elec       q    Type
REMARK                         _______ _______ _______ _____ _____    ______ ____
ROOT
ATOM      1  N   UNL     1      33.329 -14.357 -24.825  0.00  0.00    -0.283 N 
ATOM      2  C   UNL     1      33.769 -13.628 -23.751  0.00  0.00    +0.048 C 
ATOM      3  C   UNL     1      34.305 -14.506 -22.835  0.00  0.00    -0.003 C 
ATOM      4  C   UNL     1      34.182 -15.810 -23.378  0.00  0.00    +0.066 C 
ATOM      5  C   UNL     1      33.576 -15.688 -24.609  0.00  0.00    +0.070 C 
ATOM      6  C   UNL     1      34.899 -14.160 -21.527  0.00  0.00    +0.033 C 
ENDROOT
BRANCH   2   7
ATOM      7  C   UNL     1      33.650 -12.189 -23.680  0.00  0.00    +0.017 C 
ATOM      8  C   UNL     1      32.729 -11.583 -22.827  0.00  0.00    +0.073 C 
ATOM      9  C   UNL     1      34.478 -11.404 -24.484  0.00  0.00    +0.001 C 
ATOM     10  C   UNL     1      32.633 -10.193 -22.778  0.00  0.00    +0.004 C 
ATOM     11  C   UNL     1      34.381 -10.013 -24.435  0.00  0.00    +0.000 C 
ATOM     12  C   UNL     1      33.459  -9.408 -23.582  0.00  0.00    -0.000 C 
BRANCH   8  16
ATOM     13  F   UNL     1      31.537 -13.625 -22.460  0.00  0.00    -0.166 F 
ATOM     14  F   UNL     1      32.336 -12.625 -20.709  0.00  0.00    -0.166 F 
ATOM     15  F   UNL     1      30.619 -11.787 -21.749  0.00  0.00    -0.166 F 
ATOM     16  C   UNL     1      31.825 -12.392 -21.952  0.00  0.00    +0.419 C 
ENDBRANCH   8  16
ENDBRANCH   2   7
BRANCH   4  19
ATOM     17  O   UNL     1      35.701 -17.551 -23.110  0.00  0.00    -0.270 OA
ATOM     18  N   UNL     1      33.708 -17.649 -21.877  0.00  0.00    -0.280 N 
ATOM     19  C   UNL     1      34.594 -17.057 -22.801  0.00  0.00    +0.250 C 
ATOM     20  H   UNL     1      32.869 -17.157 -21.723  0.00  0.00    +0.155 HD
BRANCH  18  21
ATOM     21  C   UNL     1      33.853 -18.850 -21.140  0.00  0.00    +0.051 C 
ATOM     22  C   UNL     1      34.138 -21.215 -19.688  0.00  0.00    +0.106 C 
ATOM     23  C   UNL     1      35.123 -19.377 -20.908  0.00  0.00    +0.016 C 
ATOM     24  C   UNL     1      32.725 -19.505 -20.645  0.00  0.00    +0.016 C 
ATOM     25  C   UNL     1      35.265 -20.560 -20.182  0.00  0.00    +0.020 C 
ATOM     26  C   UNL     1      32.867 -20.687 -19.920  0.00  0.00    +0.020 C 
BRANCH  22  27
ATOM     27  S   UNL     1      34.316 -22.695 -18.779  0.00  0.00    +0.010 S 
ATOM     28  O   UNL     1      34.226 -23.808 -19.713  0.00  0.00    -0.169 OA
ATOM     29  O   UNL     1      35.475 -22.576 -17.906  0.00  0.00    -0.169 OA
ATOM     30  C   UNL     1      32.880 -22.743 -17.729  0.00  0.00    +0.182 C 
ENDBRANCH  22  27
ENDBRANCH  18  21
ENDBRANCH   4  19
BRANCH   1  31
ATOM     31  C   UNL     1      32.696 -13.831 -26.015  0.00  0.00    +0.127 C 
BRANCH  31  32
ATOM     32  C   UNL     1      33.389 -14.290 -27.293  0.00  0.00    +0.159 C 
BRANCH  32  33
ATOM     33  O   UNL     1      34.174 -13.230 -27.822  0.00  0.00    -0.380 OA
ATOM     34  H   UNL     1      33.638 -12.706 -28.437  0.00  0.00    +0.211 HD
ENDBRANCH  32  33
ENDBRANCH  31  32
ENDBRANCH   1  31
TORSDOF 8
ENDMDL
MODEL 2
REMARK VINA RESULT:     -10.5      3.404      5.476
REMARK  Name = 25052023
REMARK  8 active torsions:
REMARK  status: ('A' for Active; 'I' for Inactive)
REMARK    1  A    between atoms: N_1  and  C_31
REMARK    2  A    between atoms: C_2  and  C_7
REMARK    3  A    between atoms: C_4  and  C_19
REMARK    4  A    between atoms: C_8  and  C_16
REMARK    5  A    between atoms: N_18  and  C_21
REMARK    6  A    between atoms: C_22  and  S_27
REMARK    7  A    between atoms: C_31  and  C_32
REMARK    8  A    between atoms: C_32  and  O_33
REMARK                            x       y       z     vdW  Elec       q    Type
REMARK                         _______ _______ _______ _____ _____    ______ ____
ROOT
ATOM      1  N   UNL     1      34.024  -8.617 -23.795  0.00  0.00    -0.283 N 
ATOM      2  C   UNL     1      32.762  -8.688 -23.265  0.00  0.00    +0.048 C 
ATOM      3  C   UNL     1      32.421 -10.018 -23.160  0.00  0.00    -0.003 C 
ATOM      4  C   UNL     1      33.518 -10.775 -23.644  0.00  0.00    +0.066 C 
ATOM      5  C   UNL     1      34.495  -9.883 -24.029  0.00  0.00    +0.070 C 
ATOM      6  C   UNL     1      31.149 -10.563 -22.640  0.00  0.00    +0.033 C 
ENDROOT
BRANCH   2   7
ATOM      7  C   UNL     1      31.997  -7.514 -22.909  0.00  0.00    +0.017 C 
ATOM      8  C   UNL     1      32.043  -6.988 -21.618  0.00  0.00    +0.073 C 
ATOM      9  C   UNL     1      31.202  -6.907 -23.882  0.00  0.00    +0.001 C 
ATOM     10  C   UNL     1      31.295  -5.856 -21.299  0.00  0.00    +0.004 C 
ATOM     11  C   UNL     1      30.453  -5.774 -23.562  0.00  0.00    +0.000 C 
ATOM     12  C   UNL     1      30.500  -5.249 -22.271  0.00  0.00    -0.000 C 
BRANCH   8  16
ATOM     13  F   UNL     1      32.450  -8.853 -20.175  0.00  0.00    -0.166 F 
ATOM     14  F   UNL     1      34.186  -7.780 -20.909  0.00  0.00    -0.166 F 
ATOM     15  F   UNL     1      32.905  -6.871 -19.405  0.00  0.00    -0.166 F 
ATOM     16  C   UNL     1      32.881  -7.614 -20.549  0.00  0.00    +0.419 C 
ENDBRANCH   8  16
ENDBRANCH   2   7
BRANCH   4  19
ATOM     17  O   UNL     1      33.398 -12.778 -24.820  0.00  0.00    -0.270 OA
ATOM     18  N   UNL     1      34.072 -12.874 -22.575  0.00  0.00    -0.280 N 
ATOM     19  C   UNL     1      33.643 -12.201 -23.737  0.00  0.00    +0.250 C 
ATOM     20  H   UNL     1      34.231 -12.302 -21.790  0.00  0.00    +0.155 HD
BRANCH  18  21
ATOM     21  C   UNL     1      34.306 -14.257 -22.376  0.00  0.00    +0.051 C 
ATOM     22  C   UNL     1      34.769 -16.980 -21.983  0.00  0.00    +0.106 C 
ATOM     23  C   UNL     1      34.302 -14.786 -21.085  0.00  0.00    +0.016 C 
ATOM     24  C   UNL     1      34.542 -15.090 -23.471  0.00  0.00    +0.016 C 
ATOM     25  C   UNL     1      34.533 -16.148 -20.890  0.00  0.00    +0.020 C 
ATOM     26  C   UNL     1      34.773 -16.451 -23.274  0.00  0.00    +0.020 C 
BRANCH  22  27
ATOM     27  S   UNL     1      35.057 -18.685 -21.738  0.00  0.00    +0.010 S 
ATOM     28  O   UNL     1      35.176 -19.312 -23.047  0.00  0.00    -0.169 OA
ATOM     29  O   UNL     1      36.122 -18.847 -20.759  0.00  0.00    -0.169 OA
ATOM     30  C   UNL     1      33.562 -19.280 -20.980  0.00  0.00    +0.182 C 
ENDBRANCH  22  27
ENDBRANCH  18  21
ENDBRANCH   4  19
BRANCH   1  31
ATOM     31  C   UNL     1      34.768  -7.409 -24.075  0.00  0.00    +0.127 C 
BRANCH  31  32
ATOM     32  C   UNL     1      34.562  -6.919 -25.504  0.00  0.00    +0.159 C 
BRANCH  32  33
ATOM     33  O   UNL     1      33.842  -5.693 -25.492  0.00  0.00    -0.380 OA
ATOM     34  H   UNL     1      34.172  -5.116 -26.198  0.00  0.00    +0.211 HD
ENDBRANCH  32  33
ENDBRANCH  31  32
ENDBRANCH   1  31
TORSDOF 8
ENDMDL
MODEL 3
REMARK VINA RESULT:     -10.0      4.502      9.318
REMARK  Name = 25052023
REMARK  8 active torsions:
REMARK  status: ('A' for Active; 'I' for Inactive)
REMARK    1  A    between atoms: N_1  and  C_31
REMARK    2  A    between atoms: C_2  and  C_7
REMARK    3  A    between atoms: C_4  and  C_19
REMARK    4  A    between atoms: C_8  and  C_16
REMARK    5  A    between atoms: N_18  and  C_21
REMARK    6  A    between atoms: C_22  and  S_27
REMARK    7  A    between atoms: C_31  and  C_32
REMARK    8  A    between atoms: C_32  and  O_33
REMARK                            x       y       z     vdW  Elec       q    Type
REMARK                         _______ _______ _______ _____ _____    ______ ____
ROOT
ATOM      1  N   UNL     1      34.321 -17.331 -23.131  0.00  0.00    -0.283 N 
ATOM      2  C   UNL     1      34.678 -17.403 -21.810  0.00  0.00    +0.048 C 
ATOM      3  C   UNL     1      34.372 -16.196 -21.223  0.00  0.00    -0.003 C 
ATOM      4  C   UNL     1      33.811 -15.368 -22.227  0.00  0.00    +0.066 C 
ATOM      5  C   UNL     1      33.791 -16.096 -23.397  0.00  0.00    +0.070 C 
ATOM      6  C   UNL     1      34.587 -15.825 -19.808  0.00  0.00    +0.033 C 
ENDROOT
BRANCH   2   7
ATOM      7  C   UNL     1      35.268 -18.585 -21.222  0.00  0.00    +0.017 C 
ATOM      8  C   UNL     1      34.472 -19.600 -20.692  0.00  0.00    +0.073 C 
ATOM      9  C   UNL     1      36.658 -18.701 -21.191  0.00  0.00    +0.001 C 
ATOM     10  C   UNL     1      35.064 -20.729 -20.129  0.00  0.00    +0.004 C 
ATOM     11  C   UNL     1      37.251 -19.831 -20.628  0.00  0.00    +0.000 C 
ATOM     12  C   UNL     1      36.454 -20.845 -20.097  0.00  0.00    -0.000 C 
BRANCH   8  16
ATOM     13  F   UNL     1      32.510 -18.236 -20.569  0.00  0.00    -0.166 F 
ATOM     14  F   UNL     1      32.416 -19.980 -21.856  0.00  0.00    -0.166 F 
ATOM     15  F   UNL     1      32.405 -20.224 -19.695  0.00  0.00    -0.166 F 
ATOM     16  C   UNL     1      32.979 -19.510 -20.705  0.00  0.00    +0.419 C 
ENDBRANCH   8  16
ENDBRANCH   2   7
BRANCH   4  19
ATOM     17  O   UNL     1      32.693 -13.674 -21.091  0.00  0.00    -0.270 OA
ATOM     18  N   UNL     1      33.655 -13.141 -23.162  0.00  0.00    -0.280 N 
ATOM     19  C   UNL     1      33.335 -14.019 -22.107  0.00  0.00    +0.250 C 
ATOM     20  H   UNL     1      34.166 -13.539 -23.904  0.00  0.00    +0.155 HD
BRANCH  18  21
ATOM     21  C   UNL     1      33.346 -11.766 -23.308  0.00  0.00    +0.051 C 
ATOM     22  C   UNL     1      32.738  -9.059 -23.596  0.00  0.00    +0.106 C 
ATOM     23  C   UNL     1      32.205 -11.240 -22.703  0.00  0.00    +0.016 C 
ATOM     24  C   UNL     1      34.184 -10.938 -24.057  0.00  0.00    +0.016 C 
ATOM     25  C   UNL     1      31.901  -9.886 -22.847  0.00  0.00    +0.020 C 
ATOM     26  C   UNL     1      33.879  -9.585 -24.201  0.00  0.00    +0.020 C 
BRANCH  22  27
ATOM     27  S   UNL     1      32.357  -7.364 -23.775  0.00  0.00    +0.010 S 
ATOM     28  O   UNL     1      33.497  -6.713 -24.405  0.00  0.00    -0.169 OA
ATOM     29  O   UNL     1      31.034  -7.237 -24.368  0.00  0.00    -0.169 OA
ATOM     30  C   UNL     1      32.236  -6.760 -22.106  0.00  0.00    +0.182 C 
ENDBRANCH  22  27
ENDBRANCH  18  21
ENDBRANCH   4  19
BRANCH   1  31
ATOM     31  C   UNL     1      34.470 -18.380 -24.116  0.00  0.00    +0.127 C 
BRANCH  31  32
ATOM     32  C   UNL     1      34.115 -17.911 -25.522  0.00  0.00    +0.159 C 
BRANCH  32  33
ATOM     33  O   UNL     1      35.011 -16.885 -25.928  0.00  0.00    -0.380 OA
ATOM     34  H   UNL     1      34.902 -16.716 -26.876  0.00  0.00    +0.211 HD
ENDBRANCH  32  33
ENDBRANCH  31  32
ENDBRANCH   1  31
TORSDOF 8
ENDMDL
MODEL 4
REMARK VINA RESULT:      -9.8      6.601     12.751
REMARK  Name = 25052023
REMARK  8 active torsions:
REMARK  status: ('A' for Active; 'I' for Inactive)
REMARK    1  A    between atoms: N_1  and  C_31
REMARK    2  A    between atoms: C_2  and  C_7
REMARK    3  A    between atoms: C_4  and  C_19
REMARK    4  A    between atoms: C_8  and  C_16
REMARK    5  A    between atoms: N_18  and  C_21
REMARK    6  A    between atoms: C_22  and  S_27
REMARK    7  A    between atoms: C_31  and  C_32
REMARK    8  A    between atoms: C_32  and  O_33
REMARK                            x       y       z     vdW  Elec       q    Type
REMARK                         _______ _______ _______ _____ _____    ______ ____
ROOT
ATOM      1  N   UNL     1      33.894 -24.132 -14.814  0.00  0.00    -0.283 N 
ATOM      2  C   UNL     1      35.230 -23.827 -14.770  0.00  0.00    +0.048 C 
ATOM      3  C   UNL     1      35.579 -23.279 -15.984  0.00  0.00    -0.003 C 
ATOM      4  C   UNL     1      34.412 -23.254 -16.788  0.00  0.00    +0.066 C 
ATOM      5  C   UNL     1      33.385 -23.787 -16.039  0.00  0.00    +0.070 C 
ATOM      6  C   UNL     1      36.921 -22.804 -16.382  0.00  0.00    +0.033 C 
ENDROOT
BRANCH   2   7
ATOM      7  C   UNL     1      36.050 -24.073 -13.605  0.00  0.00    +0.017 C 
ATOM      8  C   UNL     1      36.859 -25.206 -13.520  0.00  0.00    +0.073 C 
ATOM      9  C   UNL     1      36.023 -23.154 -12.556  0.00  0.00    +0.001 C 
ATOM     10  C   UNL     1      37.640 -25.421 -12.386  0.00  0.00    +0.004 C 
ATOM     11  C   UNL     1      36.806 -23.370 -11.421  0.00  0.00    +0.000 C 
ATOM     12  C   UNL     1      37.613 -24.503 -11.336  0.00  0.00    -0.000 C 
BRANCH   8  16
ATOM     13  F   UNL     1      35.701 -26.439 -15.213  0.00  0.00    -0.166 F 
ATOM     14  F   UNL     1      37.747 -25.861 -15.642  0.00  0.00    -0.166 F 
ATOM     15  F   UNL     1      37.345 -27.434 -14.194  0.00  0.00    -0.166 F 
ATOM     16  C   UNL     1      36.911 -26.214 -14.623  0.00  0.00    +0.419 C 
ENDBRANCH   8  16
ENDBRANCH   2   7
BRANCH   4  19
ATOM     17  O   UNL     1      33.658 -23.468 -18.978  0.00  0.00    -0.270 OA
ATOM     18  N   UNL     1      34.814 -21.507 -18.414  0.00  0.00    -0.280 N 
ATOM     19  C   UNL     1      34.266 -22.775 -18.133  0.00  0.00    +0.250 C 
ATOM     20  H   UNL     1      35.268 -21.066 -17.659  0.00  0.00    +0.155 HD
BRANCH  18  21
ATOM     21  C   UNL     1      34.805 -20.776 -19.627  0.00  0.00    +0.051 C 
ATOM     22  C   UNL     1      34.787 -19.337 -22.017  0.00  0.00    +0.106 C 
ATOM     23  C   UNL     1      33.592 -20.401 -20.206  0.00  0.00    +0.016 C 
ATOM     24  C   UNL     1      36.008 -20.432 -20.243  0.00  0.00    +0.016 C 
ATOM     25  C   UNL     1      33.584 -19.681 -21.401  0.00  0.00    +0.020 C 
ATOM     26  C   UNL     1      35.999 -19.712 -21.438  0.00  0.00    +0.020 C 
BRANCH  22  27
ATOM     27  S   UNL     1      34.775 -18.435 -23.512  0.00  0.00    +0.010 S 
ATOM     28  O   UNL     1      36.152 -18.307 -23.968  0.00  0.00    -0.169 OA
ATOM     29  O   UNL     1      33.771 -19.004 -24.399  0.00  0.00    -0.169 OA
ATOM     30  C   UNL     1      34.200 -16.817 -23.048  0.00  0.00    +0.182 C 
ENDBRANCH  22  27
ENDBRANCH  18  21
ENDBRANCH   4  19
BRANCH   1  31
ATOM     31  C   UNL     1      33.116 -24.728 -13.750  0.00  0.00    +0.127 C 
BRANCH  31  32
ATOM     32  C   UNL     1      31.636 -24.830 -14.099  0.00  0.00    +0.159 C 
BRANCH  32  33
ATOM     33  O   UNL     1      30.878 -25.053 -12.918  0.00  0.00    -0.380 OA
ATOM     34  H   UNL     1      31.291 -24.587 -12.174  0.00  0.00    +0.211 HD
ENDBRANCH  32  33
ENDBRANCH  31  32
ENDBRANCH   1  31
TORSDOF 8
ENDMDL
MODEL 5
REMARK VINA RESULT:      -9.7      3.907      6.036
REMARK  Name = 25052023
REMARK  8 active torsions:
REMARK  status: ('A' for Active; 'I' for Inactive)
REMARK    1  A    between atoms: N_1  and  C_31
REMARK    2  A    between atoms: C_2  and  C_7
REMARK    3  A    between atoms: C_4  and  C_19
REMARK    4  A    between atoms: C_8  and  C_16
REMARK    5  A    between atoms: N_18  and  C_21
REMARK    6  A    between atoms: C_22  and  S_27
REMARK    7  A    between atoms: C_31  and  C_32
REMARK    8  A    between atoms: C_32  and  O_33
REMARK                            x       y       z     vdW  Elec       q    Type
REMARK                         _______ _______ _______ _____ _____    ______ ____
ROOT
ATOM      1  N   UNL     1      31.885  -8.803 -21.641  0.00  0.00    -0.283 N 
ATOM      2  C   UNL     1      32.201  -8.845 -22.974  0.00  0.00    +0.048 C 
ATOM      3  C   UNL     1      32.451 -10.158 -23.307  0.00  0.00    -0.003 C 
ATOM      4  C   UNL     1      32.280 -10.933 -22.132  0.00  0.00    +0.066 C 
ATOM      5  C   UNL     1      31.929 -10.070 -21.118  0.00  0.00    +0.070 C 
ATOM      6  C   UNL     1      32.830 -10.671 -24.641  0.00  0.00    +0.033 C 
ENDROOT
BRANCH   2   7
ATOM      7  C   UNL     1      32.239  -7.665 -23.807  0.00  0.00    +0.017 C 
ATOM      8  C   UNL     1      33.445  -7.035 -24.109  0.00  0.00    +0.073 C 
ATOM      9  C   UNL     1      31.041  -7.157 -24.311  0.00  0.00    +0.001 C 
ATOM     10  C   UNL     1      33.455  -5.897 -24.914  0.00  0.00    +0.004 C 
ATOM     11  C   UNL     1      31.051  -6.018 -25.116  0.00  0.00    +0.000 C 
ATOM     12  C   UNL     1      32.258  -5.388 -25.418  0.00  0.00    -0.000 C 
BRANCH   8  16
ATOM     13  F   UNL     1      34.766  -7.704 -22.230  0.00  0.00    -0.166 F 
ATOM     14  F   UNL     1      35.096  -8.767 -24.092  0.00  0.00    -0.166 F 
ATOM     15  F   UNL     1      35.790  -6.717 -23.875  0.00  0.00    -0.166 F 
ATOM     16  C   UNL     1      34.748  -7.549 -23.585  0.00  0.00    +0.419 C 
ENDBRANCH   8  16
ENDBRANCH   2   7
BRANCH   4  19
ATOM     17  O   UNL     1      31.487 -13.027 -21.502  0.00  0.00    -0.270 OA
ATOM     18  N   UNL     1      33.656 -12.908 -22.387  0.00  0.00    -0.280 N 
ATOM     19  C   UNL     1      32.429 -12.351 -21.971  0.00  0.00    +0.250 C 
ATOM     20  H   UNL     1      34.314 -12.265 -22.738  0.00  0.00    +0.155 HD
BRANCH  18  21
ATOM     21  C   UNL     1      34.076 -14.261 -22.373  0.00  0.00    +0.051 C 
ATOM     22  C   UNL     1      34.904 -16.924 -22.343  0.00  0.00    +0.106 C 
ATOM     23  C   UNL     1      34.309 -14.905 -21.158  0.00  0.00    +0.016 C 
ATOM     24  C   UNL     1      34.257 -14.948 -23.573  0.00  0.00    +0.016 C 
ATOM     25  C   UNL     1      34.723 -16.237 -21.144  0.00  0.00    +0.020 C 
ATOM     26  C   UNL     1      34.672 -16.280 -23.558  0.00  0.00    +0.020 C 
BRANCH  22  27
ATOM     27  S   UNL     1      35.422 -18.592 -22.325  0.00  0.00    +0.010 S 
ATOM     28  O   UNL     1      35.270 -19.123 -23.672  0.00  0.00    -0.169 OA
ATOM     29  O   UNL     1      36.711 -18.679 -21.655  0.00  0.00    -0.169 OA
ATOM     30  C   UNL     1      34.239 -19.410 -21.278  0.00  0.00    +0.182 C 
ENDBRANCH  22  27
ENDBRANCH  18  21
ENDBRANCH   4  19
BRANCH   1  31
ATOM     31  C   UNL     1      31.553  -7.620 -20.877  0.00  0.00    +0.127 C 
BRANCH  31  32
ATOM     32  C   UNL     1      32.130  -7.658 -19.467  0.00  0.00    +0.159 C 
BRANCH  32  33
ATOM     33  O   UNL     1      33.445  -7.119 -19.471  0.00  0.00    -0.380 OA
ATOM     34  H   UNL     1      34.028  -7.682 -18.939  0.00  0.00    +0.211 HD
ENDBRANCH  32  33
ENDBRANCH  31  32
ENDBRANCH   1  31
TORSDOF 8
ENDMDL
MODEL 6
REMARK VINA RESULT:      -9.3      3.419      5.543
REMARK  Name = 25052023
REMARK  8 active torsions:
REMARK  status: ('A' for Active; 'I' for Inactive)
REMARK    1  A    between atoms: N_1  and  C_31
REMARK    2  A    between atoms: C_2  and  C_7
REMARK    3  A    between atoms: C_4  and  C_19
REMARK    4  A    between atoms: C_8  and  C_16
REMARK    5  A    between atoms: N_18  and  C_21
REMARK    6  A    between atoms: C_22  and  S_27
REMARK    7  A    between atoms: C_31  and  C_32
REMARK    8  A    between atoms: C_32  and  O_33
REMARK                            x       y       z     vdW  Elec       q    Type
REMARK                         _______ _______ _______ _____ _____    ______ ____
ROOT
ATOM      1  N   UNL     1      34.109  -8.744 -23.539  0.00  0.00    -0.283 N 
ATOM      2  C   UNL     1      32.967  -8.845 -22.787  0.00  0.00    +0.048 C 
ATOM      3  C   UNL     1      32.617 -10.176 -22.728  0.00  0.00    -0.003 C 
ATOM      4  C   UNL     1      33.582 -10.900 -23.471  0.00  0.00    +0.066 C 
ATOM      5  C   UNL     1      34.493  -9.990 -23.961  0.00  0.00    +0.070 C 
ATOM      6  C   UNL     1      31.451 -10.749 -22.022  0.00  0.00    +0.033 C 
ENDROOT
BRANCH   2   7
ATOM      7  C   UNL     1      32.315  -7.698 -22.197  0.00  0.00    +0.017 C 
ATOM      8  C   UNL     1      31.257  -7.059 -22.843  0.00  0.00    +0.073 C 
ATOM      9  C   UNL     1      32.759  -7.233 -20.959  0.00  0.00    +0.001 C 
ATOM     10  C   UNL     1      30.645  -5.954 -22.254  0.00  0.00    +0.004 C 
ATOM     11  C   UNL     1      32.146  -6.127 -20.370  0.00  0.00    +0.000 C 
ATOM     12  C   UNL     1      31.089  -5.488 -21.017  0.00  0.00    -0.000 C 
BRANCH   8  16
ATOM     13  F   UNL     1      30.342  -6.514 -24.986  0.00  0.00    -0.166 F 
ATOM     14  F   UNL     1      31.687  -8.214 -24.895  0.00  0.00    -0.166 F 
ATOM     15  F   UNL     1      29.686  -8.368 -24.058  0.00  0.00    -0.166 F 
ATOM     16  C   UNL     1      30.755  -7.528 -24.172  0.00  0.00    +0.419 C 
ENDBRANCH   8  16
ENDBRANCH   2   7
BRANCH   4  19
ATOM     17  O   UNL     1      33.387 -12.773 -24.837  0.00  0.00    -0.270 OA
ATOM     18  N   UNL     1      34.044 -13.115 -22.611  0.00  0.00    -0.280 N 
ATOM     19  C   UNL     1      33.650 -12.315 -23.703  0.00  0.00    +0.250 C 
ATOM     20  H   UNL     1      34.222 -12.628 -21.774  0.00  0.00    +0.155 HD
BRANCH  18  21
ATOM     21  C   UNL     1      34.221 -14.519 -22.547  0.00  0.00    +0.051 C 
ATOM     22  C   UNL     1      34.568 -17.284 -22.421  0.00  0.00    +0.106 C 
ATOM     23  C   UNL     1      34.558 -15.233 -23.697  0.00  0.00    +0.016 C 
ATOM     24  C   UNL     1      34.057 -15.188 -21.333  0.00  0.00    +0.016 C 
ATOM     25  C   UNL     1      34.731 -16.615 -23.634  0.00  0.00    +0.020 C 
ATOM     26  C   UNL     1      34.231 -16.571 -21.271  0.00  0.00    +0.020 C 
BRANCH  22  27
ATOM     27  S   UNL     1      34.786 -19.015 -22.342  0.00  0.00    +0.010 S 
ATOM     28  O   UNL     1      33.641 -19.579 -21.640  0.00  0.00    -0.169 OA
ATOM     29  O   UNL     1      35.137 -19.508 -23.666  0.00  0.00    -0.169 OA
ATOM     30  C   UNL     1      36.220 -19.232 -21.312  0.00  0.00    +0.182 C 
ENDBRANCH  22  27
ENDBRANCH  18  21
ENDBRANCH   4  19
BRANCH   1  31
ATOM     31  C   UNL     1      34.819  -7.524 -23.857  0.00  0.00    +0.127 C 
BRANCH  31  32
ATOM     32  C   UNL     1      34.474  -6.996 -25.245  0.00  0.00    +0.159 C 
BRANCH  32  33
ATOM     33  O   UNL     1      33.634  -5.856 -25.130  0.00  0.00    -0.380 OA
ATOM     34  H   UNL     1      32.761  -6.127 -24.805  0.00  0.00    +0.211 HD
ENDBRANCH  32  33
ENDBRANCH  31  32
ENDBRANCH   1  31
TORSDOF 8
ENDMDL
MODEL 7
REMARK VINA RESULT:      -9.0      5.839     11.065
REMARK  Name = 25052023
REMARK  8 active torsions:
REMARK  status: ('A' for Active; 'I' for Inactive)
REMARK    1  A    between atoms: N_1  and  C_31
REMARK    2  A    between atoms: C_2  and  C_7
REMARK    3  A    between atoms: C_4  and  C_19
REMARK    4  A    between atoms: C_8  and  C_16
REMARK    5  A    between atoms: N_18  and  C_21
REMARK    6  A    between atoms: C_22  and  S_27
REMARK    7  A    between atoms: C_31  and  C_32
REMARK    8  A    between atoms: C_32  and  O_33
REMARK                            x       y       z     vdW  Elec       q    Type
REMARK                         _______ _______ _______ _____ _____    ______ ____
ROOT
ATOM      1  N   UNL     1      32.570 -12.721 -22.603  0.00  0.00    -0.283 N 
ATOM      2  C   UNL     1      33.471 -12.947 -23.612  0.00  0.00    +0.048 C 
ATOM      3  C   UNL     1      33.819 -11.727 -24.148  0.00  0.00    -0.003 C 
ATOM      4  C   UNL     1      33.102 -10.732 -23.437  0.00  0.00    +0.066 C 
ATOM      5  C   UNL     1      32.339 -11.374 -22.487  0.00  0.00    +0.070 C 
ATOM      6  C   UNL     1      34.764 -11.492 -25.261  0.00  0.00    +0.033 C 
ENDROOT
BRANCH   2   7
ATOM      7  C   UNL     1      33.919 -14.271 -23.977  0.00  0.00    +0.017 C 
ATOM      8  C   UNL     1      33.519 -14.862 -25.175  0.00  0.00    +0.073 C 
ATOM      9  C   UNL     1      34.768 -14.959 -23.109  0.00  0.00    +0.001 C 
ATOM     10  C   UNL     1      33.965 -16.141 -25.505  0.00  0.00    +0.004 C 
ATOM     11  C   UNL     1      35.215 -16.238 -23.440  0.00  0.00    +0.000 C 
ATOM     12  C   UNL     1      34.813 -16.830 -24.637  0.00  0.00    -0.000 C 
BRANCH   8  16
ATOM     13  F   UNL     1      31.642 -13.417 -25.512  0.00  0.00    -0.166 F 
ATOM     14  F   UNL     1      33.256 -13.286 -26.955  0.00  0.00    -0.166 F 
ATOM     15  F   UNL     1      31.944 -15.021 -26.949  0.00  0.00    -0.166 F 
ATOM     16  C   UNL     1      32.608 -14.157 -26.129  0.00  0.00    +0.419 C 
ENDBRANCH   8  16
ENDBRANCH   2   7
BRANCH   4  19
ATOM     17  O   UNL     1      34.085  -8.779 -24.231  0.00  0.00    -0.270 OA
ATOM     18  N   UNL     1      32.026  -8.587 -23.124  0.00  0.00    -0.280 N 
ATOM     19  C   UNL     1      33.128  -9.310 -23.626  0.00  0.00    +0.250 C 
ATOM     20  H   UNL     1      31.339  -9.126 -22.668  0.00  0.00    +0.155 HD
BRANCH  18  21
ATOM     21  C   UNL     1      31.767  -7.195 -23.182  0.00  0.00    +0.051 C 
ATOM     22  C   UNL     1      31.256  -4.455 -23.296  0.00  0.00    +0.106 C 
ATOM     23  C   UNL     1      31.456  -6.594 -24.402  0.00  0.00    +0.016 C 
ATOM     24  C   UNL     1      31.821  -6.426 -22.019  0.00  0.00    +0.016 C 
ATOM     25  C   UNL     1      31.201  -5.224 -24.458  0.00  0.00    +0.020 C 
ATOM     26  C   UNL     1      31.566  -5.056 -22.076  0.00  0.00    +0.020 C 
BRANCH  22  27
ATOM     27  S   UNL     1      30.935  -2.740 -23.367  0.00  0.00    +0.010 S 
ATOM     28  O   UNL     1      29.799  -2.460 -22.500  0.00  0.00    -0.169 OA
ATOM     29  O   UNL     1      32.185  -2.018 -23.177  0.00  0.00    -0.169 OA
ATOM     30  C   UNL     1      30.424  -2.456 -25.047  0.00  0.00    +0.182 C 
ENDBRANCH  22  27
ENDBRANCH  18  21
ENDBRANCH   4  19
BRANCH   1  31
ATOM     31  C   UNL     1      31.944 -13.727 -21.773  0.00  0.00    +0.127 C 
BRANCH  31  32
ATOM     32  C   UNL     1      32.658 -13.905 -20.438  0.00  0.00    +0.159 C 
BRANCH  32  33
ATOM     33  O   UNL     1      32.792 -15.290 -20.146  0.00  0.00    -0.380 OA
ATOM     34  H   UNL     1      32.970 -15.778 -20.965  0.00  0.00    +0.211 HD
ENDBRANCH  32  33
ENDBRANCH  31  32
ENDBRANCH   1  31
TORSDOF 8
ENDMDL
MODEL 8
REMARK VINA RESULT:      -8.7      4.232      9.054
REMARK  Name = 25052023
REMARK  8 active torsions:
REMARK  status: ('A' for Active; 'I' for Inactive)
REMARK    1  A    between atoms: N_1  and  C_31
REMARK    2  A    between atoms: C_2  and  C_7
REMARK    3  A    between atoms: C_4  and  C_19
REMARK    4  A    between atoms: C_8  and  C_16
REMARK    5  A    between atoms: N_18  and  C_21
REMARK    6  A    between atoms: C_22  and  S_27
REMARK    7  A    between atoms: C_31  and  C_32
REMARK    8  A    between atoms: C_32  and  O_33
REMARK                            x       y       z     vdW  Elec       q    Type
REMARK                         _______ _______ _______ _____ _____    ______ ____
ROOT
ATOM      1  N   UNL     1      34.407 -18.451 -23.321  0.00  0.00    -0.283 N 
ATOM      2  C   UNL     1      34.781 -18.187 -22.029  0.00  0.00    +0.048 C 
ATOM      3  C   UNL     1      34.722 -16.824 -21.842  0.00  0.00    -0.003 C 
ATOM      4  C   UNL     1      34.297 -16.248 -23.066  0.00  0.00    +0.066 C 
ATOM      5  C   UNL     1      34.110 -17.277 -23.962  0.00  0.00    +0.070 C 
ATOM      6  C   UNL     1      35.041 -16.091 -20.599  0.00  0.00    +0.033 C 
ENDROOT
BRANCH   2   7
ATOM      7  C   UNL     1      35.156 -19.225 -21.095  0.00  0.00    +0.017 C 
ATOM      8  C   UNL     1      34.191 -19.944 -20.391  0.00  0.00    +0.073 C 
ATOM      9  C   UNL     1      36.510 -19.503 -20.904  0.00  0.00    +0.001 C 
ATOM     10  C   UNL     1      34.577 -20.939 -19.495  0.00  0.00    +0.004 C 
ATOM     11  C   UNL     1      36.897 -20.499 -20.008  0.00  0.00    +0.000 C 
ATOM     12  C   UNL     1      35.931 -21.217 -19.303  0.00  0.00    -0.000 C 
BRANCH   8  16
ATOM     13  F   UNL     1      32.195 -20.275 -21.669  0.00  0.00    -0.166 F 
ATOM     14  F   UNL     1      31.967 -20.096 -19.520  0.00  0.00    -0.166 F 
ATOM     15  F   UNL     1      32.461 -18.343 -20.708  0.00  0.00    -0.166 F 
ATOM     16  C   UNL     1      32.730 -19.672 -20.568  0.00  0.00    +0.419 C 
ENDBRANCH   8  16
ENDBRANCH   2   7
BRANCH   4  19
ATOM     17  O   UNL     1      34.581 -14.370 -24.408  0.00  0.00    -0.270 OA
ATOM     18  N   UNL     1      33.286 -14.132 -22.468  0.00  0.00    -0.280 N 
ATOM     19  C   UNL     1      34.085 -14.862 -23.371  0.00  0.00    +0.250 C 
ATOM     20  H   UNL     1      32.957 -14.639 -21.690  0.00  0.00    +0.155 HD
BRANCH  18  21
ATOM     21  C   UNL     1      32.889 -12.773 -22.519  0.00  0.00    +0.051 C 
ATOM     22  C   UNL     1      32.107 -10.097 -22.619  0.00  0.00    +0.106 C 
ATOM     23  C   UNL     1      31.924 -12.295 -21.632  0.00  0.00    +0.016 C 
ATOM     24  C   UNL     1      33.463 -11.913 -23.456  0.00  0.00    +0.016 C 
ATOM     25  C   UNL     1      31.533 -10.957 -21.683  0.00  0.00    +0.020 C 
ATOM     26  C   UNL     1      33.072 -10.575 -23.506  0.00  0.00    +0.020 C 
BRANCH  22  27
ATOM     27  S   UNL     1      31.618  -8.422 -22.682  0.00  0.00    +0.010 S 
ATOM     28  O   UNL     1      30.428  -8.333 -23.515  0.00  0.00    -0.169 OA
ATOM     29  O   UNL     1      31.595  -7.886 -21.328  0.00  0.00    -0.169 OA
ATOM     30  C   UNL     1      32.947  -7.606 -23.538  0.00  0.00    +0.182 C 
ENDBRANCH  22  27
ENDBRANCH  18  21
ENDBRANCH   4  19
BRANCH   1  31
ATOM     31  C   UNL     1      34.331 -19.757 -23.940  0.00  0.00    +0.127 C 
BRANCH  31  32
ATOM     32  C   UNL     1      35.188 -19.854 -25.197  0.00  0.00    +0.159 C 
BRANCH  32  33
ATOM     33  O   UNL     1      35.366 -21.219 -25.553  0.00  0.00    -0.380 OA
ATOM     34  H   UNL     1      34.592 -21.529 -26.048  0.00  0.00    +0.211 HD
ENDBRANCH  32  33
ENDBRANCH  31  32
ENDBRANCH   1  31
TORSDOF 8
ENDMDL
MODEL 9
REMARK VINA RESULT:      -8.7      4.648      9.395
REMARK  Name = 25052023
REMARK  8 active torsions:
REMARK  status: ('A' for Active; 'I' for Inactive)
REMARK    1  A    between atoms: N_1  and  C_31
REMARK    2  A    between atoms: C_2  and  C_7
REMARK    3  A    between atoms: C_4  and  C_19
REMARK    4  A    between atoms: C_8  and  C_16
REMARK    5  A    between atoms: N_18  and  C_21
REMARK    6  A    between atoms: C_22  and  S_27
REMARK    7  A    between atoms: C_31  and  C_32
REMARK    8  A    between atoms: C_32  and  O_33
REMARK                            x       y       z     vdW  Elec       q    Type
REMARK                         _______ _______ _______ _____ _____    ______ ____
ROOT
ATOM      1  N   UNL     1      34.340 -17.665 -23.144  0.00  0.00    -0.283 N 
ATOM      2  C   UNL     1      34.123 -17.770 -21.795  0.00  0.00    +0.048 C 
ATOM      3  C   UNL     1      34.036 -16.495 -21.281  0.00  0.00    -0.003 C 
ATOM      4  C   UNL     1      34.207 -15.592 -22.360  0.00  0.00    +0.066 C 
ATOM      5  C   UNL     1      34.393 -16.342 -23.500  0.00  0.00    +0.070 C 
ATOM      6  C   UNL     1      33.807 -16.130 -19.867  0.00  0.00    +0.033 C 
ENDROOT
BRANCH   2   7
ATOM      7  C   UNL     1      34.017 -19.042 -21.116  0.00  0.00    +0.017 C 
ATOM      8  C   UNL     1      35.154 -19.728 -20.690  0.00  0.00    +0.073 C 
ATOM      9  C   UNL     1      32.750 -19.581 -20.889  0.00  0.00    +0.001 C 
ATOM     10  C   UNL     1      35.025 -20.953 -20.038  0.00  0.00    +0.004 C 
ATOM     11  C   UNL     1      32.622 -20.807 -20.236  0.00  0.00    +0.000 C 
ATOM     12  C   UNL     1      33.759 -21.493 -19.811  0.00  0.00    -0.000 C 
BRANCH   8  16
ATOM     13  F   UNL     1      36.710 -17.934 -20.398  0.00  0.00    -0.166 F 
ATOM     14  F   UNL     1      37.514 -19.948 -20.369  0.00  0.00    -0.166 F 
ATOM     15  F   UNL     1      36.834 -19.078 -22.242  0.00  0.00    -0.166 F 
ATOM     16  C   UNL     1      36.527 -19.182 -20.917  0.00  0.00    +0.419 C 
ENDBRANCH   8  16
ENDBRANCH   2   7
BRANCH   4  19
ATOM     17  O   UNL     1      35.158 -13.538 -21.821  0.00  0.00    -0.270 OA
ATOM     18  N   UNL     1      33.084 -13.522 -22.917  0.00  0.00    -0.280 N 
ATOM     19  C   UNL     1      34.198 -14.157 -22.330  0.00  0.00    +0.250 C 
ATOM     20  H   UNL     1      32.397 -14.125 -23.282  0.00  0.00    +0.155 HD
BRANCH  18  21
ATOM     21  C   UNL     1      32.813 -12.138 -23.055  0.00  0.00    +0.051 C 
ATOM     22  C   UNL     1      32.278  -9.414 -23.329  0.00  0.00    +0.106 C 
ATOM     23  C   UNL     1      31.801 -11.546 -22.299  0.00  0.00    +0.016 C 
ATOM     24  C   UNL     1      33.558 -11.367 -23.949  0.00  0.00    +0.016 C 
ATOM     25  C   UNL     1      31.534 -10.184 -22.436  0.00  0.00    +0.020 C 
ATOM     26  C   UNL     1      33.290 -10.005 -24.085  0.00  0.00    +0.020 C 
BRANCH  22  27
ATOM     27  S   UNL     1      31.944  -7.708 -23.500  0.00  0.00    +0.010 S 
ATOM     28  O   UNL     1      33.094  -7.089 -24.144  0.00  0.00    -0.169 OA
ATOM     29  O   UNL     1      30.617  -7.542 -24.075  0.00  0.00    -0.169 OA
ATOM     30  C   UNL     1      31.863  -7.105 -21.828  0.00  0.00    +0.182 C 
ENDBRANCH  22  27
ENDBRANCH  18  21
ENDBRANCH   4  19
BRANCH   1  31
ATOM     31  C   UNL     1      34.495 -18.763 -24.074  0.00  0.00    +0.127 C 
BRANCH  31  32
ATOM     32  C   UNL     1      34.631 -18.288 -25.516  0.00  0.00    +0.159 C 
BRANCH  32  33
ATOM     33  O   UNL     1      33.463 -17.575 -25.899  0.00  0.00    -0.380 OA
ATOM     34  H   UNL     1      33.142 -17.051 -25.149  0.00  0.00    +0.211 HD
ENDBRANCH  32  33
ENDBRANCH  31  32
ENDBRANCH   1  31
TORSDOF 8
ENDMDL
