MODEL 1
REMARK VINA RESULT:      -6.2      0.000      0.000
REMARK  Name = 14812933
REMARK  11 active torsions:
REMARK  status: ('A' for Active; 'I' for Inactive)
REMARK    1  A    between atoms: C_1  and  C_2
REMARK    2  A    between atoms: C_1  and  C_9
REMARK    3  A    between atoms: C_2  and  C_3
REMARK    4  A    between atoms: C_3  and  C_4
REMARK    5  A    between atoms: C_4  and  C_5
REMARK    6  A    between atoms: C_5  and  C_6
REMARK    7  A    between atoms: C_6  and  C_7
REMARK    8  A    between atoms: C_9  and  C_10
REMARK    9  A    between atoms: C_10  and  O_11
REMARK   10  A    between atoms: O_11  and  C_13
REMARK   11  A    between atoms: C_13  and  S_14
REMARK                            x       y       z     vdW  Elec       q    Type
REMARK                         _______ _______ _______ _____ _____    ______ ____
ROOT
ATOM      1  C   UNL     1      34.941 -19.267 -23.835  0.00  0.00    +0.004 C 
ENDROOT
BRANCH   1   2
ATOM      2  C   UNL     1      35.764 -18.356 -22.921  0.00  0.00    +0.000 C 
BRANCH   2   3
ATOM      3  C   UNL     1      35.297 -18.461 -21.468  0.00  0.00    +0.000 C 
BRANCH   3   4
ATOM      4  C   UNL     1      33.907 -19.085 -21.318  0.00  0.00    +0.000 C 
BRANCH   4   5
ATOM      5  C   UNL     1      33.896 -20.346 -20.452  0.00  0.00    +0.000 C 
BRANCH   5   6
ATOM      6  C   UNL     1      35.318 -20.793 -20.108  0.00  0.00    +0.000 C 
BRANCH   6   7
ATOM      7  C   UNL     1      35.313 -21.909 -19.062  0.00  0.00    +0.000 C 
ATOM      8  C   UNL     1      33.902 -22.397 -18.775  0.00  0.00    +0.000 C 
ENDBRANCH   6   7
ENDBRANCH   5   6
ENDBRANCH   4   5
ENDBRANCH   3   4
ENDBRANCH   2   3
ENDBRANCH   1   2
BRANCH   1   9
ATOM      9  C   UNL     1      34.374 -18.492 -25.028  0.00  0.00    +0.047 C 
BRANCH   9  10
ATOM     10  C   UNL     1      34.790 -17.026 -25.014  0.00  0.00    +0.209 C 
BRANCH  10  11
ATOM     11  O   UNL     1      34.116 -16.321 -26.045  0.00  0.00    -0.441 OA
BRANCH  11  13
ATOM     12  O   UNL     1      32.691 -14.552 -26.401  0.00  0.00    -0.238 OA
ATOM     13  C   UNL     1      33.392 -15.223 -25.655  0.00  0.00    +0.366 C 
BRANCH  13  14
ATOM     14  S   UNL     1      33.528 -14.811 -23.946  0.00  0.00    -0.061 S 
ATOM     15  H   UNL     1      34.762 -14.293 -23.701  0.00  0.00    +0.113 HD
ENDBRANCH  13  14
ENDBRANCH  11  13
ENDBRANCH  10  11
ENDBRANCH   9  10
ENDBRANCH   1   9
TORSDOF 11
ENDMDL
MODEL 2
REMARK VINA RESULT:      -6.0      2.287      3.102
REMARK  Name = 14812933
REMARK  11 active torsions:
REMARK  status: ('A' for Active; 'I' for Inactive)
REMARK    1  A    between atoms: C_1  and  C_2
REMARK    2  A    between atoms: C_1  and  C_9
REMARK    3  A    between atoms: C_2  and  C_3
REMARK    4  A    between atoms: C_3  and  C_4
REMARK    5  A    between atoms: C_4  and  C_5
REMARK    6  A    between atoms: C_5  and  C_6
REMARK    7  A    between atoms: C_6  and  C_7
REMARK    8  A    between atoms: C_9  and  C_10
REMARK    9  A    between atoms: C_10  and  O_11
REMARK   10  A    between atoms: O_11  and  C_13
REMARK   11  A    between atoms: C_13  and  S_14
REMARK                            x       y       z     vdW  Elec       q    Type
REMARK                         _______ _______ _______ _____ _____    ______ ____
ROOT
ATOM      1  C   UNL     1      34.929 -16.844 -24.895  0.00  0.00    +0.004 C 
ENDROOT
BRANCH   1   2
ATOM      2  C   UNL     1      34.376 -18.268 -24.985  0.00  0.00    +0.000 C 
BRANCH   2   3
ATOM      3  C   UNL     1      34.934 -19.152 -23.868  0.00  0.00    +0.000 C 
BRANCH   3   4
ATOM      4  C   UNL     1      35.732 -18.375 -22.818  0.00  0.00    +0.000 C 
BRANCH   4   5
ATOM      5  C   UNL     1      35.106 -18.420 -21.422  0.00  0.00    +0.000 C 
BRANCH   5   6
ATOM      6  C   UNL     1      34.816 -19.859 -20.992  0.00  0.00    +0.000 C 
BRANCH   6   7
ATOM      7  C   UNL     1      33.355 -20.032 -20.577  0.00  0.00    +0.000 C 
ATOM      8  C   UNL     1      33.192 -21.162 -19.572  0.00  0.00    +0.000 C 
ENDBRANCH   6   7
ENDBRANCH   5   6
ENDBRANCH   4   5
ENDBRANCH   3   4
ENDBRANCH   2   3
ENDBRANCH   1   2
BRANCH   1   9
ATOM      9  C   UNL     1      33.832 -15.804 -25.135  0.00  0.00    +0.047 C 
BRANCH   9  10
ATOM     10  C   UNL     1      33.486 -15.027 -23.871  0.00  0.00    +0.209 C 
BRANCH  10  11
ATOM     11  O   UNL     1      34.531 -15.159 -22.919  0.00  0.00    -0.441 OA
BRANCH  11  13
ATOM     12  O   UNL     1      34.970 -14.941 -20.673  0.00  0.00    -0.238 OA
ATOM     13  C   UNL     1      34.237 -14.767 -21.638  0.00  0.00    +0.366 C 
BRANCH  13  14
ATOM     14  S   UNL     1      32.680 -13.962 -21.445  0.00  0.00    -0.061 S 
ATOM     15  H   UNL     1      32.755 -13.071 -20.420  0.00  0.00    +0.113 HD
ENDBRANCH  13  14
ENDBRANCH  11  13
ENDBRANCH  10  11
ENDBRANCH   9  10
ENDBRANCH   1   9
TORSDOF 11
ENDMDL
MODEL 3
REMARK VINA RESULT:      -5.9      7.288      9.964
REMARK  Name = 14812933
REMARK  11 active torsions:
REMARK  status: ('A' for Active; 'I' for Inactive)
REMARK    1  A    between atoms: C_1  and  C_2
REMARK    2  A    between atoms: C_1  and  C_9
REMARK    3  A    between atoms: C_2  and  C_3
REMARK    4  A    between atoms: C_3  and  C_4
REMARK    5  A    between atoms: C_4  and  C_5
REMARK    6  A    between atoms: C_5  and  C_6
REMARK    7  A    between atoms: C_6  and  C_7
REMARK    8  A    between atoms: C_9  and  C_10
REMARK    9  A    between atoms: C_10  and  O_11
REMARK   10  A    between atoms: O_11  and  C_13
REMARK   11  A    between atoms: C_13  and  S_14
REMARK                            x       y       z     vdW  Elec       q    Type
REMARK                         _______ _______ _______ _____ _____    ______ ____
ROOT
ATOM      1  C   UNL     1      36.785 -22.043 -17.013  0.00  0.00    +0.004 C 
ENDROOT
BRANCH   1   2
ATOM      2  C   UNL     1      36.239 -21.724 -18.407  0.00  0.00    +0.000 C 
BRANCH   2   3
ATOM      3  C   UNL     1      34.821 -22.269 -18.585  0.00  0.00    +0.000 C 
BRANCH   3   4
ATOM      4  C   UNL     1      33.973 -21.454 -19.565  0.00  0.00    +0.000 C 
BRANCH   4   5
ATOM      5  C   UNL     1      34.773 -20.393 -20.325  0.00  0.00    +0.000 C 
BRANCH   5   6
ATOM      6  C   UNL     1      33.847 -19.430 -21.069  0.00  0.00    +0.000 C 
BRANCH   6   7
ATOM      7  C   UNL     1      34.628 -18.552 -22.048  0.00  0.00    +0.000 C 
ATOM      8  C   UNL     1      34.833 -19.252 -23.382  0.00  0.00    +0.000 C 
ENDBRANCH   6   7
ENDBRANCH   5   6
ENDBRANCH   4   5
ENDBRANCH   3   4
ENDBRANCH   2   3
ENDBRANCH   1   2
BRANCH   1   9
ATOM      9  C   UNL     1      35.774 -22.844 -16.190  0.00  0.00    +0.047 C 
BRANCH   9  10
ATOM     10  C   UNL     1      36.445 -23.909 -15.329  0.00  0.00    +0.209 C 
BRANCH  10  11
ATOM     11  O   UNL     1      35.798 -25.159 -15.513  0.00  0.00    -0.441 OA
BRANCH  11  13
ATOM     12  O   UNL     1      36.725 -27.192 -16.057  0.00  0.00    -0.238 OA
ATOM     13  C   UNL     1      36.556 -26.274 -15.263  0.00  0.00    +0.366 C 
BRANCH  13  14
ATOM     14  S   UNL     1      37.309 -26.322 -13.670  0.00  0.00    -0.061 S 
ATOM     15  H   UNL     1      36.700 -25.421 -12.853  0.00  0.00    +0.113 HD
ENDBRANCH  13  14
ENDBRANCH  11  13
ENDBRANCH  10  11
ENDBRANCH   9  10
ENDBRANCH   1   9
TORSDOF 11
ENDMDL
MODEL 4
REMARK VINA RESULT:      -5.9      2.348      3.321
REMARK  Name = 14812933
REMARK  11 active torsions:
REMARK  status: ('A' for Active; 'I' for Inactive)
REMARK    1  A    between atoms: C_1  and  C_2
REMARK    2  A    between atoms: C_1  and  C_9
REMARK    3  A    between atoms: C_2  and  C_3
REMARK    4  A    between atoms: C_3  and  C_4
REMARK    5  A    between atoms: C_4  and  C_5
REMARK    6  A    between atoms: C_5  and  C_6
REMARK    7  A    between atoms: C_6  and  C_7
REMARK    8  A    between atoms: C_9  and  C_10
REMARK    9  A    between atoms: C_10  and  O_11
REMARK   10  A    between atoms: O_11  and  C_13
REMARK   11  A    between atoms: C_13  and  S_14
REMARK                            x       y       z     vdW  Elec       q    Type
REMARK                         _______ _______ _______ _____ _____    ______ ____
ROOT
ATOM      1  C   UNL     1      32.720 -14.959 -21.906  0.00  0.00    +0.004 C 
ENDROOT
BRANCH   1   2
ATOM      2  C   UNL     1      33.570 -14.673 -20.666  0.00  0.00    +0.000 C 
BRANCH   2   3
ATOM      3  C   UNL     1      34.589 -15.789 -20.423  0.00  0.00    +0.000 C 
BRANCH   3   4
ATOM      4  C   UNL     1      34.367 -17.019 -21.307  0.00  0.00    +0.000 C 
BRANCH   4   5
ATOM      5  C   UNL     1      35.538 -18.005 -21.282  0.00  0.00    +0.000 C 
BRANCH   5   6
ATOM      6  C   UNL     1      35.042 -19.451 -21.220  0.00  0.00    +0.000 C 
BRANCH   6   7
ATOM      7  C   UNL     1      33.523 -19.512 -21.057  0.00  0.00    +0.000 C 
ATOM      8  C   UNL     1      33.113 -20.585 -20.062  0.00  0.00    +0.000 C 
ENDBRANCH   6   7
ENDBRANCH   5   6
ENDBRANCH   4   5
ENDBRANCH   3   4
ENDBRANCH   2   3
ENDBRANCH   1   2
BRANCH   1   9
ATOM      9  C   UNL     1      32.645 -13.735 -22.823  0.00  0.00    +0.047 C 
BRANCH   9  10
ATOM     10  C   UNL     1      32.946 -14.084 -24.276  0.00  0.00    +0.209 C 
BRANCH  10  11
ATOM     11  O   UNL     1      33.979 -15.057 -24.337  0.00  0.00    -0.441 OA
BRANCH  11  13
ATOM     12  O   UNL     1      33.503 -15.658 -26.505  0.00  0.00    -0.238 OA
ATOM     13  C   UNL     1      33.920 -15.936 -25.388  0.00  0.00    +0.366 C 
BRANCH  13  14
ATOM     14  S   UNL     1      34.502 -17.562 -25.031  0.00  0.00    -0.061 S 
ATOM     15  H   UNL     1      33.891 -18.026 -23.908  0.00  0.00    +0.113 HD
ENDBRANCH  13  14
ENDBRANCH  11  13
ENDBRANCH  10  11
ENDBRANCH   9  10
ENDBRANCH   1   9
TORSDOF 11
ENDMDL
MODEL 5
REMARK VINA RESULT:      -5.9      1.475      1.706
REMARK  Name = 14812933
REMARK  11 active torsions:
REMARK  status: ('A' for Active; 'I' for Inactive)
REMARK    1  A    between atoms: C_1  and  C_2
REMARK    2  A    between atoms: C_1  and  C_9
REMARK    3  A    between atoms: C_2  and  C_3
REMARK    4  A    between atoms: C_3  and  C_4
REMARK    5  A    between atoms: C_4  and  C_5
REMARK    6  A    between atoms: C_5  and  C_6
REMARK    7  A    between atoms: C_6  and  C_7
REMARK    8  A    between atoms: C_9  and  C_10
REMARK    9  A    between atoms: C_10  and  O_11
REMARK   10  A    between atoms: O_11  and  C_13
REMARK   11  A    between atoms: C_13  and  S_14
REMARK                            x       y       z     vdW  Elec       q    Type
REMARK                         _______ _______ _______ _____ _____    ______ ____
ROOT
ATOM      1  C   UNL     1      34.721 -19.039 -24.022  0.00  0.00    +0.004 C 
ENDROOT
BRANCH   1   2
ATOM      2  C   UNL     1      35.693 -18.430 -23.010  0.00  0.00    +0.000 C 
BRANCH   2   3
ATOM      3  C   UNL     1      35.045 -18.296 -21.630  0.00  0.00    +0.000 C 
BRANCH   3   4
ATOM      4  C   UNL     1      34.668 -19.640 -21.001  0.00  0.00    +0.000 C 
BRANCH   4   5
ATOM      5  C   UNL     1      33.160 -19.819 -20.805  0.00  0.00    +0.000 C 
BRANCH   5   6
ATOM      6  C   UNL     1      32.863 -20.805 -19.674  0.00  0.00    +0.000 C 
BRANCH   6   7
ATOM      7  C   UNL     1      34.070 -21.695 -19.380  0.00  0.00    +0.000 C 
ATOM      8  C   UNL     1      33.723 -22.795 -18.388  0.00  0.00    +0.000 C 
ENDBRANCH   6   7
ENDBRANCH   5   6
ENDBRANCH   4   5
ENDBRANCH   3   4
ENDBRANCH   2   3
ENDBRANCH   1   2
BRANCH   1   9
ATOM      9  C   UNL     1      34.419 -18.061 -25.161  0.00  0.00    +0.047 C 
BRANCH   9  10
ATOM     10  C   UNL     1      34.880 -16.644 -24.842  0.00  0.00    +0.209 C 
BRANCH  10  11
ATOM     11  O   UNL     1      33.781 -15.866 -24.393  0.00  0.00    -0.441 OA
BRANCH  11  13
ATOM     12  O   UNL     1      34.934 -14.945 -22.630  0.00  0.00    -0.238 OA
ATOM     13  C   UNL     1      34.070 -14.871 -23.495  0.00  0.00    +0.366 C 
BRANCH  13  14
ATOM     14  S   UNL     1      33.091 -13.414 -23.656  0.00  0.00    -0.061 S 
ATOM     15  H   UNL     1      32.508 -13.393 -24.885  0.00  0.00    +0.113 HD
ENDBRANCH  13  14
ENDBRANCH  11  13
ENDBRANCH  10  11
ENDBRANCH   9  10
ENDBRANCH   1   9
TORSDOF 11
ENDMDL
MODEL 6
REMARK VINA RESULT:      -5.9      5.886      8.416
REMARK  Name = 14812933
REMARK  11 active torsions:
REMARK  status: ('A' for Active; 'I' for Inactive)
REMARK    1  A    between atoms: C_1  and  C_2
REMARK    2  A    between atoms: C_1  and  C_9
REMARK    3  A    between atoms: C_2  and  C_3
REMARK    4  A    between atoms: C_3  and  C_4
REMARK    5  A    between atoms: C_4  and  C_5
REMARK    6  A    between atoms: C_5  and  C_6
REMARK    7  A    between atoms: C_6  and  C_7
REMARK    8  A    between atoms: C_9  and  C_10
REMARK    9  A    between atoms: C_10  and  O_11
REMARK   10  A    between atoms: O_11  and  C_13
REMARK   11  A    between atoms: C_13  and  S_14
REMARK                            x       y       z     vdW  Elec       q    Type
REMARK                         _______ _______ _______ _____ _____    ______ ____
ROOT
ATOM      1  C   UNL     1      33.402 -22.395 -18.484  0.00  0.00    +0.004 C 
ENDROOT
BRANCH   1   2
ATOM      2  C   UNL     1      34.866 -22.127 -18.840  0.00  0.00    +0.000 C 
BRANCH   2   3
ATOM      3  C   UNL     1      34.990 -20.998 -19.866  0.00  0.00    +0.000 C 
BRANCH   3   4
ATOM      4  C   UNL     1      33.642 -20.399 -20.277  0.00  0.00    +0.000 C 
BRANCH   4   5
ATOM      5  C   UNL     1      33.771 -19.209 -21.231  0.00  0.00    +0.000 C 
BRANCH   5   6
ATOM      6  C   UNL     1      34.824 -19.476 -22.309  0.00  0.00    +0.000 C 
BRANCH   6   7
ATOM      7  C   UNL     1      34.835 -18.368 -23.363  0.00  0.00    +0.000 C 
ATOM      8  C   UNL     1      34.470 -18.904 -24.738  0.00  0.00    +0.000 C 
ENDBRANCH   6   7
ENDBRANCH   5   6
ENDBRANCH   4   5
ENDBRANCH   3   4
ENDBRANCH   2   3
ENDBRANCH   1   2
BRANCH   1   9
ATOM      9  C   UNL     1      33.282 -23.458 -17.389  0.00  0.00    +0.047 C 
BRANCH   9  10
ATOM     10  C   UNL     1      32.142 -23.164 -16.422  0.00  0.00    +0.209 C 
BRANCH  10  11
ATOM     11  O   UNL     1      31.052 -22.580 -17.120  0.00  0.00    -0.441 OA
BRANCH  11  13
ATOM     12  O   UNL     1      28.776 -22.279 -17.005  0.00  0.00    -0.238 OA
ATOM     13  C   UNL     1      29.810 -22.770 -16.571  0.00  0.00    +0.366 C 
BRANCH  13  14
ATOM     14  S   UNL     1      29.777 -23.804 -15.143  0.00  0.00    -0.061 S 
ATOM     15  H   UNL     1      30.982 -24.417 -14.999  0.00  0.00    +0.113 HD
ENDBRANCH  13  14
ENDBRANCH  11  13
ENDBRANCH  10  11
ENDBRANCH   9  10
ENDBRANCH   1   9
TORSDOF 11
ENDMDL
MODEL 7
REMARK VINA RESULT:      -5.9      7.703     10.300
REMARK  Name = 14812933
REMARK  11 active torsions:
REMARK  status: ('A' for Active; 'I' for Inactive)
REMARK    1  A    between atoms: C_1  and  C_2
REMARK    2  A    between atoms: C_1  and  C_9
REMARK    3  A    between atoms: C_2  and  C_3
REMARK    4  A    between atoms: C_3  and  C_4
REMARK    5  A    between atoms: C_4  and  C_5
REMARK    6  A    between atoms: C_5  and  C_6
REMARK    7  A    between atoms: C_6  and  C_7
REMARK    8  A    between atoms: C_9  and  C_10
REMARK    9  A    between atoms: C_10  and  O_11
REMARK   10  A    between atoms: O_11  and  C_13
REMARK   11  A    between atoms: C_13  and  S_14
REMARK                            x       y       z     vdW  Elec       q    Type
REMARK                         _______ _______ _______ _____ _____    ______ ____
ROOT
ATOM      1  C   UNL     1      37.363 -22.375 -16.430  0.00  0.00    +0.004 C 
ENDROOT
BRANCH   1   2
ATOM      2  C   UNL     1      36.808 -21.585 -17.617  0.00  0.00    +0.000 C 
BRANCH   2   3
ATOM      3  C   UNL     1      35.485 -22.177 -18.108  0.00  0.00    +0.000 C 
BRANCH   3   4
ATOM      4  C   UNL     1      35.074 -21.682 -19.497  0.00  0.00    +0.000 C 
BRANCH   4   5
ATOM      5  C   UNL     1      33.577 -21.389 -19.620  0.00  0.00    +0.000 C 
BRANCH   5   6
ATOM      6  C   UNL     1      33.326 -20.132 -20.456  0.00  0.00    +0.000 C 
BRANCH   6   7
ATOM      7  C   UNL     1      34.635 -19.548 -20.989  0.00  0.00    +0.000 C 
ATOM      8  C   UNL     1      34.553 -19.271 -22.482  0.00  0.00    +0.000 C 
ENDBRANCH   6   7
ENDBRANCH   5   6
ENDBRANCH   4   5
ENDBRANCH   3   4
ENDBRANCH   2   3
ENDBRANCH   1   2
BRANCH   1   9
ATOM      9  C   UNL     1      36.253 -23.140 -15.704  0.00  0.00    +0.047 C 
BRANCH   9  10
ATOM     10  C   UNL     1      36.779 -23.921 -14.505  0.00  0.00    +0.209 C 
BRANCH  10  11
ATOM     11  O   UNL     1      37.596 -23.082 -13.701  0.00  0.00    -0.441 OA
BRANCH  11  13
ATOM     12  O   UNL     1      38.283 -22.885 -11.516  0.00  0.00    -0.238 OA
ATOM     13  C   UNL     1      37.442 -23.209 -12.344  0.00  0.00    +0.366 C 
BRANCH  13  14
ATOM     14  S   UNL     1      35.900 -23.894 -11.830  0.00  0.00    -0.061 S 
ATOM     15  H   UNL     1      35.131 -24.150 -12.922  0.00  0.00    +0.113 HD
ENDBRANCH  13  14
ENDBRANCH  11  13
ENDBRANCH  10  11
ENDBRANCH   9  10
ENDBRANCH   1   9
TORSDOF 11
ENDMDL
MODEL 8
REMARK VINA RESULT:      -5.9      5.495      7.724
REMARK  Name = 14812933
REMARK  11 active torsions:
REMARK  status: ('A' for Active; 'I' for Inactive)
REMARK    1  A    between atoms: C_1  and  C_2
REMARK    2  A    between atoms: C_1  and  C_9
REMARK    3  A    between atoms: C_2  and  C_3
REMARK    4  A    between atoms: C_3  and  C_4
REMARK    5  A    between atoms: C_4  and  C_5
REMARK    6  A    between atoms: C_5  and  C_6
REMARK    7  A    between atoms: C_6  and  C_7
REMARK    8  A    between atoms: C_9  and  C_10
REMARK    9  A    between atoms: C_10  and  O_11
REMARK   10  A    between atoms: O_11  and  C_13
REMARK   11  A    between atoms: C_13  and  S_14
REMARK                            x       y       z     vdW  Elec       q    Type
REMARK                         _______ _______ _______ _____ _____    ______ ____
ROOT
ATOM      1  C   UNL     1      32.983 -20.407 -20.272  0.00  0.00    +0.004 C 
ENDROOT
BRANCH   1   2
ATOM      2  C   UNL     1      33.305 -19.075 -20.952  0.00  0.00    +0.000 C 
BRANCH   2   3
ATOM      3  C   UNL     1      34.562 -19.182 -21.817  0.00  0.00    +0.000 C 
BRANCH   3   4
ATOM      4  C   UNL     1      35.572 -18.059 -21.566  0.00  0.00    +0.000 C 
BRANCH   4   5
ATOM      5  C   UNL     1      34.940 -16.789 -20.993  0.00  0.00    +0.000 C 
BRANCH   5   6
ATOM      6  C   UNL     1      34.629 -15.779 -22.099  0.00  0.00    +0.000 C 
BRANCH   6   7
ATOM      7  C   UNL     1      33.196 -15.258 -21.991  0.00  0.00    +0.000 C 
ATOM      8  C   UNL     1      32.752 -15.147 -20.541  0.00  0.00    +0.000 C 
ENDBRANCH   6   7
ENDBRANCH   5   6
ENDBRANCH   4   5
ENDBRANCH   3   4
ENDBRANCH   2   3
ENDBRANCH   1   2
BRANCH   1   9
ATOM      9  C   UNL     1      34.255 -21.096 -19.769  0.00  0.00    +0.047 C 
BRANCH   9  10
ATOM     10  C   UNL     1      33.997 -22.529 -19.321  0.00  0.00    +0.209 C 
BRANCH  10  11
ATOM     11  O   UNL     1      32.889 -22.568 -18.435  0.00  0.00    -0.441 OA
BRANCH  11  13
ATOM     12  O   UNL     1      34.143 -23.736 -16.903  0.00  0.00    -0.238 OA
ATOM     13  C   UNL     1      33.081 -23.239 -17.254  0.00  0.00    +0.366 C 
BRANCH  13  14
ATOM     14  S   UNL     1      31.657 -23.353 -16.221  0.00  0.00    -0.061 S 
ATOM     15  H   UNL     1      31.950 -22.859 -14.988  0.00  0.00    +0.113 HD
ENDBRANCH  13  14
ENDBRANCH  11  13
ENDBRANCH  10  11
ENDBRANCH   9  10
ENDBRANCH   1   9
TORSDOF 11
ENDMDL
MODEL 9
REMARK VINA RESULT:      -5.8      2.348      3.931
REMARK  Name = 14812933
REMARK  11 active torsions:
REMARK  status: ('A' for Active; 'I' for Inactive)
REMARK    1  A    between atoms: C_1  and  C_2
REMARK    2  A    between atoms: C_1  and  C_9
REMARK    3  A    between atoms: C_2  and  C_3
REMARK    4  A    between atoms: C_3  and  C_4
REMARK    5  A    between atoms: C_4  and  C_5
REMARK    6  A    between atoms: C_5  and  C_6
REMARK    7  A    between atoms: C_6  and  C_7
REMARK    8  A    between atoms: C_9  and  C_10
REMARK    9  A    between atoms: C_10  and  O_11
REMARK   10  A    between atoms: O_11  and  C_13
REMARK   11  A    between atoms: C_13  and  S_14
REMARK                            x       y       z     vdW  Elec       q    Type
REMARK                         _______ _______ _______ _____ _____    ______ ____
ROOT
ATOM      1  C   UNL     1      32.744 -14.724 -22.080  0.00  0.00    +0.004 C 
ENDROOT
BRANCH   1   2
ATOM      2  C   UNL     1      33.155 -15.811 -21.084  0.00  0.00    +0.000 C 
BRANCH   2   3
ATOM      3  C   UNL     1      34.678 -15.923 -20.983  0.00  0.00    +0.000 C 
BRANCH   3   4
ATOM      4  C   UNL     1      35.182 -17.369 -20.968  0.00  0.00    +0.000 C 
BRANCH   4   5
ATOM      5  C   UNL     1      34.121 -18.388 -21.390  0.00  0.00    +0.000 C 
BRANCH   5   6
ATOM      6  C   UNL     1      34.616 -19.252 -22.552  0.00  0.00    +0.000 C 
BRANCH   6   7
ATOM      7  C   UNL     1      35.515 -18.454 -23.496  0.00  0.00    +0.000 C 
ATOM      8  C   UNL     1      34.726 -17.870 -24.657  0.00  0.00    +0.000 C 
ENDBRANCH   6   7
ENDBRANCH   5   6
ENDBRANCH   4   5
ENDBRANCH   3   4
ENDBRANCH   2   3
ENDBRANCH   1   2
BRANCH   1   9
ATOM      9  C   UNL     1      33.969 -14.035 -22.688  0.00  0.00    +0.047 C 
BRANCH   9  10
ATOM     10  C   UNL     1      33.773 -13.706 -24.163  0.00  0.00    +0.209 C 
BRANCH  10  11
ATOM     11  O   UNL     1      32.874 -14.634 -24.752  0.00  0.00    -0.441 OA
BRANCH  11  13
ATOM     12  O   UNL     1      32.806 -15.824 -26.717  0.00  0.00    -0.238 OA
ATOM     13  C   UNL     1      32.951 -14.769 -26.114  0.00  0.00    +0.366 C 
BRANCH  13  14
ATOM     14  S   UNL     1      33.280 -13.276 -26.994  0.00  0.00    -0.061 S 
ATOM     15  H   UNL     1      32.750 -12.223 -26.315  0.00  0.00    +0.113 HD
ENDBRANCH  13  14
ENDBRANCH  11  13
ENDBRANCH  10  11
ENDBRANCH   9  10
ENDBRANCH   1   9
TORSDOF 11
ENDMDL
