MODEL 1
REMARK VINA RESULT:     -10.3      0.000      0.000
REMARK  Name = 5280443
REMARK  4 active torsions:
REMARK  status: ('A' for Active; 'I' for Inactive)
REMARK    1  A    between atoms: C_5  and  C_12
REMARK    2  A    between atoms: C_8  and  O_20
REMARK    3  A    between atoms: C_10  and  O_22
REMARK    4  A    between atoms: C_17  and  O_18
REMARK                            x       y       z     vdW  Elec       q    Type
REMARK                         _______ _______ _______ _____ _____    ______ ____
ROOT
ATOM      1  O   UNL     1      34.168 -17.173 -21.853  0.00  0.00    -0.453 OA
ATOM      2  O   UNL     1      34.718 -17.750 -25.848  0.00  0.00    -0.286 OA
ATOM      3  C   UNL     1      34.044 -16.294 -24.114  0.00  0.00    +0.107 C 
ATOM      4  C   UNL     1      33.880 -16.163 -22.737  0.00  0.00    +0.154 C 
ATOM      5  C   UNL     1      34.634 -18.378 -22.357  0.00  0.00    +0.148 C 
ATOM      6  C   UNL     1      34.548 -17.567 -24.652  0.00  0.00    +0.205 C 
ATOM      7  C   UNL     1      34.840 -18.623 -23.661  0.00  0.00    +0.080 C 
ATOM      8  C   UNL     1      33.735 -15.231 -24.966  0.00  0.00    +0.143 C 
ATOM      9  C   UNL     1      33.406 -14.966 -22.201  0.00  0.00    +0.074 C 
ATOM     10  C   UNL     1      33.096 -13.901 -23.048  0.00  0.00    +0.140 C 
ATOM     11  C   UNL     1      33.260 -14.034 -24.428  0.00  0.00    +0.073 C 
ENDROOT
BRANCH   5  12
ATOM     12  C   UNL     1      34.917 -19.391 -21.322  0.00  0.00    +0.035 C 
ATOM     13  C   UNL     1      33.871 -20.118 -20.747  0.00  0.00    +0.006 C 
ATOM     14  C   UNL     1      36.231 -19.630 -20.914  0.00  0.00    +0.006 C 
ATOM     15  C   UNL     1      34.138 -21.076 -19.769  0.00  0.00    +0.037 C 
ATOM     16  C   UNL     1      36.498 -20.588 -19.936  0.00  0.00    +0.037 C 
ATOM     17  C   UNL     1      35.452 -21.311 -19.363  0.00  0.00    +0.134 C 
BRANCH  17  18
ATOM     18  O   UNL     1      35.713 -22.246 -18.410  0.00  0.00    -0.506 OA
ATOM     19  H   UNL     1      35.535 -23.151 -18.579  0.00  0.00    +0.292 HD
ENDBRANCH  17  18
ENDBRANCH   5  12
BRANCH   8  20
ATOM     20  O   UNL     1      33.878 -15.308 -26.318  0.00  0.00    -0.505 OA
ATOM     21  H   UNL     1      33.539 -14.627 -26.865  0.00  0.00    +0.292 HD
ENDBRANCH   8  20
BRANCH  10  22
ATOM     22  O   UNL     1      32.633 -12.731 -22.528  0.00  0.00    -0.505 OA
ATOM     23  H   UNL     1      31.856 -12.726 -22.005  0.00  0.00    +0.292 HD
ENDBRANCH  10  22
TORSDOF 4
ENDMDL
MODEL 2
REMARK VINA RESULT:      -9.9      0.941      1.543
REMARK  Name = 5280443
REMARK  4 active torsions:
REMARK  status: ('A' for Active; 'I' for Inactive)
REMARK    1  A    between atoms: C_5  and  C_12
REMARK    2  A    between atoms: C_8  and  O_20
REMARK    3  A    between atoms: C_10  and  O_22
REMARK    4  A    between atoms: C_17  and  O_18
REMARK                            x       y       z     vdW  Elec       q    Type
REMARK                         _______ _______ _______ _____ _____    ______ ____
ROOT
ATOM      1  O   UNL     1      33.829 -16.913 -21.153  0.00  0.00    -0.453 OA
ATOM      2  O   UNL     1      34.765 -16.484 -25.095  0.00  0.00    -0.286 OA
ATOM      3  C   UNL     1      33.819 -15.530 -23.150  0.00  0.00    +0.107 C 
ATOM      4  C   UNL     1      33.528 -15.743 -21.804  0.00  0.00    +0.154 C 
ATOM      5  C   UNL     1      34.441 -17.930 -21.871  0.00  0.00    +0.148 C 
ATOM      6  C   UNL     1      34.478 -16.603 -23.912  0.00  0.00    +0.205 C 
ATOM      7  C   UNL     1      34.777 -17.843 -23.167  0.00  0.00    +0.080 C 
ATOM      8  C   UNL     1      33.491 -14.318 -23.760  0.00  0.00    +0.143 C 
ATOM      9  C   UNL     1      32.906 -14.742 -21.058  0.00  0.00    +0.074 C 
ATOM     10  C   UNL     1      32.577 -13.529 -21.664  0.00  0.00    +0.140 C 
ATOM     11  C   UNL     1      32.868 -13.318 -23.013  0.00  0.00    +0.073 C 
ENDROOT
BRANCH   5  12
ATOM     12  C   UNL     1      34.723 -19.140 -21.074  0.00  0.00    +0.035 C 
ATOM     13  C   UNL     1      36.043 -19.497 -20.785  0.00  0.00    +0.006 C 
ATOM     14  C   UNL     1      33.673 -19.932 -20.604  0.00  0.00    +0.006 C 
ATOM     15  C   UNL     1      36.310 -20.640 -20.031  0.00  0.00    +0.037 C 
ATOM     16  C   UNL     1      33.941 -21.075 -19.851  0.00  0.00    +0.037 C 
ATOM     17  C   UNL     1      35.260 -21.429 -19.564  0.00  0.00    +0.134 C 
BRANCH  17  18
ATOM     18  O   UNL     1      35.520 -22.544 -18.828  0.00  0.00    -0.506 OA
ATOM     19  H   UNL     1      36.404 -22.766 -18.611  0.00  0.00    +0.292 HD
ENDBRANCH  17  18
ENDBRANCH   5  12
BRANCH   8  20
ATOM     20  O   UNL     1      33.755 -14.061 -25.072  0.00  0.00    -0.505 OA
ATOM     21  H   UNL     1      34.079 -14.743 -25.627  0.00  0.00    +0.292 HD
ENDBRANCH   8  20
BRANCH  10  22
ATOM     22  O   UNL     1      31.970 -12.549 -20.939  0.00  0.00    -0.505 OA
ATOM     23  H   UNL     1      31.070 -12.639 -20.693  0.00  0.00    +0.292 HD
ENDBRANCH  10  22
TORSDOF 4
ENDMDL
MODEL 3
REMARK VINA RESULT:      -9.8      2.331      7.255
REMARK  Name = 5280443
REMARK  4 active torsions:
REMARK  status: ('A' for Active; 'I' for Inactive)
REMARK    1  A    between atoms: C_5  and  C_12
REMARK    2  A    between atoms: C_8  and  O_20
REMARK    3  A    between atoms: C_10  and  O_22
REMARK    4  A    between atoms: C_17  and  O_18
REMARK                            x       y       z     vdW  Elec       q    Type
REMARK                         _______ _______ _______ _____ _____    ______ ____
ROOT
ATOM      1  O   UNL     1      33.877 -14.312 -22.562  0.00  0.00    -0.453 OA
ATOM      2  O   UNL     1      33.594 -15.888 -26.309  0.00  0.00    -0.286 OA
ATOM      3  C   UNL     1      34.256 -16.186 -24.060  0.00  0.00    +0.107 C 
ATOM      4  C   UNL     1      34.322 -15.588 -22.804  0.00  0.00    +0.154 C 
ATOM      5  C   UNL     1      33.347 -13.587 -23.619  0.00  0.00    +0.148 C 
ATOM      6  C   UNL     1      33.685 -15.424 -25.181  0.00  0.00    +0.205 C 
ATOM      7  C   UNL     1      33.223 -14.056 -24.871  0.00  0.00    +0.080 C 
ATOM      8  C   UNL     1      34.724 -17.489 -24.247  0.00  0.00    +0.143 C 
ATOM      9  C   UNL     1      34.857 -16.289 -21.724  0.00  0.00    +0.074 C 
ATOM     10  C   UNL     1      35.326 -17.591 -21.906  0.00  0.00    +0.140 C 
ATOM     11  C   UNL     1      35.260 -18.189 -23.166  0.00  0.00    +0.073 C 
ENDROOT
BRANCH   5  12
ATOM     12  C   UNL     1      32.894 -12.232 -23.248  0.00  0.00    +0.035 C 
ATOM     13  C   UNL     1      33.465 -11.110 -23.857  0.00  0.00    +0.006 C 
ATOM     14  C   UNL     1      31.893 -12.064 -22.289  0.00  0.00    +0.006 C 
ATOM     15  C   UNL     1      33.036  -9.830 -23.508  0.00  0.00    +0.037 C 
ATOM     16  C   UNL     1      31.466 -10.783 -21.939  0.00  0.00    +0.037 C 
ATOM     17  C   UNL     1      32.037  -9.666 -22.548  0.00  0.00    +0.134 C 
BRANCH  17  18
ATOM     18  O   UNL     1      31.619  -8.417 -22.208  0.00  0.00    -0.506 OA
ATOM     19  H   UNL     1      30.783  -8.106 -22.497  0.00  0.00    +0.292 HD
ENDBRANCH  17  18
ENDBRANCH   5  12
BRANCH   8  20
ATOM     20  O   UNL     1      34.682 -18.118 -25.454  0.00  0.00    -0.505 OA
ATOM     21  H   UNL     1      35.271 -18.824 -25.635  0.00  0.00    +0.292 HD
ENDBRANCH   8  20
BRANCH  10  22
ATOM     22  O   UNL     1      35.849 -18.279 -20.853  0.00  0.00    -0.505 OA
ATOM     23  H   UNL     1      35.650 -19.187 -20.743  0.00  0.00    +0.292 HD
ENDBRANCH  10  22
TORSDOF 4
ENDMDL
MODEL 4
REMARK VINA RESULT:      -9.5      1.220      2.993
REMARK  Name = 5280443
REMARK  4 active torsions:
REMARK  status: ('A' for Active; 'I' for Inactive)
REMARK    1  A    between atoms: C_5  and  C_12
REMARK    2  A    between atoms: C_8  and  O_20
REMARK    3  A    between atoms: C_10  and  O_22
REMARK    4  A    between atoms: C_17  and  O_18
REMARK                            x       y       z     vdW  Elec       q    Type
REMARK                         _______ _______ _______ _____ _____    ______ ____
ROOT
ATOM      1  O   UNL     1      34.275 -17.177 -23.096  0.00  0.00    -0.453 OA
ATOM      2  O   UNL     1      33.241 -13.919 -20.878  0.00  0.00    -0.286 OA
ATOM      3  C   UNL     1      33.554 -14.858 -23.024  0.00  0.00    +0.107 C 
ATOM      4  C   UNL     1      33.917 -16.008 -23.721  0.00  0.00    +0.154 C 
ATOM      5  C   UNL     1      34.283 -17.208 -21.710  0.00  0.00    +0.148 C 
ATOM      6  C   UNL     1      33.551 -14.890 -21.553  0.00  0.00    +0.205 C 
ATOM      7  C   UNL     1      33.946 -16.169 -20.928  0.00  0.00    +0.080 C 
ATOM      8  C   UNL     1      33.197 -13.697 -23.714  0.00  0.00    +0.143 C 
ATOM      9  C   UNL     1      33.926 -16.005 -25.116  0.00  0.00    +0.074 C 
ATOM     10  C   UNL     1      33.571 -14.848 -25.810  0.00  0.00    +0.140 C 
ATOM     11  C   UNL     1      33.208 -13.695 -25.109  0.00  0.00    +0.073 C 
ENDROOT
BRANCH   5  12
ATOM     12  C   UNL     1      34.677 -18.512 -21.142  0.00  0.00    +0.035 C 
ATOM     13  C   UNL     1      36.029 -18.828 -20.982  0.00  0.00    +0.006 C 
ATOM     14  C   UNL     1      33.701 -19.436 -20.761  0.00  0.00    +0.006 C 
ATOM     15  C   UNL     1      36.401 -20.060 -20.445  0.00  0.00    +0.037 C 
ATOM     16  C   UNL     1      34.074 -20.667 -20.223  0.00  0.00    +0.037 C 
ATOM     17  C   UNL     1      35.424 -20.980 -20.066  0.00  0.00    +0.134 C 
BRANCH  17  18
ATOM     18  O   UNL     1      35.787 -22.182 -19.541  0.00  0.00    -0.506 OA
ATOM     19  H   UNL     1      36.435 -22.705 -19.971  0.00  0.00    +0.292 HD
ENDBRANCH  17  18
ENDBRANCH   5  12
BRANCH   8  20
ATOM     20  O   UNL     1      32.835 -12.548 -23.079  0.00  0.00    -0.505 OA
ATOM     21  H   UNL     1      33.374 -12.199 -22.397  0.00  0.00    +0.292 HD
ENDBRANCH   8  20
BRANCH  10  22
ATOM     22  O   UNL     1      33.578 -14.841 -27.171  0.00  0.00    -0.505 OA
ATOM     23  H   UNL     1      34.392 -14.831 -27.635  0.00  0.00    +0.292 HD
ENDBRANCH  10  22
TORSDOF 4
ENDMDL
MODEL 5
REMARK VINA RESULT:      -9.5      4.619      9.663
REMARK  Name = 5280443
REMARK  4 active torsions:
REMARK  status: ('A' for Active; 'I' for Inactive)
REMARK    1  A    between atoms: C_5  and  C_12
REMARK    2  A    between atoms: C_8  and  O_20
REMARK    3  A    between atoms: C_10  and  O_22
REMARK    4  A    between atoms: C_17  and  O_18
REMARK                            x       y       z     vdW  Elec       q    Type
REMARK                         _______ _______ _______ _____ _____    ______ ____
ROOT
ATOM      1  O   UNL     1      31.994 -22.441 -17.619  0.00  0.00    -0.453 OA
ATOM      2  O   UNL     1      34.404 -24.540 -15.093  0.00  0.00    -0.286 OA
ATOM      3  C   UNL     1      32.210 -23.891 -15.683  0.00  0.00    +0.107 C 
ATOM      4  C   UNL     1      31.445 -23.153 -16.583  0.00  0.00    +0.154 C 
ATOM      5  C   UNL     1      33.373 -22.450 -17.769  0.00  0.00    +0.148 C 
ATOM      6  C   UNL     1      33.672 -23.912 -15.844  0.00  0.00    +0.205 C 
ATOM      7  C   UNL     1      34.215 -23.127 -16.972  0.00  0.00    +0.080 C 
ATOM      8  C   UNL     1      31.595 -24.598 -14.648  0.00  0.00    +0.143 C 
ATOM      9  C   UNL     1      30.056 -23.118 -16.454  0.00  0.00    +0.074 C 
ATOM     10  C   UNL     1      29.438 -23.823 -15.421  0.00  0.00    +0.140 C 
ATOM     11  C   UNL     1      30.206 -24.562 -14.519  0.00  0.00    +0.073 C 
ENDROOT
BRANCH   5  12
ATOM     12  C   UNL     1      33.857 -21.657 -18.916  0.00  0.00    +0.035 C 
ATOM     13  C   UNL     1      32.961 -20.892 -19.667  0.00  0.00    +0.006 C 
ATOM     14  C   UNL     1      35.212 -21.667 -19.254  0.00  0.00    +0.006 C 
ATOM     15  C   UNL     1      33.419 -20.141 -20.751  0.00  0.00    +0.037 C 
ATOM     16  C   UNL     1      35.669 -20.916 -20.337  0.00  0.00    +0.037 C 
ATOM     17  C   UNL     1      34.772 -20.154 -21.086  0.00  0.00    +0.134 C 
BRANCH  17  18
ATOM     18  O   UNL     1      35.219 -19.422 -22.142  0.00  0.00    -0.506 OA
ATOM     19  H   UNL     1      35.677 -18.617 -21.995  0.00  0.00    +0.292 HD
ENDBRANCH  17  18
ENDBRANCH   5  12
BRANCH   8  20
ATOM     20  O   UNL     1      32.299 -25.335 -13.742  0.00  0.00    -0.505 OA
ATOM     21  H   UNL     1      32.565 -24.949 -12.931  0.00  0.00    +0.292 HD
ENDBRANCH   8  20
BRANCH  10  22
ATOM     22  O   UNL     1      28.083 -23.792 -15.292  0.00  0.00    -0.505 OA
ATOM     23  H   UNL     1      27.593 -23.088 -15.670  0.00  0.00    +0.292 HD
ENDBRANCH  10  22
TORSDOF 4
ENDMDL
MODEL 6
REMARK VINA RESULT:      -9.4      5.376     11.462
REMARK  Name = 5280443
REMARK  4 active torsions:
REMARK  status: ('A' for Active; 'I' for Inactive)
REMARK    1  A    between atoms: C_5  and  C_12
REMARK    2  A    between atoms: C_8  and  O_20
REMARK    3  A    between atoms: C_10  and  O_22
REMARK    4  A    between atoms: C_17  and  O_18
REMARK                            x       y       z     vdW  Elec       q    Type
REMARK                         _______ _______ _______ _____ _____    ______ ____
ROOT
ATOM      1  O   UNL     1      36.775 -23.692 -16.002  0.00  0.00    -0.453 OA
ATOM      2  O   UNL     1      33.912 -23.966 -13.117  0.00  0.00    -0.286 OA
ATOM      3  C   UNL     1      36.108 -24.498 -13.810  0.00  0.00    +0.107 C 
ATOM      4  C   UNL     1      37.041 -24.365 -14.836  0.00  0.00    +0.154 C 
ATOM      5  C   UNL     1      35.519 -23.128 -16.167  0.00  0.00    +0.148 C 
ATOM      6  C   UNL     1      34.778 -23.891 -13.976  0.00  0.00    +0.205 C 
ATOM      7  C   UNL     1      34.540 -23.181 -15.250  0.00  0.00    +0.080 C 
ATOM      8  C   UNL     1      36.435 -25.193 -12.644  0.00  0.00    +0.143 C 
ATOM      9  C   UNL     1      38.310 -24.929 -14.702  0.00  0.00    +0.074 C 
ATOM     10  C   UNL     1      38.641 -25.625 -13.539  0.00  0.00    +0.140 C 
ATOM     11  C   UNL     1      37.704 -25.757 -12.512  0.00  0.00    +0.073 C 
ENDROOT
BRANCH   5  12
ATOM     12  C   UNL     1      35.342 -22.424 -17.452  0.00  0.00    +0.035 C 
ATOM     13  C   UNL     1      36.411 -21.728 -18.024  0.00  0.00    +0.006 C 
ATOM     14  C   UNL     1      34.107 -22.452 -18.104  0.00  0.00    +0.006 C 
ATOM     15  C   UNL     1      36.244 -21.065 -19.240  0.00  0.00    +0.037 C 
ATOM     16  C   UNL     1      33.941 -21.787 -19.319  0.00  0.00    +0.037 C 
ATOM     17  C   UNL     1      35.009 -21.093 -19.887  0.00  0.00    +0.134 C 
BRANCH  17  18
ATOM     18  O   UNL     1      34.847 -20.446 -21.073  0.00  0.00    -0.506 OA
ATOM     19  H   UNL     1      34.019 -20.472 -21.512  0.00  0.00    +0.292 HD
ENDBRANCH  17  18
ENDBRANCH   5  12
BRANCH   8  20
ATOM     20  O   UNL     1      35.559 -25.350 -11.612  0.00  0.00    -0.505 OA
ATOM     21  H   UNL     1      35.135 -26.175 -11.479  0.00  0.00    +0.292 HD
ENDBRANCH   8  20
BRANCH  10  22
ATOM     22  O   UNL     1      39.878 -26.176 -13.405  0.00  0.00    -0.505 OA
ATOM     23  H   UNL     1      40.062 -27.012 -13.785  0.00  0.00    +0.292 HD
ENDBRANCH  10  22
TORSDOF 4
ENDMDL
MODEL 7
REMARK VINA RESULT:      -9.4      8.874     12.105
REMARK  Name = 5280443
REMARK  4 active torsions:
REMARK  status: ('A' for Active; 'I' for Inactive)
REMARK    1  A    between atoms: C_5  and  C_12
REMARK    2  A    between atoms: C_8  and  O_20
REMARK    3  A    between atoms: C_10  and  O_22
REMARK    4  A    between atoms: C_17  and  O_18
REMARK                            x       y       z     vdW  Elec       q    Type
REMARK                         _______ _______ _______ _____ _____    ______ ____
ROOT
ATOM      1  O   UNL     1      35.074 -23.857 -15.055  0.00  0.00    -0.453 OA
ATOM      2  O   UNL     1      35.198 -24.816 -11.098  0.00  0.00    -0.286 OA
ATOM      3  C   UNL     1      36.380 -24.542 -13.125  0.00  0.00    +0.107 C 
ATOM      4  C   UNL     1      36.267 -24.202 -14.472  0.00  0.00    +0.154 C 
ATOM      5  C   UNL     1      33.931 -23.856 -14.270  0.00  0.00    +0.148 C 
ATOM      6  C   UNL     1      35.172 -24.532 -12.286  0.00  0.00    +0.205 C 
ATOM      7  C   UNL     1      33.912 -24.157 -12.961  0.00  0.00    +0.080 C 
ATOM      8  C   UNL     1      37.622 -24.883 -12.585  0.00  0.00    +0.143 C 
ATOM      9  C   UNL     1      37.398 -24.201 -15.288  0.00  0.00    +0.074 C 
ATOM     10  C   UNL     1      38.640 -24.542 -14.753  0.00  0.00    +0.140 C 
ATOM     11  C   UNL     1      38.752 -24.883 -13.403  0.00  0.00    +0.073 C 
ENDROOT
BRANCH   5  12
ATOM     12  C   UNL     1      32.706 -23.466 -14.995  0.00  0.00    +0.035 C 
ATOM     13  C   UNL     1      31.505 -23.292 -14.301  0.00  0.00    +0.006 C 
ATOM     14  C   UNL     1      32.741 -23.268 -16.377  0.00  0.00    +0.006 C 
ATOM     15  C   UNL     1      30.347 -22.922 -14.986  0.00  0.00    +0.037 C 
ATOM     16  C   UNL     1      31.583 -22.898 -17.061  0.00  0.00    +0.037 C 
ATOM     17  C   UNL     1      30.386 -22.726 -16.366  0.00  0.00    +0.134 C 
BRANCH  17  18
ATOM     18  O   UNL     1      29.257 -22.364 -17.034  0.00  0.00    -0.506 OA
ATOM     19  H   UNL     1      28.740 -23.015 -17.467  0.00  0.00    +0.292 HD
ENDBRANCH  17  18
ENDBRANCH   5  12
BRANCH   8  20
ATOM     20  O   UNL     1      37.785 -25.222 -11.276  0.00  0.00    -0.505 OA
ATOM     21  H   UNL     1      38.639 -25.418 -10.946  0.00  0.00    +0.292 HD
ENDBRANCH   8  20
BRANCH  10  22
ATOM     22  O   UNL     1      39.746 -24.542 -15.547  0.00  0.00    -0.505 OA
ATOM     23  H   UNL     1      40.596 -24.640 -15.166  0.00  0.00    +0.292 HD
ENDBRANCH  10  22
TORSDOF 4
ENDMDL
MODEL 8
REMARK VINA RESULT:      -9.4      2.707      7.620
REMARK  Name = 5280443
REMARK  4 active torsions:
REMARK  status: ('A' for Active; 'I' for Inactive)
REMARK    1  A    between atoms: C_5  and  C_12
REMARK    2  A    between atoms: C_8  and  O_20
REMARK    3  A    between atoms: C_10  and  O_22
REMARK    4  A    between atoms: C_17  and  O_18
REMARK                            x       y       z     vdW  Elec       q    Type
REMARK                         _______ _______ _______ _____ _____    ______ ____
ROOT
ATOM      1  O   UNL     1      34.212 -13.631 -23.070  0.00  0.00    -0.453 OA
ATOM      2  O   UNL     1      33.312 -15.363 -26.646  0.00  0.00    -0.286 OA
ATOM      3  C   UNL     1      34.102 -15.636 -24.435  0.00  0.00    +0.107 C 
ATOM      4  C   UNL     1      34.389 -14.981 -23.240  0.00  0.00    +0.154 C 
ATOM      5  C   UNL     1      33.736 -12.887 -24.139  0.00  0.00    +0.148 C 
ATOM      6  C   UNL     1      33.587 -14.853 -25.569  0.00  0.00    +0.205 C 
ATOM      7  C   UNL     1      33.417 -13.404 -25.337  0.00  0.00    +0.080 C 
ATOM      8  C   UNL     1      34.301 -17.014 -24.551  0.00  0.00    +0.143 C 
ATOM      9  C   UNL     1      34.877 -15.700 -22.149  0.00  0.00    +0.074 C 
ATOM     10  C   UNL     1      35.077 -17.077 -22.260  0.00  0.00    +0.140 C 
ATOM     11  C   UNL     1      34.790 -17.732 -23.459  0.00  0.00    +0.073 C 
ENDROOT
BRANCH   5  12
ATOM     12  C   UNL     1      33.578 -11.449 -23.847  0.00  0.00    +0.035 C 
ATOM     13  C   UNL     1      32.537 -11.010 -23.024  0.00  0.00    +0.006 C 
ATOM     14  C   UNL     1      34.469 -10.520 -24.390  0.00  0.00    +0.006 C 
ATOM     15  C   UNL     1      32.389  -9.651 -22.746  0.00  0.00    +0.037 C 
ATOM     16  C   UNL     1      34.320  -9.162 -24.112  0.00  0.00    +0.037 C 
ATOM     17  C   UNL     1      33.280  -8.727 -23.291  0.00  0.00    +0.134 C 
BRANCH  17  18
ATOM     18  O   UNL     1      33.136  -7.401 -23.020  0.00  0.00    -0.506 OA
ATOM     19  H   UNL     1      33.457  -6.761 -23.624  0.00  0.00    +0.292 HD
ENDBRANCH  17  18
ENDBRANCH   5  12
BRANCH   8  20
ATOM     20  O   UNL     1      34.035 -17.701 -25.697  0.00  0.00    -0.505 OA
ATOM     21  H   UNL     1      33.150 -17.813 -25.981  0.00  0.00    +0.292 HD
ENDBRANCH   8  20
BRANCH  10  22
ATOM     22  O   UNL     1      35.553 -17.782 -21.197  0.00  0.00    -0.505 OA
ATOM     23  H   UNL     1      35.163 -17.677 -20.353  0.00  0.00    +0.292 HD
ENDBRANCH  10  22
TORSDOF 4
ENDMDL
MODEL 9
REMARK VINA RESULT:      -9.3      2.807      8.258
REMARK  Name = 5280443
REMARK  4 active torsions:
REMARK  status: ('A' for Active; 'I' for Inactive)
REMARK    1  A    between atoms: C_5  and  C_12
REMARK    2  A    between atoms: C_8  and  O_20
REMARK    3  A    between atoms: C_10  and  O_22
REMARK    4  A    between atoms: C_17  and  O_18
REMARK                            x       y       z     vdW  Elec       q    Type
REMARK                         _______ _______ _______ _____ _____    ______ ____
ROOT
ATOM      1  O   UNL     1      35.968 -20.959 -19.072  0.00  0.00    -0.453 OA
ATOM      2  O   UNL     1      32.408 -22.739 -18.207  0.00  0.00    -0.286 OA
ATOM      3  C   UNL     1      34.680 -22.434 -17.636  0.00  0.00    +0.107 C 
ATOM      4  C   UNL     1      35.866 -21.793 -17.988  0.00  0.00    +0.154 C 
ATOM      5  C   UNL     1      34.843 -20.753 -19.856  0.00  0.00    +0.148 C 
ATOM      6  C   UNL     1      33.481 -22.211 -18.458  0.00  0.00    +0.205 C 
ATOM      7  C   UNL     1      33.644 -21.307 -19.616  0.00  0.00    +0.080 C 
ATOM      8  C   UNL     1      34.635 -23.272 -16.519  0.00  0.00    +0.143 C 
ATOM      9  C   UNL     1      37.017 -21.986 -17.223  0.00  0.00    +0.074 C 
ATOM     10  C   UNL     1      36.976 -22.822 -16.107  0.00  0.00    +0.140 C 
ATOM     11  C   UNL     1      35.787 -23.465 -15.756  0.00  0.00    +0.073 C 
ENDROOT
BRANCH   5  12
ATOM     12  C   UNL     1      35.062 -19.836 -20.991  0.00  0.00    +0.035 C 
ATOM     13  C   UNL     1      34.080 -19.691 -21.975  0.00  0.00    +0.006 C 
ATOM     14  C   UNL     1      36.250 -19.109 -21.087  0.00  0.00    +0.006 C 
ATOM     15  C   UNL     1      34.287 -18.823 -23.048  0.00  0.00    +0.037 C 
ATOM     16  C   UNL     1      36.456 -18.241 -22.160  0.00  0.00    +0.037 C 
ATOM     17  C   UNL     1      35.475 -18.099 -23.141  0.00  0.00    +0.134 C 
BRANCH  17  18
ATOM     18  O   UNL     1      35.677 -17.252 -24.186  0.00  0.00    -0.506 OA
ATOM     19  H   UNL     1      35.025 -16.615 -24.407  0.00  0.00    +0.292 HD
ENDBRANCH  17  18
ENDBRANCH   5  12
BRANCH   8  20
ATOM     20  O   UNL     1      33.500 -23.921 -16.134  0.00  0.00    -0.505 OA
ATOM     21  H   UNL     1      32.689 -23.745 -16.570  0.00  0.00    +0.292 HD
ENDBRANCH   8  20
BRANCH  10  22
ATOM     22  O   UNL     1      38.097 -23.013 -15.359  0.00  0.00    -0.505 OA
ATOM     23  H   UNL     1      38.720 -23.667 -15.607  0.00  0.00    +0.292 HD
ENDBRANCH  10  22
TORSDOF 4
ENDMDL
