MODEL 1
REMARK VINA RESULT:      -8.5      0.000      0.000
REMARK  Name = 13313
REMARK  2 active torsions:
REMARK  status: ('A' for Active; 'I' for Inactive)
REMARK    1  A    between atoms: C_5  and  O_20
REMARK    2  A    between atoms: C_5  and  C_22
REMARK                            x       y       z     vdW  Elec       q    Type
REMARK                         _______ _______ _______ _____ _____    ______ ____
ROOT
ATOM      1  O   UNL     1      33.972 -16.287 -20.995  0.00  0.00    -0.291 OA
ATOM      2  C   UNL     1      32.383  -8.968 -21.741  0.00  0.00    +0.011 C 
ATOM      3  C   UNL     1      31.977  -8.406 -23.127  0.00  0.00    +0.052 C 
ATOM      4  C   UNL     1      31.746 -10.334 -21.476  0.00  0.00    +0.023 C 
ATOM      5  C   UNL     1      32.731  -7.045 -23.092  0.00  0.00    +0.145 C 
ATOM      6  C   UNL     1      32.126  -7.802 -20.796  0.00  0.00    +0.004 C 
ATOM      7  C   UNL     1      32.503  -6.558 -21.633  0.00  0.00    +0.040 C 
ATOM      8  C   UNL     1      32.242 -11.325 -22.551  0.00  0.00    -0.027 C 
ATOM      9  C   UNL     1      32.020 -10.825 -20.051  0.00  0.00    +0.009 C 
ATOM     10  C   UNL     1      32.355  -9.429 -24.169  0.00  0.00    -0.024 C 
ATOM     11  C   UNL     1      30.450  -8.170 -23.301  0.00  0.00    +0.008 C 
ATOM     12  C   UNL     1      32.450 -10.743 -23.888  0.00  0.00    -0.009 C 
ATOM     13  C   UNL     1      32.486 -12.627 -22.253  0.00  0.00    -0.030 C 
ATOM     14  C   UNL     1      31.549 -12.267 -19.912  0.00  0.00    +0.026 C 
ATOM     15  C   UNL     1      32.290 -13.147 -20.889  0.00  0.00    -0.024 C 
ATOM     16  C   UNL     1      32.944 -13.679 -23.247  0.00  0.00    +0.034 C 
ATOM     17  C   UNL     1      32.763 -14.336 -20.478  0.00  0.00    +0.033 C 
ATOM     18  C   UNL     1      34.028 -14.586 -22.682  0.00  0.00    +0.074 C 
ATOM     19  C   UNL     1      33.596 -15.178 -21.367  0.00  0.00    +0.173 C 
ENDROOT
BRANCH   5  20
ATOM     20  O   UNL     1      32.180  -6.091 -23.991  0.00  0.00    -0.375 OA
ATOM     21  H   UNL     1      31.677  -5.429 -23.491  0.00  0.00    +0.211 HD
ENDBRANCH   5  20
BRANCH   5  22
ATOM     22  C   UNL     1      34.176  -7.171 -23.372  0.00  0.00    -0.052 C 
ATOM     23  C   UNL     1      35.350  -7.274 -23.600  0.00  0.00    -0.012 C 
ENDBRANCH   5  22
TORSDOF 2
ENDMDL
MODEL 2
REMARK VINA RESULT:      -8.1      7.024     10.626
REMARK  Name = 13313
REMARK  2 active torsions:
REMARK  status: ('A' for Active; 'I' for Inactive)
REMARK    1  A    between atoms: C_5  and  O_20
REMARK    2  A    between atoms: C_5  and  C_22
REMARK                            x       y       z     vdW  Elec       q    Type
REMARK                         _______ _______ _______ _____ _____    ______ ____
ROOT
ATOM      1  O   UNL     1      36.027 -23.459 -14.690  0.00  0.00    -0.291 OA
ATOM      2  C   UNL     1      34.029 -19.444 -20.735  0.00  0.00    +0.011 C 
ATOM      3  C   UNL     1      35.117 -18.938 -21.717  0.00  0.00    +0.052 C 
ATOM      4  C   UNL     1      34.318 -20.869 -20.258  0.00  0.00    +0.023 C 
ATOM      5  C   UNL     1      34.548 -17.526 -22.036  0.00  0.00    +0.145 C 
ATOM      6  C   UNL     1      32.726 -19.121 -21.453  0.00  0.00    +0.004 C 
ATOM      7  C   UNL     1      33.023 -17.787 -22.175  0.00  0.00    +0.040 C 
ATOM      8  C   UNL     1      35.668 -20.874 -19.510  0.00  0.00    -0.027 C 
ATOM      9  C   UNL     1      33.172 -21.430 -19.410  0.00  0.00    +0.009 C 
ATOM     10  C   UNL     1      36.453 -19.055 -21.026  0.00  0.00    -0.024 C 
ATOM     11  C   UNL     1      35.242 -19.774 -23.022  0.00  0.00    +0.008 C 
ATOM     12  C   UNL     1      36.681 -19.949 -20.045  0.00  0.00    -0.009 C 
ATOM     13  C   UNL     1      35.871 -21.664 -18.424  0.00  0.00    -0.030 C 
ATOM     14  C   UNL     1      33.600 -22.755 -18.791  0.00  0.00    +0.026 C 
ATOM     15  C   UNL     1      34.809 -22.547 -17.913  0.00  0.00    -0.024 C 
ATOM     16  C   UNL     1      37.171 -21.759 -17.645  0.00  0.00    +0.034 C 
ATOM     17  C   UNL     1      34.857 -23.138 -16.707  0.00  0.00    +0.033 C 
ATOM     18  C   UNL     1      36.950 -21.788 -16.139  0.00  0.00    +0.074 C 
ATOM     19  C   UNL     1      35.968 -22.867 -15.765  0.00  0.00    +0.173 C 
ENDROOT
BRANCH   5  20
ATOM     20  O   UNL     1      35.043 -17.001 -23.262  0.00  0.00    -0.375 OA
ATOM     21  H   UNL     1      35.981 -16.772 -23.160  0.00  0.00    +0.211 HD
ENDBRANCH   5  20
BRANCH   5  22
ATOM     22  C   UNL     1      34.806 -16.538 -20.967  0.00  0.00    -0.052 C 
ATOM     23  C   UNL     1      35.015 -15.736 -20.099  0.00  0.00    -0.012 C 
ENDBRANCH   5  22
TORSDOF 2
ENDMDL
MODEL 3
REMARK VINA RESULT:      -8.0     13.877     16.257
REMARK  Name = 13313
REMARK  2 active torsions:
REMARK  status: ('A' for Active; 'I' for Inactive)
REMARK    1  A    between atoms: C_5  and  O_20
REMARK    2  A    between atoms: C_5  and  C_22
REMARK                            x       y       z     vdW  Elec       q    Type
REMARK                         _______ _______ _______ _____ _____    ______ ____
ROOT
ATOM      1  O   UNL     1      28.620 -22.029 -15.524  0.00  0.00    -0.291 OA
ATOM      2  C   UNL     1      35.953 -23.684 -15.141  0.00  0.00    +0.011 C 
ATOM      3  C   UNL     1      36.428 -24.880 -14.277  0.00  0.00    +0.052 C 
ATOM      4  C   UNL     1      34.666 -24.012 -15.902  0.00  0.00    +0.023 C 
ATOM      5  C   UNL     1      37.726 -24.269 -13.673  0.00  0.00    +0.145 C 
ATOM      6  C   UNL     1      37.209 -23.270 -15.895  0.00  0.00    +0.004 C 
ATOM      7  C   UNL     1      38.347 -23.509 -14.877  0.00  0.00    +0.040 C 
ATOM      8  C   UNL     1      33.555 -24.325 -14.876  0.00  0.00    -0.027 C 
ATOM      9  C   UNL     1      34.275 -22.893 -16.872  0.00  0.00    +0.009 C 
ATOM     10  C   UNL     1      35.296 -25.262 -13.356  0.00  0.00    -0.024 C 
ATOM     11  C   UNL     1      36.765 -26.163 -15.088  0.00  0.00    +0.008 C 
ATOM     12  C   UNL     1      34.007 -25.016 -13.658  0.00  0.00    -0.009 C 
ATOM     13  C   UNL     1      32.267 -23.954 -15.096  0.00  0.00    -0.030 C 
ATOM     14  C   UNL     1      32.889 -23.174 -17.439  0.00  0.00    +0.026 C 
ATOM     15  C   UNL     1      31.878 -23.235 -16.321  0.00  0.00    -0.024 C 
ATOM     16  C   UNL     1      31.105 -24.245 -14.163  0.00  0.00    +0.034 C 
ATOM     17  C   UNL     1      30.694 -22.616 -16.468  0.00  0.00    +0.033 C 
ATOM     18  C   UNL     1      30.167 -23.055 -14.008  0.00  0.00    +0.074 C 
ATOM     19  C   UNL     1      29.721 -22.549 -15.354  0.00  0.00    +0.173 C 
ENDROOT
BRANCH   5  20
ATOM     20  O   UNL     1      38.641 -25.263 -13.228  0.00  0.00    -0.375 OA
ATOM     21  H   UNL     1      38.156 -25.966 -12.767  0.00  0.00    +0.211 HD
ENDBRANCH   5  20
BRANCH   5  22
ATOM     22  C   UNL     1      37.467 -23.339 -12.554  0.00  0.00    -0.052 C 
ATOM     23  C   UNL     1      37.256 -22.583 -11.646  0.00  0.00    -0.012 C 
ENDBRANCH   5  22
TORSDOF 2
ENDMDL
MODEL 4
REMARK VINA RESULT:      -7.7      9.949     14.364
REMARK  Name = 13313
REMARK  2 active torsions:
REMARK  status: ('A' for Active; 'I' for Inactive)
REMARK    1  A    between atoms: C_5  and  O_20
REMARK    2  A    between atoms: C_5  and  C_22
REMARK                            x       y       z     vdW  Elec       q    Type
REMARK                         _______ _______ _______ _____ _____    ______ ____
ROOT
ATOM      1  O   UNL     1      34.814 -18.799 -21.856  0.00  0.00    -0.291 OA
ATOM      2  C   UNL     1      34.946 -22.857 -15.519  0.00  0.00    +0.011 C 
ATOM      3  C   UNL     1      34.020 -24.091 -15.375  0.00  0.00    +0.052 C 
ATOM      4  C   UNL     1      35.552 -22.764 -16.921  0.00  0.00    +0.023 C 
ATOM      5  C   UNL     1      33.596 -23.932 -13.887  0.00  0.00    +0.145 C 
ATOM      6  C   UNL     1      35.847 -22.946 -14.295  0.00  0.00    +0.004 C 
ATOM      7  C   UNL     1      34.919 -23.504 -13.192  0.00  0.00    +0.040 C 
ATOM      8  C   UNL     1      34.405 -22.615 -17.943  0.00  0.00    -0.027 C 
ATOM      9  C   UNL     1      36.584 -21.637 -17.024  0.00  0.00    +0.009 C 
ATOM     10  C   UNL     1      32.967 -24.006 -16.453  0.00  0.00    -0.024 C 
ATOM     11  C   UNL     1      34.732 -25.456 -15.588  0.00  0.00    +0.008 C 
ATOM     12  C   UNL     1      33.172 -23.348 -17.610  0.00  0.00    -0.009 C 
ATOM     13  C   UNL     1      34.540 -21.836 -19.047  0.00  0.00    -0.030 C 
ATOM     14  C   UNL     1      36.993 -21.455 -18.480  0.00  0.00    +0.026 C 
ATOM     15  C   UNL     1      35.787 -21.099 -19.314  0.00  0.00    -0.024 C 
ATOM     16  C   UNL     1      33.482 -21.653 -20.121  0.00  0.00    +0.034 C 
ATOM     17  C   UNL     1      35.884 -20.118 -20.228  0.00  0.00    +0.033 C 
ATOM     18  C   UNL     1      33.355 -20.206 -20.578  0.00  0.00    +0.074 C 
ATOM     19  C   UNL     1      34.696 -19.656 -20.984  0.00  0.00    +0.173 C 
ENDROOT
BRANCH   5  20
ATOM     20  O   UNL     1      33.145 -25.153 -13.313  0.00  0.00    -0.375 OA
ATOM     21  H   UNL     1      33.402 -25.893 -13.886  0.00  0.00    +0.211 HD
ENDBRANCH   5  20
BRANCH   5  22
ATOM     22  C   UNL     1      32.552 -22.906 -13.683  0.00  0.00    -0.052 C 
ATOM     23  C   UNL     1      31.704 -22.073 -13.518  0.00  0.00    -0.012 C 
ENDBRANCH   5  22
TORSDOF 2
ENDMDL
MODEL 5
REMARK VINA RESULT:      -7.4     13.827     16.125
REMARK  Name = 13313
REMARK  2 active torsions:
REMARK  status: ('A' for Active; 'I' for Inactive)
REMARK    1  A    between atoms: C_5  and  O_20
REMARK    2  A    between atoms: C_5  and  C_22
REMARK                            x       y       z     vdW  Elec       q    Type
REMARK                         _______ _______ _______ _____ _____    ______ ____
ROOT
ATOM      1  O   UNL     1      39.409 -26.536 -14.394  0.00  0.00    -0.291 OA
ATOM      2  C   UNL     1      32.708 -23.376 -15.725  0.00  0.00    +0.011 C 
ATOM      3  C   UNL     1      31.714 -23.157 -14.556  0.00  0.00    +0.052 C 
ATOM      4  C   UNL     1      34.146 -23.057 -15.312  0.00  0.00    +0.023 C 
ATOM      5  C   UNL     1      30.381 -23.521 -15.271  0.00  0.00    +0.145 C 
ATOM      6  C   UNL     1      32.058 -22.635 -16.886  0.00  0.00    +0.004 C 
ATOM      7  C   UNL     1      30.545 -22.864 -16.670  0.00  0.00    +0.040 C 
ATOM      8  C   UNL     1      34.550 -24.008 -14.165  0.00  0.00    -0.027 C 
ATOM      9  C   UNL     1      35.111 -23.125 -16.501  0.00  0.00    +0.009 C 
ATOM     10  C   UNL     1      32.178 -23.998 -13.392  0.00  0.00    -0.024 C 
ATOM     11  C   UNL     1      31.659 -21.697 -14.027  0.00  0.00    +0.008 C 
ATOM     12  C   UNL     1      33.467 -24.353 -13.229  0.00  0.00    -0.009 C 
ATOM     13  C   UNL     1      35.813 -24.497 -14.065  0.00  0.00    -0.030 C 
ATOM     14  C   UNL     1      36.544 -23.010 -15.998  0.00  0.00    +0.026 C 
ATOM     15  C   UNL     1      36.850 -24.143 -15.049  0.00  0.00    -0.024 C 
ATOM     16  C   UNL     1      36.310 -25.410 -12.957  0.00  0.00    +0.034 C 
ATOM     17  C   UNL     1      38.020 -24.795 -15.156  0.00  0.00    +0.033 C 
ATOM     18  C   UNL     1      37.194 -26.535 -13.478  0.00  0.00    +0.074 C 
ATOM     19  C   UNL     1      38.311 -25.986 -14.325  0.00  0.00    +0.173 C 
ENDROOT
BRANCH   5  20
ATOM     20  O   UNL     1      29.244 -22.961 -14.625  0.00  0.00    -0.375 OA
ATOM     21  H   UNL     1      28.487 -23.559 -14.730  0.00  0.00    +0.211 HD
ENDBRANCH   5  20
BRANCH   5  22
ATOM     22  C   UNL     1      30.171 -24.977 -15.408  0.00  0.00    -0.052 C 
ATOM     23  C   UNL     1      30.000 -26.160 -15.518  0.00  0.00    -0.012 C 
ENDBRANCH   5  22
TORSDOF 2
ENDMDL
MODEL 6
REMARK VINA RESULT:      -7.0     11.529     15.755
REMARK  Name = 13313
REMARK  2 active torsions:
REMARK  status: ('A' for Active; 'I' for Inactive)
REMARK    1  A    between atoms: C_5  and  O_20
REMARK    2  A    between atoms: C_5  and  C_22
REMARK                            x       y       z     vdW  Elec       q    Type
REMARK                         _______ _______ _______ _____ _____    ______ ____
ROOT
ATOM      1  O   UNL     1      35.048 -20.752 -21.532  0.00  0.00    -0.291 OA
ATOM      2  C   UNL     1      36.317 -24.566 -15.169  0.00  0.00    +0.011 C 
ATOM      3  C   UNL     1      37.228 -23.955 -14.074  0.00  0.00    +0.052 C 
ATOM      4  C   UNL     1      35.404 -23.512 -15.798  0.00  0.00    +0.023 C 
ATOM      5  C   UNL     1      37.989 -25.233 -13.619  0.00  0.00    +0.145 C 
ATOM      6  C   UNL     1      35.725 -25.794 -14.492  0.00  0.00    +0.004 C 
ATOM      7  C   UNL     1      36.873 -26.314 -13.599  0.00  0.00    +0.040 C 
ATOM      8  C   UNL     1      36.284 -22.432 -16.464  0.00  0.00    -0.027 C 
ATOM      9  C   UNL     1      34.398 -24.135 -16.771  0.00  0.00    +0.009 C 
ATOM     10  C   UNL     1      38.002 -22.820 -14.698  0.00  0.00    -0.024 C 
ATOM     11  C   UNL     1      36.460 -23.332 -12.874  0.00  0.00    +0.008 C 
ATOM     12  C   UNL     1      37.546 -22.137 -15.765  0.00  0.00    -0.009 C 
ATOM     13  C   UNL     1      35.910 -21.834 -17.624  0.00  0.00    -0.030 C 
ATOM     14  C   UNL     1      33.665 -23.029 -17.519  0.00  0.00    +0.026 C 
ATOM     15  C   UNL     1      34.650 -22.192 -18.297  0.00  0.00    -0.024 C 
ATOM     16  C   UNL     1      36.692 -20.743 -18.335  0.00  0.00    +0.034 C 
ATOM     17  C   UNL     1      34.362 -21.838 -19.561  0.00  0.00    +0.033 C 
ATOM     18  C   UNL     1      36.737 -20.943 -19.844  0.00  0.00    +0.074 C 
ATOM     19  C   UNL     1      35.349 -21.119 -20.399  0.00  0.00    +0.173 C 
ENDROOT
BRANCH   5  20
ATOM     20  O   UNL     1      38.539 -25.107 -12.313  0.00  0.00    -0.375 OA
ATOM     21  H   UNL     1      39.179 -24.378 -12.301  0.00  0.00    +0.211 HD
ENDBRANCH   5  20
BRANCH   5  22
ATOM     22  C   UNL     1      39.072 -25.628 -14.545  0.00  0.00    -0.052 C 
ATOM     23  C   UNL     1      39.951 -25.948 -15.297  0.00  0.00    -0.012 C 
ENDBRANCH   5  22
TORSDOF 2
ENDMDL
MODEL 7
REMARK VINA RESULT:      -7.0      6.156      9.264
REMARK  Name = 13313
REMARK  2 active torsions:
REMARK  status: ('A' for Active; 'I' for Inactive)
REMARK    1  A    between atoms: C_5  and  O_20
REMARK    2  A    between atoms: C_5  and  C_22
REMARK                            x       y       z     vdW  Elec       q    Type
REMARK                         _______ _______ _______ _____ _____    ______ ____
ROOT
ATOM      1  O   UNL     1      35.769 -23.459 -16.377  0.00  0.00    -0.291 OA
ATOM      2  C   UNL     1      33.665 -18.041 -21.159  0.00  0.00    +0.011 C 
ATOM      3  C   UNL     1      34.689 -17.468 -22.172  0.00  0.00    +0.052 C 
ATOM      4  C   UNL     1      33.799 -19.559 -21.018  0.00  0.00    +0.023 C 
ATOM      5  C   UNL     1      34.297 -15.963 -22.121  0.00  0.00    +0.145 C 
ATOM      6  C   UNL     1      32.346 -17.422 -21.601  0.00  0.00    +0.004 C 
ATOM      7  C   UNL     1      32.744 -16.009 -22.083  0.00  0.00    +0.040 C 
ATOM      8  C   UNL     1      35.215 -19.881 -20.492  0.00  0.00    -0.027 C 
ATOM      9  C   UNL     1      32.694 -20.150 -20.137  0.00  0.00    +0.009 C 
ATOM     10  C   UNL     1      36.068 -17.885 -21.721  0.00  0.00    -0.024 C 
ATOM     11  C   UNL     1      34.535 -18.015 -23.619  0.00  0.00    +0.008 C 
ATOM     12  C   UNL     1      36.279 -18.989 -20.978  0.00  0.00    -0.009 C 
ATOM     13  C   UNL     1      35.429 -20.902 -19.623  0.00  0.00    -0.030 C 
ATOM     14  C   UNL     1      32.997 -21.617 -19.859  0.00  0.00    +0.026 C 
ATOM     15  C   UNL     1      34.319 -21.744 -19.145  0.00  0.00    -0.024 C 
ATOM     16  C   UNL     1      36.786 -21.313 -19.077  0.00  0.00    +0.034 C 
ATOM     17  C   UNL     1      34.426 -22.580 -18.098  0.00  0.00    +0.033 C 
ATOM     18  C   UNL     1      36.745 -21.637 -17.590  0.00  0.00    +0.074 C 
ATOM     19  C   UNL     1      35.669 -22.648 -17.295  0.00  0.00    +0.173 C 
ENDROOT
BRANCH   5  20
ATOM     20  O   UNL     1      34.713 -15.251 -23.280  0.00  0.00    -0.375 OA
ATOM     21  H   UNL     1      34.773 -14.305 -23.072  0.00  0.00    +0.211 HD
ENDBRANCH   5  20
BRANCH   5  22
ATOM     22  C   UNL     1      34.821 -15.264 -20.929  0.00  0.00    -0.052 C 
ATOM     23  C   UNL     1      35.246 -14.695 -19.962  0.00  0.00    -0.012 C 
ENDBRANCH   5  22
TORSDOF 2
ENDMDL
MODEL 8
REMARK VINA RESULT:      -6.9      4.564      7.190
REMARK  Name = 13313
REMARK  2 active torsions:
REMARK  status: ('A' for Active; 'I' for Inactive)
REMARK    1  A    between atoms: C_5  and  O_20
REMARK    2  A    between atoms: C_5  and  C_22
REMARK                            x       y       z     vdW  Elec       q    Type
REMARK                         _______ _______ _______ _____ _____    ______ ____
ROOT
ATOM      1  O   UNL     1      32.968  -7.882 -20.446  0.00  0.00    -0.291 OA
ATOM      2  C   UNL     1      32.969  -3.660 -26.677  0.00  0.00    +0.011 C 
ATOM      3  C   UNL     1      33.821  -4.091 -27.899  0.00  0.00    +0.052 C 
ATOM      4  C   UNL     1      32.284  -4.858 -26.015  0.00  0.00    +0.023 C 
ATOM      5  C   UNL     1      34.346  -2.700 -28.358  0.00  0.00    +0.145 C 
ATOM      6  C   UNL     1      32.142  -2.499 -27.214  0.00  0.00    +0.004 C 
ATOM      7  C   UNL     1      33.100  -1.786 -28.195  0.00  0.00    +0.040 C 
ATOM      8  C   UNL     1      33.372  -5.830 -25.513  0.00  0.00    -0.027 C 
ATOM      9  C   UNL     1      31.323  -4.423 -24.904  0.00  0.00    +0.009 C 
ATOM     10  C   UNL     1      34.807  -5.132 -27.430  0.00  0.00    -0.024 C 
ATOM     11  C   UNL     1      33.009  -4.763 -29.042  0.00  0.00    +0.008 C 
ATOM     12  C   UNL     1      34.573  -5.916 -26.361  0.00  0.00    -0.009 C 
ATOM     13  C   UNL     1      33.219  -6.524 -24.356  0.00  0.00    -0.030 C 
ATOM     14  C   UNL     1      30.836  -5.651 -24.146  0.00  0.00    +0.026 C 
ATOM     15  C   UNL     1      32.008  -6.375 -23.530  0.00  0.00    -0.024 C 
ATOM     16  C   UNL     1      34.218  -7.524 -23.799  0.00  0.00    +0.034 C 
ATOM     17  C   UNL     1      31.919  -6.820 -22.265  0.00  0.00    +0.033 C 
ATOM     18  C   UNL     1      34.410  -7.385 -22.295  0.00  0.00    +0.074 C 
ATOM     19  C   UNL     1      33.084  -7.429 -21.583  0.00  0.00    +0.173 C 
ENDROOT
BRANCH   5  20
ATOM     20  O   UNL     1      34.752  -2.692 -29.721  0.00  0.00    -0.375 OA
ATOM     21  H   UNL     1      33.967  -2.698 -30.292  0.00  0.00    +0.211 HD
ENDBRANCH   5  20
BRANCH   5  22
ATOM     22  C   UNL     1      35.465  -2.198 -27.535  0.00  0.00    -0.052 C 
ATOM     23  C   UNL     1      36.374  -1.789 -26.866  0.00  0.00    -0.012 C 
ENDBRANCH   5  22
TORSDOF 2
ENDMDL
MODEL 9
REMARK VINA RESULT:      -6.9     14.064     16.404
REMARK  Name = 13313
REMARK  2 active torsions:
REMARK  status: ('A' for Active; 'I' for Inactive)
REMARK    1  A    between atoms: C_5  and  O_20
REMARK    2  A    between atoms: C_5  and  C_22
REMARK                            x       y       z     vdW  Elec       q    Type
REMARK                         _______ _______ _______ _____ _____    ______ ____
ROOT
ATOM      1  O   UNL     1      28.390 -23.482 -16.267  0.00  0.00    -0.291 OA
ATOM      2  C   UNL     1      35.335 -24.494 -13.546  0.00  0.00    +0.011 C 
ATOM      3  C   UNL     1      36.556 -23.955 -14.334  0.00  0.00    +0.052 C 
ATOM      4  C   UNL     1      34.166 -23.507 -13.571  0.00  0.00    +0.023 C 
ATOM      5  C   UNL     1      37.554 -25.127 -14.107  0.00  0.00    +0.145 C 
ATOM      6  C   UNL     1      35.937 -24.942 -12.222  0.00  0.00    +0.004 C 
ATOM      7  C   UNL     1      37.325 -25.497 -12.616  0.00  0.00    +0.040 C 
ATOM      8  C   UNL     1      33.728 -23.299 -15.037  0.00  0.00    -0.027 C 
ATOM      9  C   UNL     1      33.013 -23.963 -12.671  0.00  0.00    +0.009 C 
ATOM     10  C   UNL     1      36.098 -23.640 -15.737  0.00  0.00    -0.024 C 
ATOM     11  C   UNL     1      37.147 -22.631 -13.774  0.00  0.00    +0.008 C 
ATOM     12  C   UNL     1      34.820 -23.329 -16.025  0.00  0.00    -0.009 C 
ATOM     13  C   UNL     1      32.422 -23.130 -15.366  0.00  0.00    -0.030 C 
ATOM     14  C   UNL     1      31.806 -23.063 -12.897  0.00  0.00    +0.026 C 
ATOM     15  C   UNL     1      31.368 -23.140 -14.338  0.00  0.00    -0.024 C 
ATOM     16  C   UNL     1      31.901 -22.888 -16.772  0.00  0.00    +0.034 C 
ATOM     17  C   UNL     1      30.059 -23.246 -14.625  0.00  0.00    +0.033 C 
ATOM     18  C   UNL     1      30.638 -23.684 -17.074  0.00  0.00    +0.074 C 
ATOM     19  C   UNL     1      29.593 -23.444 -16.017  0.00  0.00    +0.173 C 
ENDROOT
BRANCH   5  20
ATOM     20  O   UNL     1      38.909 -24.733 -14.285  0.00  0.00    -0.375 OA
ATOM     21  H   UNL     1      39.223 -25.038 -15.151  0.00  0.00    +0.211 HD
ENDBRANCH   5  20
BRANCH   5  22
ATOM     22  C   UNL     1      37.290 -26.295 -14.974  0.00  0.00    -0.052 C 
ATOM     23  C   UNL     1      37.076 -27.243 -15.678  0.00  0.00    -0.012 C 
ENDBRANCH   5  22
TORSDOF 2
ENDMDL
