MODEL 1
REMARK VINA RESULT:     -10.5      0.000      0.000
REMARK  Name = 23644580
REMARK  9 active torsions:
REMARK  status: ('A' for Active; 'I' for Inactive)
REMARK    1  A    between atoms: N_2  and  C_12
REMARK    2  A    between atoms: N_2  and  C_26
REMARK    3  A    between atoms: C_3  and  C_5
REMARK    4  A    between atoms: N_11  and  C_18
REMARK    5  A    between atoms: C_18  and  C_19
REMARK    6  A    between atoms: C_19  and  C_20
REMARK    7  A    between atoms: C_26  and  C_27
REMARK    8  A    between atoms: C_27  and  C_28
REMARK    9  A    between atoms: C_28  and  O_29
REMARK                            x       y       z     vdW  Elec       q    Type
REMARK                         _______ _______ _______ _____ _____    ______ ____
ROOT
ATOM      1  O   UNL     1      35.300 -18.455 -24.259  0.00  0.00    -0.270 OA
ATOM      2  N   UNL     1      34.859 -16.626 -22.869  0.00  0.00    -0.280 N 
ATOM      3  C   UNL     1      35.174 -17.970 -23.135  0.00  0.00    +0.249 C 
ENDROOT
BRANCH   3   5
ATOM      4 CL   UNL     1      36.069 -21.673 -18.545  0.00  0.00    -0.082 Cl
ATOM      5  C   UNL     1      35.395 -18.884 -22.003  0.00  0.00    +0.054 C 
ATOM      6  C   UNL     1      34.339 -19.646 -21.528  0.00  0.00    +0.005 C 
ATOM      7  C   UNL     1      36.655 -18.966 -21.431  0.00  0.00    +0.005 C 
ATOM      8  C   UNL     1      34.548 -20.511 -20.455  0.00  0.00    +0.012 C 
ATOM      9  C   UNL     1      36.864 -19.832 -20.357  0.00  0.00    +0.012 C 
ATOM     10  C   UNL     1      35.810 -20.605 -19.869  0.00  0.00    +0.058 C 
ENDBRANCH   3   5
BRANCH   2  12
ATOM     11  N   UNL     1      33.915 -13.417 -24.552  0.00  0.00    +0.388 N 
ATOM     12  C   UNL     1      34.656 -15.707 -23.962  0.00  0.00    +0.055 C 
ATOM     13  C   UNL     1      34.144 -14.356 -23.445  0.00  0.00    -0.057 C 
ATOM     14  C   UNL     1      33.695 -16.298 -24.995  0.00  0.00    +0.016 C 
ATOM     15  C   UNL     1      33.402 -15.282 -26.092  0.00  0.00    -0.021 C 
ATOM     16  C   UNL     1      32.933 -13.950 -25.506  0.00  0.00    -0.077 C 
ATOM     17  H   UNL     1      34.798 -13.292 -25.047  0.00  0.00    -0.080 HD
BRANCH  11  18
ATOM     18  C   UNL     1      33.477 -12.119 -24.039  0.00  0.00    -0.073 C 
BRANCH  18  19
ATOM     19  C   UNL     1      34.262 -10.979 -24.691  0.00  0.00    +0.004 C 
BRANCH  19  20
ATOM     20  C   UNL     1      34.007  -9.665 -23.998  0.00  0.00    -0.024 C 
ATOM     21  C   UNL     1      34.927  -8.636 -24.133  0.00  0.00    -0.004 C 
ATOM     22  C   UNL     1      32.858  -9.506 -23.238  0.00  0.00    -0.004 C 
ATOM     23  C   UNL     1      34.692  -7.418 -23.491  0.00  0.00    -0.000 C 
ATOM     24  C   UNL     1      32.623  -8.290 -22.598  0.00  0.00    -0.000 C 
ATOM     25  C   UNL     1      33.540  -7.246 -22.724  0.00  0.00    -0.000 C 
ENDBRANCH  19  20
ENDBRANCH  18  19
ENDBRANCH  11  18
ENDBRANCH   2  12
BRANCH   2  26
ATOM     26  C   UNL     1      34.713 -16.068 -21.520  0.00  0.00    +0.096 C 
BRANCH  26  27
ATOM     27  C   UNL     1      33.291 -16.190 -20.989  0.00  0.00    +0.054 C 
BRANCH  27  28
ATOM     28  C   UNL     1      32.833 -14.945 -20.238  0.00  0.00    +0.144 C 
BRANCH  28  29
ATOM     29  O   UNL     1      32.182 -14.073 -21.153  0.00  0.00    -0.351 OA
ATOM     30  C   UNL     1      32.027 -12.769 -20.610  0.00  0.00    +0.174 C 
ENDBRANCH  28  29
ENDBRANCH  27  28
ENDBRANCH  26  27
ENDBRANCH   2  26
TORSDOF 9
ENDMDL
MODEL 2
REMARK VINA RESULT:     -10.4      3.703      9.230
REMARK  Name = 23644580
REMARK  9 active torsions:
REMARK  status: ('A' for Active; 'I' for Inactive)
REMARK    1  A    between atoms: N_2  and  C_12
REMARK    2  A    between atoms: N_2  and  C_26
REMARK    3  A    between atoms: C_3  and  C_5
REMARK    4  A    between atoms: N_11  and  C_18
REMARK    5  A    between atoms: C_18  and  C_19
REMARK    6  A    between atoms: C_19  and  C_20
REMARK    7  A    between atoms: C_26  and  C_27
REMARK    8  A    between atoms: C_27  and  C_28
REMARK    9  A    between atoms: C_28  and  O_29
REMARK                            x       y       z     vdW  Elec       q    Type
REMARK                         _______ _______ _______ _____ _____    ______ ____
ROOT
ATOM      1  O   UNL     1      31.375 -12.163 -21.444  0.00  0.00    -0.270 OA
ATOM      2  N   UNL     1      32.655 -12.050 -23.398  0.00  0.00    -0.280 N 
ATOM      3  C   UNL     1      31.943 -11.506 -22.315  0.00  0.00    +0.249 C 
ENDROOT
BRANCH   3   5
ATOM      4 CL   UNL     1      31.648  -5.574 -21.759  0.00  0.00    -0.082 Cl
ATOM      5  C   UNL     1      31.871 -10.042 -22.178  0.00  0.00    +0.054 C 
ATOM      6  C   UNL     1      32.358  -9.442 -21.027  0.00  0.00    +0.005 C 
ATOM      7  C   UNL     1      31.315  -9.290 -23.201  0.00  0.00    +0.005 C 
ATOM      8  C   UNL     1      32.289  -8.055 -20.897  0.00  0.00    +0.012 C 
ATOM      9  C   UNL     1      31.246  -7.903 -23.071  0.00  0.00    +0.012 C 
ATOM     10  C   UNL     1      31.733  -7.286 -21.919  0.00  0.00    +0.058 C 
ENDBRANCH   3   5
BRANCH   2  12
ATOM     11  N   UNL     1      33.802 -15.530 -22.621  0.00  0.00    +0.388 N 
ATOM     12  C   UNL     1      32.754 -13.482 -23.544  0.00  0.00    +0.055 C 
ATOM     13  C   UNL     1      33.677 -14.073 -22.470  0.00  0.00    -0.057 C 
ATOM     14  C   UNL     1      33.239 -13.850 -24.947  0.00  0.00    +0.016 C 
ATOM     15  C   UNL     1      33.444 -15.356 -25.061  0.00  0.00    -0.021 C 
ATOM     16  C   UNL     1      34.341 -15.883 -23.941  0.00  0.00    -0.077 C 
ATOM     17  H   UNL     1      32.869 -15.934 -22.544  0.00  0.00    -0.080 HD
BRANCH  11  18
ATOM     18  C   UNL     1      34.643 -16.083 -21.560  0.00  0.00    -0.073 C 
BRANCH  18  19
ATOM     19  C   UNL     1      35.479 -17.254 -22.078  0.00  0.00    +0.004 C 
BRANCH  19  20
ATOM     20  C   UNL     1      35.145 -18.535 -21.358  0.00  0.00    -0.024 C 
ATOM     21  C   UNL     1      33.816 -18.890 -21.183  0.00  0.00    -0.004 C 
ATOM     22  C   UNL     1      36.171 -19.337 -20.882  0.00  0.00    -0.004 C 
ATOM     23  C   UNL     1      33.505 -20.075 -20.515  0.00  0.00    -0.000 C 
ATOM     24  C   UNL     1      35.861 -20.522 -20.216  0.00  0.00    -0.000 C 
ATOM     25  C   UNL     1      34.528 -20.892 -20.032  0.00  0.00    -0.000 C 
ENDBRANCH  19  20
ENDBRANCH  18  19
ENDBRANCH  11  18
ENDBRANCH   2  12
BRANCH   2  26
ATOM     26  C   UNL     1      33.324 -11.248 -24.427  0.00  0.00    +0.096 C 
BRANCH  26  27
ATOM     27  C   UNL     1      34.681 -10.728 -23.969  0.00  0.00    +0.054 C 
BRANCH  27  28
ATOM     28  C   UNL     1      35.022  -9.365 -24.564  0.00  0.00    +0.144 C 
BRANCH  28  29
ATOM     29  O   UNL     1      35.009  -8.397 -23.523  0.00  0.00    -0.351 OA
ATOM     30  C   UNL     1      34.677  -7.106 -24.016  0.00  0.00    +0.174 C 
ENDBRANCH  28  29
ENDBRANCH  27  28
ENDBRANCH  26  27
ENDBRANCH   2  26
TORSDOF 9
ENDMDL
MODEL 3
REMARK VINA RESULT:     -10.2      3.273      8.484
REMARK  Name = 23644580
REMARK  9 active torsions:
REMARK  status: ('A' for Active; 'I' for Inactive)
REMARK    1  A    between atoms: N_2  and  C_12
REMARK    2  A    between atoms: N_2  and  C_26
REMARK    3  A    between atoms: C_3  and  C_5
REMARK    4  A    between atoms: N_11  and  C_18
REMARK    5  A    between atoms: C_18  and  C_19
REMARK    6  A    between atoms: C_19  and  C_20
REMARK    7  A    between atoms: C_26  and  C_27
REMARK    8  A    between atoms: C_27  and  C_28
REMARK    9  A    between atoms: C_28  and  O_29
REMARK                            x       y       z     vdW  Elec       q    Type
REMARK                         _______ _______ _______ _____ _____    ______ ____
ROOT
ATOM      1  O   UNL     1      33.208 -13.164 -25.842  0.00  0.00    -0.270 OA
ATOM      2  N   UNL     1      33.837 -13.915 -23.718  0.00  0.00    -0.280 N 
ATOM      3  C   UNL     1      33.580 -12.935 -24.692  0.00  0.00    +0.249 C 
ENDROOT
BRANCH   3   5
ATOM      4 CL   UNL     1      34.239  -7.190 -23.224  0.00  0.00    -0.082 Cl
ATOM      5  C   UNL     1      33.743 -11.517 -24.330  0.00  0.00    +0.054 C 
ATOM      6  C   UNL     1      34.861 -10.827 -24.770  0.00  0.00    +0.005 C 
ATOM      7  C   UNL     1      32.774 -10.898 -23.555  0.00  0.00    +0.005 C 
ATOM      8  C   UNL     1      35.016  -9.484 -24.427  0.00  0.00    +0.012 C 
ATOM      9  C   UNL     1      32.929  -9.555 -23.212  0.00  0.00    +0.012 C 
ATOM     10  C   UNL     1      34.050  -8.848 -23.648  0.00  0.00    +0.058 C 
ENDBRANCH   3   5
BRANCH   2  12
ATOM     11  N   UNL     1      34.635 -17.574 -23.757  0.00  0.00    +0.388 N 
ATOM     12  C   UNL     1      33.667 -15.311 -24.044  0.00  0.00    +0.055 C 
ATOM     13  C   UNL     1      34.786 -16.152 -23.416  0.00  0.00    -0.057 C 
ATOM     14  C   UNL     1      33.615 -15.510 -25.559  0.00  0.00    +0.016 C 
ATOM     15  C   UNL     1      33.542 -16.995 -25.898  0.00  0.00    -0.021 C 
ATOM     16  C   UNL     1      34.662 -17.778 -25.212  0.00  0.00    -0.077 C 
ATOM     17  H   UNL     1      33.726 -17.885 -23.413  0.00  0.00    -0.080 HD
BRANCH  11  18
ATOM     18  C   UNL     1      35.679 -18.369 -23.109  0.00  0.00    -0.073 C 
BRANCH  18  19
ATOM     19  C   UNL     1      35.647 -18.180 -21.592  0.00  0.00    +0.004 C 
BRANCH  19  20
ATOM     20  C   UNL     1      34.942 -19.323 -20.907  0.00  0.00    -0.024 C 
ATOM     21  C   UNL     1      33.556 -19.359 -20.897  0.00  0.00    -0.004 C 
ATOM     22  C   UNL     1      35.690 -20.319 -20.297  0.00  0.00    -0.004 C 
ATOM     23  C   UNL     1      32.902 -20.417 -20.263  0.00  0.00    -0.000 C 
ATOM     24  C   UNL     1      35.037 -21.375 -19.663  0.00  0.00    -0.000 C 
ATOM     25  C   UNL     1      33.643 -21.425 -19.646  0.00  0.00    -0.000 C 
ENDBRANCH  19  20
ENDBRANCH  18  19
ENDBRANCH  11  18
ENDBRANCH   2  12
BRANCH   2  26
ATOM     26  C   UNL     1      34.281 -13.620 -22.352  0.00  0.00    +0.096 C 
BRANCH  26  27
ATOM     27  C   UNL     1      33.265 -14.052 -21.302  0.00  0.00    +0.054 C 
BRANCH  27  28
ATOM     28  C   UNL     1      32.043 -13.140 -21.254  0.00  0.00    +0.144 C 
BRANCH  28  29
ATOM     29  O   UNL     1      32.036 -12.453 -20.009  0.00  0.00    -0.351 OA
ATOM     30  C   UNL     1      31.274 -11.256 -20.078  0.00  0.00    +0.174 C 
ENDBRANCH  28  29
ENDBRANCH  27  28
ENDBRANCH  26  27
ENDBRANCH   2  26
TORSDOF 9
ENDMDL
MODEL 4
REMARK VINA RESULT:     -10.0      3.715      9.010
REMARK  Name = 23644580
REMARK  9 active torsions:
REMARK  status: ('A' for Active; 'I' for Inactive)
REMARK    1  A    between atoms: N_2  and  C_12
REMARK    2  A    between atoms: N_2  and  C_26
REMARK    3  A    between atoms: C_3  and  C_5
REMARK    4  A    between atoms: N_11  and  C_18
REMARK    5  A    between atoms: C_18  and  C_19
REMARK    6  A    between atoms: C_19  and  C_20
REMARK    7  A    between atoms: C_26  and  C_27
REMARK    8  A    between atoms: C_27  and  C_28
REMARK    9  A    between atoms: C_28  and  O_29
REMARK                            x       y       z     vdW  Elec       q    Type
REMARK                         _______ _______ _______ _____ _____    ______ ____
ROOT
ATOM      1  O   UNL     1      34.121 -11.483 -24.565  0.00  0.00    -0.270 OA
ATOM      2  N   UNL     1      32.484 -12.179 -23.046  0.00  0.00    -0.280 N 
ATOM      3  C   UNL     1      33.253 -11.223 -23.733  0.00  0.00    +0.249 C 
ENDROOT
BRANCH   3   5
ATOM      4 CL   UNL     1      32.262  -5.438 -22.670  0.00  0.00    -0.082 Cl
ATOM      5  C   UNL     1      33.009  -9.796 -23.471  0.00  0.00    +0.054 C 
ATOM      6  C   UNL     1      34.085  -8.950 -23.255  0.00  0.00    +0.005 C 
ATOM      7  C   UNL     1      31.706  -9.323 -23.445  0.00  0.00    +0.005 C 
ATOM      8  C   UNL     1      33.853  -7.597 -23.006  0.00  0.00    +0.012 C 
ATOM      9  C   UNL     1      31.474  -7.969 -23.196  0.00  0.00    +0.012 C 
ATOM     10  C   UNL     1      32.548  -7.107 -22.977  0.00  0.00    +0.058 C 
ENDBRANCH   3   5
BRANCH   2  12
ATOM     11  N   UNL     1      33.934 -15.597 -22.558  0.00  0.00    +0.388 N 
ATOM     12  C   UNL     1      32.693 -13.584 -23.298  0.00  0.00    +0.055 C 
ATOM     13  C   UNL     1      33.699 -14.170 -22.299  0.00  0.00    -0.057 C 
ATOM     14  C   UNL     1      33.155 -13.812 -24.738  0.00  0.00    +0.016 C 
ATOM     15  C   UNL     1      33.475 -15.284 -24.968  0.00  0.00    -0.021 C 
ATOM     16  C   UNL     1      34.452 -15.812 -23.916  0.00  0.00    -0.077 C 
ATOM     17  H   UNL     1      33.040 -16.082 -22.483  0.00  0.00    -0.080 HD
BRANCH  11  18
ATOM     18  C   UNL     1      34.854 -16.152 -21.566  0.00  0.00    -0.073 C 
BRANCH  18  19
ATOM     19  C   UNL     1      35.575 -17.384 -22.116  0.00  0.00    +0.004 C 
BRANCH  19  20
ATOM     20  C   UNL     1      35.204 -18.629 -21.353  0.00  0.00    -0.024 C 
ATOM     21  C   UNL     1      36.206 -19.417 -20.806  0.00  0.00    -0.004 C 
ATOM     22  C   UNL     1      33.866 -18.968 -21.211  0.00  0.00    -0.004 C 
ATOM     23  C   UNL     1      35.863 -20.571 -20.100  0.00  0.00    -0.000 C 
ATOM     24  C   UNL     1      33.523 -20.121 -20.505  0.00  0.00    -0.000 C 
ATOM     25  C   UNL     1      34.521 -20.922 -19.949  0.00  0.00    -0.000 C 
ENDBRANCH  19  20
ENDBRANCH  18  19
ENDBRANCH  11  18
ENDBRANCH   2  12
BRANCH   2  26
ATOM     26  C   UNL     1      31.454 -11.847 -22.057  0.00  0.00    +0.096 C 
BRANCH  26  27
ATOM     27  C   UNL     1      31.975 -11.915 -20.627  0.00  0.00    +0.054 C 
BRANCH  27  28
ATOM     28  C   UNL     1      31.185 -11.030 -19.668  0.00  0.00    +0.144 C 
BRANCH  28  29
ATOM     29  O   UNL     1      32.088 -10.152 -19.008  0.00  0.00    -0.351 OA
ATOM     30  C   UNL     1      32.255  -8.939 -19.728  0.00  0.00    +0.174 C 
ENDBRANCH  28  29
ENDBRANCH  27  28
ENDBRANCH  26  27
ENDBRANCH   2  26
TORSDOF 9
ENDMDL
MODEL 5
REMARK VINA RESULT:      -9.9      3.735      9.893
REMARK  Name = 23644580
REMARK  9 active torsions:
REMARK  status: ('A' for Active; 'I' for Inactive)
REMARK    1  A    between atoms: N_2  and  C_12
REMARK    2  A    between atoms: N_2  and  C_26
REMARK    3  A    between atoms: C_3  and  C_5
REMARK    4  A    between atoms: N_11  and  C_18
REMARK    5  A    between atoms: C_18  and  C_19
REMARK    6  A    between atoms: C_19  and  C_20
REMARK    7  A    between atoms: C_26  and  C_27
REMARK    8  A    between atoms: C_27  and  C_28
REMARK    9  A    between atoms: C_28  and  O_29
REMARK                            x       y       z     vdW  Elec       q    Type
REMARK                         _______ _______ _______ _____ _____    ______ ____
ROOT
ATOM      1  O   UNL     1      35.016 -16.701 -20.099  0.00  0.00    -0.270 OA
ATOM      2  N   UNL     1      34.445 -17.817 -22.074  0.00  0.00    -0.280 N 
ATOM      3  C   UNL     1      34.520 -16.699 -21.225  0.00  0.00    +0.249 C 
ENDROOT
BRANCH   3   5
ATOM      4 CL   UNL     1      32.364 -11.480 -23.149  0.00  0.00    -0.082 Cl
ATOM      5  C   UNL     1      33.988 -15.412 -21.700  0.00  0.00    +0.054 C 
ATOM      6  C   UNL     1      34.640 -14.743 -22.724  0.00  0.00    +0.005 C 
ATOM      7  C   UNL     1      32.844 -14.891 -21.114  0.00  0.00    +0.005 C 
ATOM      8  C   UNL     1      34.137 -13.522 -23.173  0.00  0.00    +0.012 C 
ATOM      9  C   UNL     1      32.341 -13.670 -21.565  0.00  0.00    +0.012 C 
ATOM     10  C   UNL     1      32.987 -12.986 -22.594  0.00  0.00    +0.058 C 
ENDBRANCH   3   5
BRANCH   2  12
ATOM     11  N   UNL     1      34.520 -21.083 -20.243  0.00  0.00    +0.388 N 
ATOM     12  C   UNL     1      34.975 -19.086 -21.637  0.00  0.00    +0.055 C 
ATOM     13  C   UNL     1      33.982 -19.797 -20.709  0.00  0.00    -0.057 C 
ATOM     14  C   UNL     1      36.330 -18.899 -20.952  0.00  0.00    +0.016 C 
ATOM     15  C   UNL     1      36.834 -20.228 -20.400  0.00  0.00    -0.021 C 
ATOM     16  C   UNL     1      35.783 -20.898 -19.516  0.00  0.00    -0.077 C 
ATOM     17  H   UNL     1      34.710 -21.660 -21.062  0.00  0.00    -0.080 HD
BRANCH  11  18
ATOM     18  C   UNL     1      33.540 -21.771 -19.401  0.00  0.00    -0.073 C 
BRANCH  18  19
ATOM     19  C   UNL     1      34.190 -22.928 -18.640  0.00  0.00    +0.004 C 
BRANCH  19  20
ATOM     20  C   UNL     1      33.595 -23.088 -17.264  0.00  0.00    -0.024 C 
ATOM     21  C   UNL     1      32.217 -23.046 -17.110  0.00  0.00    -0.004 C 
ATOM     22  C   UNL     1      34.434 -23.274 -16.176  0.00  0.00    -0.004 C 
ATOM     23  C   UNL     1      31.665 -23.193 -15.836  0.00  0.00    -0.000 C 
ATOM     24  C   UNL     1      33.883 -23.421 -14.903  0.00  0.00    -0.000 C 
ATOM     25  C   UNL     1      32.498 -23.381 -14.733  0.00  0.00    -0.000 C 
ENDBRANCH  19  20
ENDBRANCH  18  19
ENDBRANCH  11  18
ENDBRANCH   2  12
BRANCH   2  26
ATOM     26  C   UNL     1      33.848 -17.793 -23.413  0.00  0.00    +0.096 C 
BRANCH  26  27
ATOM     27  C   UNL     1      34.890 -17.910 -24.518  0.00  0.00    +0.054 C 
BRANCH  27  28
ATOM     28  C   UNL     1      34.808 -16.770 -25.529  0.00  0.00    +0.144 C 
BRANCH  28  29
ATOM     29  O   UNL     1      33.456 -16.618 -25.938  0.00  0.00    -0.351 OA
ATOM     30  C   UNL     1      33.139 -15.258 -26.199  0.00  0.00    +0.174 C 
ENDBRANCH  28  29
ENDBRANCH  27  28
ENDBRANCH  26  27
ENDBRANCH   2  26
TORSDOF 9
ENDMDL
MODEL 6
REMARK VINA RESULT:      -9.5      3.282      8.884
REMARK  Name = 23644580
REMARK  9 active torsions:
REMARK  status: ('A' for Active; 'I' for Inactive)
REMARK    1  A    between atoms: N_2  and  C_12
REMARK    2  A    between atoms: N_2  and  C_26
REMARK    3  A    between atoms: C_3  and  C_5
REMARK    4  A    between atoms: N_11  and  C_18
REMARK    5  A    between atoms: C_18  and  C_19
REMARK    6  A    between atoms: C_19  and  C_20
REMARK    7  A    between atoms: C_26  and  C_27
REMARK    8  A    between atoms: C_27  and  C_28
REMARK    9  A    between atoms: C_28  and  O_29
REMARK                            x       y       z     vdW  Elec       q    Type
REMARK                         _______ _______ _______ _____ _____    ______ ____
ROOT
ATOM      1  O   UNL     1      33.378 -13.374 -25.737  0.00  0.00    -0.270 OA
ATOM      2  N   UNL     1      33.891 -13.944 -23.527  0.00  0.00    -0.280 N 
ATOM      3  C   UNL     1      33.690 -13.049 -24.592  0.00  0.00    +0.249 C 
ENDROOT
BRANCH   3   5
ATOM      4 CL   UNL     1      34.292  -7.201 -23.580  0.00  0.00    -0.082 Cl
ATOM      5  C   UNL     1      33.838 -11.606 -24.343  0.00  0.00    +0.054 C 
ATOM      6  C   UNL     1      34.909 -10.926 -24.902  0.00  0.00    +0.005 C 
ATOM      7  C   UNL     1      32.905 -10.953 -23.553  0.00  0.00    +0.005 C 
ATOM      8  C   UNL     1      35.050  -9.558 -24.664  0.00  0.00    +0.012 C 
ATOM      9  C   UNL     1      33.046  -9.585 -23.317  0.00  0.00    +0.012 C 
ATOM     10  C   UNL     1      34.119  -8.888 -23.872  0.00  0.00    +0.058 C 
ENDBRANCH   3   5
BRANCH   2  12
ATOM     11  N   UNL     1      34.118 -17.601 -22.752  0.00  0.00    +0.388 N 
ATOM     12  C   UNL     1      33.734 -15.362 -23.743  0.00  0.00    +0.055 C 
ATOM     13  C   UNL     1      34.255 -16.153 -22.536  0.00  0.00    -0.057 C 
ATOM     14  C   UNL     1      34.439 -15.795 -25.029  0.00  0.00    +0.016 C 
ATOM     15  C   UNL     1      34.360 -17.308 -25.195  0.00  0.00    -0.021 C 
ATOM     16  C   UNL     1      34.859 -18.032 -23.945  0.00  0.00    -0.077 C 
ATOM     17  H   UNL     1      33.130 -17.803 -22.906  0.00  0.00    -0.080 HD
BRANCH  11  18
ATOM     18  C   UNL     1      34.571 -18.338 -21.573  0.00  0.00    -0.073 C 
BRANCH  18  19
ATOM     19  C   UNL     1      33.859 -19.688 -21.465  0.00  0.00    +0.004 C 
BRANCH  19  20
ATOM     20  C   UNL     1      34.466 -20.549 -20.387  0.00  0.00    -0.024 C 
ATOM     21  C   UNL     1      35.838 -20.518 -20.184  0.00  0.00    -0.004 C 
ATOM     22  C   UNL     1      33.645 -21.358 -19.617  0.00  0.00    -0.004 C 
ATOM     23  C   UNL     1      36.401 -21.315 -19.186  0.00  0.00    -0.000 C 
ATOM     24  C   UNL     1      34.207 -22.155 -18.621  0.00  0.00    -0.000 C 
ATOM     25  C   UNL     1      35.586 -22.134 -18.405  0.00  0.00    -0.000 C 
ENDBRANCH  19  20
ENDBRANCH  18  19
ENDBRANCH  11  18
ENDBRANCH   2  12
BRANCH   2  26
ATOM     26  C   UNL     1      34.264 -13.534 -22.169  0.00  0.00    +0.096 C 
BRANCH  26  27
ATOM     27  C   UNL     1      33.171 -13.832 -21.150  0.00  0.00    +0.054 C 
BRANCH  27  28
ATOM     28  C   UNL     1      31.996 -12.865 -21.246  0.00  0.00    +0.144 C 
BRANCH  28  29
ATOM     29  O   UNL     1      31.713 -12.360 -19.948  0.00  0.00    -0.351 OA
ATOM     30  C   UNL     1      31.907 -10.955 -19.880  0.00  0.00    +0.174 C 
ENDBRANCH  28  29
ENDBRANCH  27  28
ENDBRANCH  26  27
ENDBRANCH   2  26
TORSDOF 9
ENDMDL
MODEL 7
REMARK VINA RESULT:      -9.4      3.850      9.764
REMARK  Name = 23644580
REMARK  9 active torsions:
REMARK  status: ('A' for Active; 'I' for Inactive)
REMARK    1  A    between atoms: N_2  and  C_12
REMARK    2  A    between atoms: N_2  and  C_26
REMARK    3  A    between atoms: C_3  and  C_5
REMARK    4  A    between atoms: N_11  and  C_18
REMARK    5  A    between atoms: C_18  and  C_19
REMARK    6  A    between atoms: C_19  and  C_20
REMARK    7  A    between atoms: C_26  and  C_27
REMARK    8  A    between atoms: C_27  and  C_28
REMARK    9  A    between atoms: C_28  and  O_29
REMARK                            x       y       z     vdW  Elec       q    Type
REMARK                         _______ _______ _______ _____ _____    ______ ____
ROOT
ATOM      1  O   UNL     1      35.633 -19.030 -24.214  0.00  0.00    -0.270 OA
ATOM      2  N   UNL     1      34.634 -18.483 -22.172  0.00  0.00    -0.280 N 
ATOM      3  C   UNL     1      34.989 -18.252 -23.512  0.00  0.00    +0.249 C 
ENDROOT
BRANCH   3   5
ATOM      4 CL   UNL     1      33.222 -13.186 -26.118  0.00  0.00    -0.082 Cl
ATOM      5  C   UNL     1      34.553 -17.002 -24.155  0.00  0.00    +0.054 C 
ATOM      6  C   UNL     1      34.917 -15.787 -23.596  0.00  0.00    +0.005 C 
ATOM      7  C   UNL     1      33.786 -17.062 -25.308  0.00  0.00    +0.005 C 
ATOM      8  C   UNL     1      34.503 -14.603 -24.205  0.00  0.00    +0.012 C 
ATOM      9  C   UNL     1      33.373 -15.877 -25.917  0.00  0.00    +0.012 C 
ATOM     10  C   UNL     1      33.732 -14.647 -25.366  0.00  0.00    +0.058 C 
ENDBRANCH   3   5
BRANCH   2  12
ATOM     11  N   UNL     1      34.351 -21.431 -19.878  0.00  0.00    +0.388 N 
ATOM     12  C   UNL     1      35.035 -19.709 -21.525  0.00  0.00    +0.055 C 
ATOM     13  C   UNL     1      33.946 -20.192 -20.558  0.00  0.00    -0.057 C 
ATOM     14  C   UNL     1      36.370 -19.528 -20.801  0.00  0.00    +0.016 C 
ATOM     15  C   UNL     1      36.735 -20.793 -20.033  0.00  0.00    -0.021 C 
ATOM     16  C   UNL     1      35.593 -21.238 -19.118  0.00  0.00    -0.077 C 
ATOM     17  H   UNL     1      34.525 -22.138 -20.592  0.00  0.00    -0.080 HD
BRANCH  11  18
ATOM     18  C   UNL     1      33.281 -21.904 -18.999  0.00  0.00    -0.073 C 
BRANCH  18  19
ATOM     19  C   UNL     1      33.749 -23.094 -18.160  0.00  0.00    +0.004 C 
BRANCH  19  20
ATOM     20  C   UNL     1      33.018 -23.165 -16.844  0.00  0.00    -0.024 C 
ATOM     21  C   UNL     1      31.653 -22.923 -16.811  0.00  0.00    -0.004 C 
ATOM     22  C   UNL     1      33.721 -23.470 -15.689  0.00  0.00    -0.004 C 
ATOM     23  C   UNL     1      30.974 -22.988 -15.593  0.00  0.00    -0.000 C 
ATOM     24  C   UNL     1      33.044 -23.535 -14.472  0.00  0.00    -0.000 C 
ATOM     25  C   UNL     1      31.670 -23.294 -14.423  0.00  0.00    -0.000 C 
ENDBRANCH  19  20
ENDBRANCH  18  19
ENDBRANCH  11  18
ENDBRANCH   2  12
BRANCH   2  26
ATOM     26  C   UNL     1      33.865 -17.542 -21.351  0.00  0.00    +0.096 C 
BRANCH  26  27
ATOM     27  C   UNL     1      34.752 -16.522 -20.648  0.00  0.00    +0.054 C 
BRANCH  27  28
ATOM     28  C   UNL     1      34.022 -15.221 -20.335  0.00  0.00    +0.144 C 
BRANCH  28  29
ATOM     29  O   UNL     1      32.760 -15.237 -20.989  0.00  0.00    -0.351 OA
ATOM     30  C   UNL     1      32.385 -13.940 -21.432  0.00  0.00    +0.174 C 
ENDBRANCH  28  29
ENDBRANCH  27  28
ENDBRANCH  26  27
ENDBRANCH   2  26
TORSDOF 9
ENDMDL
MODEL 8
REMARK VINA RESULT:      -9.1      3.275      8.915
REMARK  Name = 23644580
REMARK  9 active torsions:
REMARK  status: ('A' for Active; 'I' for Inactive)
REMARK    1  A    between atoms: N_2  and  C_12
REMARK    2  A    between atoms: N_2  and  C_26
REMARK    3  A    between atoms: C_3  and  C_5
REMARK    4  A    between atoms: N_11  and  C_18
REMARK    5  A    between atoms: C_18  and  C_19
REMARK    6  A    between atoms: C_19  and  C_20
REMARK    7  A    between atoms: C_26  and  C_27
REMARK    8  A    between atoms: C_27  and  C_28
REMARK    9  A    between atoms: C_28  and  O_29
REMARK                            x       y       z     vdW  Elec       q    Type
REMARK                         _______ _______ _______ _____ _____    ______ ____
ROOT
ATOM      1  O   UNL     1      31.892 -14.916 -21.294  0.00  0.00    -0.270 OA
ATOM      2  N   UNL     1      33.279 -14.309 -23.076  0.00  0.00    -0.280 N 
ATOM      3  C   UNL     1      32.452 -14.054 -21.969  0.00  0.00    +0.249 C 
ENDROOT
BRANCH   3   5
ATOM      4 CL   UNL     1      31.588  -8.401 -20.271  0.00  0.00    -0.082 Cl
ATOM      5  C   UNL     1      32.239 -12.659 -21.550  0.00  0.00    +0.054 C 
ATOM      6  C   UNL     1      32.245 -11.654 -22.505  0.00  0.00    +0.005 C 
ATOM      7  C   UNL     1      32.036 -12.375 -20.208  0.00  0.00    +0.005 C 
ATOM      8  C   UNL     1      32.043 -10.332 -22.108  0.00  0.00    +0.012 C 
ATOM      9  C   UNL     1      31.834 -11.053 -19.812  0.00  0.00    +0.012 C 
ATOM     10  C   UNL     1      31.838 -10.031 -20.762  0.00  0.00    +0.058 C 
ENDBRANCH   3   5
BRANCH   2  12
ATOM     11  N   UNL     1      34.321 -17.892 -22.749  0.00  0.00    +0.388 N 
ATOM     12  C   UNL     1      33.517 -15.669 -23.495  0.00  0.00    +0.055 C 
ATOM     13  C   UNL     1      34.056 -16.508 -22.329  0.00  0.00    -0.057 C 
ATOM     14  C   UNL     1      34.475 -15.708 -24.687  0.00  0.00    +0.016 C 
ATOM     15  C   UNL     1      34.806 -17.149 -25.057  0.00  0.00    -0.021 C 
ATOM     16  C   UNL     1      35.300 -17.936 -23.843  0.00  0.00    -0.077 C 
ATOM     17  H   UNL     1      33.446 -18.288 -23.094  0.00  0.00    -0.080 HD
BRANCH  11  18
ATOM     18  C   UNL     1      34.784 -18.690 -21.614  0.00  0.00    -0.073 C 
BRANCH  18  19
ATOM     19  C   UNL     1      33.749 -19.749 -21.232  0.00  0.00    +0.004 C 
BRANCH  19  20
ATOM     20  C   UNL     1      34.274 -20.677 -20.166  0.00  0.00    -0.024 C 
ATOM     21  C   UNL     1      35.637 -20.719 -19.912  0.00  0.00    -0.004 C 
ATOM     22  C   UNL     1      33.387 -21.474 -19.458  0.00  0.00    -0.004 C 
ATOM     23  C   UNL     1      36.124 -21.578 -18.926  0.00  0.00    -0.000 C 
ATOM     24  C   UNL     1      33.874 -22.333 -18.473  0.00  0.00    -0.000 C 
ATOM     25  C   UNL     1      35.243 -22.385 -18.207  0.00  0.00    -0.000 C 
ENDBRANCH  19  20
ENDBRANCH  18  19
ENDBRANCH  11  18
ENDBRANCH   2  12
BRANCH   2  26
ATOM     26  C   UNL     1      33.937 -13.265 -23.868  0.00  0.00    +0.096 C 
BRANCH  26  27
ATOM     27  C   UNL     1      33.343 -13.129 -25.264  0.00  0.00    +0.054 C 
BRANCH  27  28
ATOM     28  C   UNL     1      33.777 -11.848 -25.969  0.00  0.00    +0.144 C 
BRANCH  28  29
ATOM     29  O   UNL     1      34.602 -11.099 -25.086  0.00  0.00    -0.351 OA
ATOM     30  C   UNL     1      35.524 -10.286 -25.798  0.00  0.00    +0.174 C 
ENDBRANCH  28  29
ENDBRANCH  27  28
ENDBRANCH  26  27
ENDBRANCH   2  26
TORSDOF 9
ENDMDL
MODEL 9
REMARK VINA RESULT:      -8.9      2.791      5.465
REMARK  Name = 23644580
REMARK  9 active torsions:
REMARK  status: ('A' for Active; 'I' for Inactive)
REMARK    1  A    between atoms: N_2  and  C_12
REMARK    2  A    between atoms: N_2  and  C_26
REMARK    3  A    between atoms: C_3  and  C_5
REMARK    4  A    between atoms: N_11  and  C_18
REMARK    5  A    between atoms: C_18  and  C_19
REMARK    6  A    between atoms: C_19  and  C_20
REMARK    7  A    between atoms: C_26  and  C_27
REMARK    8  A    between atoms: C_27  and  C_28
REMARK    9  A    between atoms: C_28  and  O_29
REMARK                            x       y       z     vdW  Elec       q    Type
REMARK                         _______ _______ _______ _____ _____    ______ ____
ROOT
ATOM      1  O   UNL     1      33.067 -11.429 -24.003  0.00  0.00    -0.270 OA
ATOM      2  N   UNL     1      32.163 -12.503 -22.133  0.00  0.00    -0.280 N 
ATOM      3  C   UNL     1      32.843 -12.455 -23.362  0.00  0.00    +0.249 C 
ENDROOT
BRANCH   3   5
ATOM      4 CL   UNL     1      34.903 -17.538 -25.707  0.00  0.00    -0.082 Cl
ATOM      5  C   UNL     1      33.351 -13.709 -23.941  0.00  0.00    +0.054 C 
ATOM      6  C   UNL     1      32.754 -14.223 -25.082  0.00  0.00    +0.005 C 
ATOM      7  C   UNL     1      34.418 -14.354 -23.335  0.00  0.00    +0.005 C 
ATOM      8  C   UNL     1      33.235 -15.412 -25.629  0.00  0.00    +0.012 C 
ATOM      9  C   UNL     1      34.899 -15.543 -23.883  0.00  0.00    +0.012 C 
ATOM     10  C   UNL     1      34.308 -16.072 -25.031  0.00  0.00    +0.058 C 
ENDBRANCH   3   5
BRANCH   2  12
ATOM     11  N   UNL     1      32.095  -8.857 -21.280  0.00  0.00    +0.388 N 
ATOM     12  C   UNL     1      31.671 -11.285 -21.537  0.00  0.00    +0.055 C 
ATOM     13  C   UNL     1      32.577 -10.101 -21.898  0.00  0.00    -0.057 C 
ATOM     14  C   UNL     1      31.545 -11.437 -20.020  0.00  0.00    +0.016 C 
ATOM     15  C   UNL     1      31.126 -10.116 -19.386  0.00  0.00    -0.021 C 
ATOM     16  C   UNL     1      32.047  -8.975 -19.816  0.00  0.00    -0.077 C 
ATOM     17  H   UNL     1      31.146  -8.688 -21.613  0.00  0.00    -0.080 HD
BRANCH  11  18
ATOM     18  C   UNL     1      32.940  -7.730 -21.676  0.00  0.00    -0.073 C 
BRANCH  18  19
ATOM     19  C   UNL     1      33.766  -8.074 -22.917  0.00  0.00    +0.004 C 
BRANCH  19  20
ATOM     20  C   UNL     1      33.580  -7.050 -24.006  0.00  0.00    -0.024 C 
ATOM     21  C   UNL     1      34.635  -6.766 -24.860  0.00  0.00    -0.004 C 
ATOM     22  C   UNL     1      32.357  -6.409 -24.138  0.00  0.00    -0.004 C 
ATOM     23  C   UNL     1      34.464  -5.817 -25.869  0.00  0.00    -0.000 C 
ATOM     24  C   UNL     1      32.186  -5.461 -25.146  0.00  0.00    -0.000 C 
ATOM     25  C   UNL     1      33.240  -5.165 -26.012  0.00  0.00    -0.000 C 
ENDBRANCH  19  20
ENDBRANCH  18  19
ENDBRANCH  11  18
ENDBRANCH   2  12
BRANCH   2  26
ATOM     26  C   UNL     1      31.905 -13.738 -21.385  0.00  0.00    +0.096 C 
BRANCH  26  27
ATOM     27  C   UNL     1      33.050 -14.103 -20.449  0.00  0.00    +0.054 C 
BRANCH  27  28
ATOM     28  C   UNL     1      33.292 -15.607 -20.371  0.00  0.00    +0.144 C 
BRANCH  28  29
ATOM     29  O   UNL     1      34.688 -15.838 -20.233  0.00  0.00    -0.351 OA
ATOM     30  C   UNL     1      35.079 -17.056 -20.850  0.00  0.00    +0.174 C 
ENDBRANCH  28  29
ENDBRANCH  27  28
ENDBRANCH  26  27
ENDBRANCH   2  26
TORSDOF 9
ENDMDL
