MODEL 1
REMARK VINA RESULT:      -7.5      0.000      0.000
REMARK  Name = 4977
REMARK  3 active torsions:
REMARK  status: ('A' for Active; 'I' for Inactive)
REMARK    1  A    between atoms: N_3  and  C_14
REMARK    2  A    between atoms: C_14  and  C_15
REMARK    3  A    between atoms: C_15  and  O_17
REMARK                            x       y       z     vdW  Elec       q    Type
REMARK                         _______ _______ _______ _____ _____    ______ ____
ROOT
ATOM      1  O   UNL     1      33.853 -24.321 -12.666  0.00  0.00    -0.272 OA
ATOM      2  O   UNL     1      31.085 -23.461 -16.356  0.00  0.00    -0.252 OA
ATOM      3  N   UNL     1      36.122 -23.601 -14.478  0.00  0.00    -0.237 NA
ATOM      4  N   UNL     1      33.381 -23.195 -16.621  0.00  0.00    -0.228 N 
ATOM      5  N   UNL     1      32.446 -23.897 -14.500  0.00  0.00    -0.211 N 
ATOM      6  N   UNL     1      35.835 -22.998 -16.604  0.00  0.00    -0.240 NA
ATOM      7  C   UNL     1      34.776 -23.642 -14.709  0.00  0.00    +0.192 C 
ATOM      8  C   UNL     1      34.629 -23.270 -16.017  0.00  0.00    +0.136 C 
ATOM      9  C   UNL     1      33.699 -23.988 -13.838  0.00  0.00    +0.254 C 
ATOM     10  C   UNL     1      36.716 -23.207 -15.648  0.00  0.00    +0.203 C 
ATOM     11  C   UNL     1      32.221 -23.511 -15.871  0.00  0.00    +0.318 C 
ATOM     12  C   UNL     1      33.266 -22.794 -18.018  0.00  0.00    +0.123 C 
ATOM     13  C   UNL     1      31.264 -24.227 -13.711  0.00  0.00    +0.124 C 
ENDROOT
BRANCH   3  14
ATOM     14  C   UNL     1      36.812 -23.907 -13.248  0.00  0.00    +0.104 C 
BRANCH  14  15
ATOM     15  C   UNL     1      37.071 -25.405 -13.071  0.00  0.00    +0.127 C 
ATOM     16  C   UNL     1      38.560 -25.684 -12.914  0.00  0.00    +0.033 C 
BRANCH  15  17
ATOM     17  O   UNL     1      36.423 -25.874 -11.891  0.00  0.00    -0.383 OA
ATOM     18  H   UNL     1      37.014 -25.761 -11.130  0.00  0.00    +0.210 HD
ENDBRANCH  15  17
ENDBRANCH  14  15
ENDBRANCH   3  14
TORSDOF 3
ENDMDL
MODEL 2
REMARK VINA RESULT:      -7.4      8.510     10.591
REMARK  Name = 4977
REMARK  3 active torsions:
REMARK  status: ('A' for Active; 'I' for Inactive)
REMARK    1  A    between atoms: N_3  and  C_14
REMARK    2  A    between atoms: C_14  and  C_15
REMARK    3  A    between atoms: C_15  and  O_17
REMARK                            x       y       z     vdW  Elec       q    Type
REMARK                         _______ _______ _______ _____ _____    ______ ____
ROOT
ATOM      1  O   UNL     1      34.891 -16.282 -20.273  0.00  0.00    -0.272 OA
ATOM      2  O   UNL     1      32.784 -13.724 -23.594  0.00  0.00    -0.252 OA
ATOM      3  N   UNL     1      35.577 -18.182 -22.480  0.00  0.00    -0.237 NA
ATOM      4  N   UNL     1      33.815 -15.711 -24.229  0.00  0.00    -0.228 N 
ATOM      5  N   UNL     1      33.828 -14.983 -21.919  0.00  0.00    -0.211 N 
ATOM      6  N   UNL     1      34.982 -17.846 -24.601  0.00  0.00    -0.240 NA
ATOM      7  C   UNL     1      34.890 -17.002 -22.502  0.00  0.00    +0.192 C 
ATOM      8  C   UNL     1      34.536 -16.820 -23.811  0.00  0.00    +0.136 C 
ATOM      9  C   UNL     1      34.566 -16.101 -21.443  0.00  0.00    +0.254 C 
ATOM     10  C   UNL     1      35.606 -18.651 -23.767  0.00  0.00    +0.203 C 
ATOM     11  C   UNL     1      33.426 -14.732 -23.280  0.00  0.00    +0.318 C 
ATOM     12  C   UNL     1      33.458 -15.554 -25.633  0.00  0.00    +0.123 C 
ATOM     13  C   UNL     1      33.438 -13.988 -20.926  0.00  0.00    +0.124 C 
ENDROOT
BRANCH   3  14
ATOM     14  C   UNL     1      36.169 -18.832 -21.336  0.00  0.00    +0.104 C 
BRANCH  14  15
ATOM     15  C   UNL     1      35.447 -20.127 -20.951  0.00  0.00    +0.127 C 
ATOM     16  C   UNL     1      36.184 -20.846 -19.829  0.00  0.00    +0.033 C 
BRANCH  15  17
ATOM     17  O   UNL     1      34.136 -19.830 -20.478  0.00  0.00    -0.383 OA
ATOM     18  H   UNL     1      33.614 -20.647 -20.436  0.00  0.00    +0.210 HD
ENDBRANCH  15  17
ENDBRANCH  14  15
ENDBRANCH   3  14
TORSDOF 3
ENDMDL
MODEL 3
REMARK VINA RESULT:      -7.2      2.415      6.298
REMARK  Name = 4977
REMARK  3 active torsions:
REMARK  status: ('A' for Active; 'I' for Inactive)
REMARK    1  A    between atoms: N_3  and  C_14
REMARK    2  A    between atoms: C_14  and  C_15
REMARK    3  A    between atoms: C_15  and  O_17
REMARK                            x       y       z     vdW  Elec       q    Type
REMARK                         _______ _______ _______ _____ _____    ______ ____
ROOT
ATOM      1  O   UNL     1      32.250 -22.334 -18.307  0.00  0.00    -0.272 OA
ATOM      2  O   UNL     1      36.170 -23.493 -16.005  0.00  0.00    -0.252 OA
ATOM      3  N   UNL     1      30.797 -23.323 -15.886  0.00  0.00    -0.237 NA
ATOM      4  N   UNL     1      34.129 -23.865 -14.952  0.00  0.00    -0.228 N 
ATOM      5  N   UNL     1      34.228 -22.906 -17.174  0.00  0.00    -0.211 N 
ATOM      6  N   UNL     1      31.839 -24.142 -14.094  0.00  0.00    -0.240 NA
ATOM      7  C   UNL     1      32.134 -23.258 -16.158  0.00  0.00    +0.192 C 
ATOM      8  C   UNL     1      32.748 -23.767 -15.046  0.00  0.00    +0.136 C 
ATOM      9  C   UNL     1      32.819 -22.785 -17.317  0.00  0.00    +0.254 C 
ATOM     10  C   UNL     1      30.670 -23.861 -14.631  0.00  0.00    +0.203 C 
ATOM     11  C   UNL     1      34.936 -23.430 -16.033  0.00  0.00    +0.318 C 
ATOM     12  C   UNL     1      34.745 -24.412 -13.750  0.00  0.00    +0.123 C 
ATOM     13  C   UNL     1      35.040 -22.453 -18.298  0.00  0.00    +0.124 C 
ENDROOT
BRANCH   3  14
ATOM     14  C   UNL     1      29.706 -22.909 -16.735  0.00  0.00    +0.104 C 
BRANCH  14  15
ATOM     15  C   UNL     1      28.363 -23.506 -16.307  0.00  0.00    +0.127 C 
ATOM     16  C   UNL     1      27.416 -22.418 -15.820  0.00  0.00    +0.033 C 
BRANCH  15  17
ATOM     17  O   UNL     1      27.740 -24.147 -17.418  0.00  0.00    -0.383 OA
ATOM     18  H   UNL     1      27.897 -23.627 -18.221  0.00  0.00    +0.210 HD
ENDBRANCH  15  17
ENDBRANCH  14  15
ENDBRANCH   3  14
TORSDOF 3
ENDMDL
MODEL 4
REMARK VINA RESULT:      -7.2      1.623      2.904
REMARK  Name = 4977
REMARK  3 active torsions:
REMARK  status: ('A' for Active; 'I' for Inactive)
REMARK    1  A    between atoms: N_3  and  C_14
REMARK    2  A    between atoms: C_14  and  C_15
REMARK    3  A    between atoms: C_15  and  O_17
REMARK                            x       y       z     vdW  Elec       q    Type
REMARK                         _______ _______ _______ _____ _____    ______ ____
ROOT
ATOM      1  O   UNL     1      35.926 -23.154 -16.585  0.00  0.00    -0.272 OA
ATOM      2  O   UNL     1      31.240 -23.334 -16.441  0.00  0.00    -0.252 OA
ATOM      3  N   UNL     1      35.826 -23.919 -13.695  0.00  0.00    -0.237 NA
ATOM      4  N   UNL     1      32.417 -23.811 -14.492  0.00  0.00    -0.228 N 
ATOM      5  N   UNL     1      33.578 -23.237 -16.538  0.00  0.00    -0.211 N 
ATOM      6  N   UNL     1      33.919 -24.266 -12.595  0.00  0.00    -0.240 NA
ATOM      7  C   UNL     1      34.822 -23.713 -14.597  0.00  0.00    +0.192 C 
ATOM      8  C   UNL     1      33.666 -23.930 -13.898  0.00  0.00    +0.136 C 
ATOM      9  C   UNL     1      34.878 -23.347 -15.976  0.00  0.00    +0.254 C 
ATOM     10  C   UNL     1      35.233 -24.251 -12.505  0.00  0.00    +0.203 C 
ATOM     11  C   UNL     1      32.325 -23.453 -15.860  0.00  0.00    +0.318 C 
ATOM     12  C   UNL     1      31.209 -24.052 -13.713  0.00  0.00    +0.123 C 
ATOM     13  C   UNL     1      33.505 -22.867 -17.948  0.00  0.00    +0.124 C 
ENDROOT
BRANCH   3  14
ATOM     14  C   UNL     1      37.247 -23.816 -13.924  0.00  0.00    +0.104 C 
BRANCH  14  15
ATOM     15  C   UNL     1      38.073 -24.540 -12.856  0.00  0.00    +0.127 C 
ATOM     16  C   UNL     1      39.146 -25.410 -13.497  0.00  0.00    +0.033 C 
BRANCH  15  17
ATOM     17  O   UNL     1      38.735 -23.588 -12.026  0.00  0.00    -0.383 OA
ATOM     18  H   UNL     1      38.182 -22.797 -11.936  0.00  0.00    +0.210 HD
ENDBRANCH  15  17
ENDBRANCH  14  15
ENDBRANCH   3  14
TORSDOF 3
ENDMDL
MODEL 5
REMARK VINA RESULT:      -7.2      1.613      2.005
REMARK  Name = 4977
REMARK  3 active torsions:
REMARK  status: ('A' for Active; 'I' for Inactive)
REMARK    1  A    between atoms: N_3  and  C_14
REMARK    2  A    between atoms: C_14  and  C_15
REMARK    3  A    between atoms: C_15  and  O_17
REMARK                            x       y       z     vdW  Elec       q    Type
REMARK                         _______ _______ _______ _____ _____    ______ ____
ROOT
ATOM      1  O   UNL     1      33.791 -23.776 -14.504  0.00  0.00    -0.272 OA
ATOM      2  O   UNL     1      32.706 -22.472 -18.879  0.00  0.00    -0.252 OA
ATOM      3  N   UNL     1      36.583 -22.946 -15.183  0.00  0.00    -0.237 NA
ATOM      4  N   UNL     1      34.914 -22.248 -18.183  0.00  0.00    -0.228 N 
ATOM      5  N   UNL     1      33.222 -23.130 -16.691  0.00  0.00    -0.211 N 
ATOM      6  N   UNL     1      37.157 -22.126 -17.175  0.00  0.00    -0.240 NA
ATOM      7  C   UNL     1      35.441 -22.925 -15.931  0.00  0.00    +0.192 C 
ATOM      8  C   UNL     1      35.820 -22.420 -17.145  0.00  0.00    +0.136 C 
ATOM      9  C   UNL     1      34.111 -23.323 -15.600  0.00  0.00    +0.254 C 
ATOM     10  C   UNL     1      37.589 -22.455 -15.975  0.00  0.00    +0.203 C 
ATOM     11  C   UNL     1      33.556 -22.604 -17.991  0.00  0.00    +0.318 C 
ATOM     12  C   UNL     1      35.358 -21.707 -19.461  0.00  0.00    +0.123 C 
ATOM     13  C   UNL     1      31.829 -23.503 -16.473  0.00  0.00    +0.124 C 
ENDROOT
BRANCH   3  14
ATOM     14  C   UNL     1      36.732 -23.392 -13.819  0.00  0.00    +0.104 C 
BRANCH  14  15
ATOM     15  C   UNL     1      37.089 -24.878 -13.718  0.00  0.00    +0.127 C 
ATOM     16  C   UNL     1      38.048 -25.128 -12.562  0.00  0.00    +0.033 C 
BRANCH  15  17
ATOM     17  O   UNL     1      35.913 -25.645 -13.469  0.00  0.00    -0.383 OA
ATOM     18  H   UNL     1      35.953 -26.471 -13.975  0.00  0.00    +0.210 HD
ENDBRANCH  15  17
ENDBRANCH  14  15
ENDBRANCH   3  14
TORSDOF 3
ENDMDL
MODEL 6
REMARK VINA RESULT:      -7.1     10.607     13.689
REMARK  Name = 4977
REMARK  3 active torsions:
REMARK  status: ('A' for Active; 'I' for Inactive)
REMARK    1  A    between atoms: N_3  and  C_14
REMARK    2  A    between atoms: C_14  and  C_15
REMARK    3  A    between atoms: C_15  and  O_17
REMARK                            x       y       z     vdW  Elec       q    Type
REMARK                         _______ _______ _______ _____ _____    ______ ____
ROOT
ATOM      1  O   UNL     1      34.303 -17.286 -25.577  0.00  0.00    -0.272 OA
ATOM      2  O   UNL     1      35.424 -17.761 -21.046  0.00  0.00    -0.252 OA
ATOM      3  N   UNL     1      33.383 -14.538 -24.835  0.00  0.00    -0.237 NA
ATOM      4  N   UNL     1      34.493 -15.746 -21.740  0.00  0.00    -0.228 N 
ATOM      5  N   UNL     1      34.873 -17.548 -23.312  0.00  0.00    -0.211 N 
ATOM      6  N   UNL     1      33.498 -13.738 -22.758  0.00  0.00    -0.240 NA
ATOM      7  C   UNL     1      33.929 -15.531 -24.072  0.00  0.00    +0.192 C 
ATOM      8  C   UNL     1      33.987 -15.015 -22.806  0.00  0.00    +0.136 C 
ATOM      9  C   UNL     1      34.366 -16.840 -24.434  0.00  0.00    +0.254 C 
ATOM     10  C   UNL     1      33.141 -13.479 -23.999  0.00  0.00    +0.203 C 
ATOM     11  C   UNL     1      34.963 -17.065 -21.957  0.00  0.00    +0.318 C 
ATOM     12  C   UNL     1      34.538 -15.160 -20.406  0.00  0.00    +0.123 C 
ATOM     13  C   UNL     1      35.352 -18.905 -23.557  0.00  0.00    +0.124 C 
ENDROOT
BRANCH   3  14
ATOM     14  C   UNL     1      33.103 -14.570 -26.250  0.00  0.00    +0.104 C 
BRANCH  14  15
ATOM     15  C   UNL     1      33.063 -13.174 -26.878  0.00  0.00    +0.127 C 
ATOM     16  C   UNL     1      34.412 -12.812 -27.484  0.00  0.00    +0.033 C 
BRANCH  15  17
ATOM     17  O   UNL     1      32.101 -13.142 -27.930  0.00  0.00    -0.383 OA
ATOM     18  H   UNL     1      31.860 -12.222 -28.120  0.00  0.00    +0.210 HD
ENDBRANCH  15  17
ENDBRANCH  14  15
ENDBRANCH   3  14
TORSDOF 3
ENDMDL
MODEL 7
REMARK VINA RESULT:      -7.1      2.011      3.177
REMARK  Name = 4977
REMARK  3 active torsions:
REMARK  status: ('A' for Active; 'I' for Inactive)
REMARK    1  A    between atoms: N_3  and  C_14
REMARK    2  A    between atoms: C_14  and  C_15
REMARK    3  A    between atoms: C_15  and  O_17
REMARK                            x       y       z     vdW  Elec       q    Type
REMARK                         _______ _______ _______ _____ _____    ______ ____
ROOT
ATOM      1  O   UNL     1      37.043 -22.382 -16.643  0.00  0.00    -0.272 OA
ATOM      2  O   UNL     1      32.754 -22.630 -18.530  0.00  0.00    -0.252 OA
ATOM      3  N   UNL     1      35.774 -23.464 -14.159  0.00  0.00    -0.237 NA
ATOM      4  N   UNL     1      33.021 -23.307 -16.320  0.00  0.00    -0.228 N 
ATOM      5  N   UNL     1      34.904 -22.497 -17.610  0.00  0.00    -0.211 N 
ATOM      6  N   UNL     1      33.604 -23.952 -14.017  0.00  0.00    -0.240 NA
ATOM      7  C   UNL     1      35.235 -23.170 -15.380  0.00  0.00    +0.192 C 
ATOM      8  C   UNL     1      33.907 -23.477 -15.265  0.00  0.00    +0.136 C 
ATOM      9  C   UNL     1      35.848 -22.653 -16.561  0.00  0.00    +0.254 C 
ATOM     10  C   UNL     1      34.753 -23.932 -13.374  0.00  0.00    +0.203 C 
ATOM     11  C   UNL     1      33.496 -22.801 -17.556  0.00  0.00    +0.318 C 
ATOM     12  C   UNL     1      31.613 -23.647 -16.158  0.00  0.00    +0.123 C 
ATOM     13  C   UNL     1      35.412 -21.974 -18.874  0.00  0.00    +0.124 C 
ENDROOT
BRANCH   3  14
ATOM     14  C   UNL     1      37.150 -23.320 -13.749  0.00  0.00    +0.104 C 
BRANCH  14  15
ATOM     15  C   UNL     1      37.402 -23.837 -12.330  0.00  0.00    +0.127 C 
ATOM     16  C   UNL     1      38.051 -25.214 -12.361  0.00  0.00    +0.033 C 
BRANCH  15  17
ATOM     17  O   UNL     1      38.293 -22.961 -11.644  0.00  0.00    -0.383 OA
ATOM     18  H   UNL     1      38.207 -22.065 -12.005  0.00  0.00    +0.210 HD
ENDBRANCH  15  17
ENDBRANCH  14  15
ENDBRANCH   3  14
TORSDOF 3
ENDMDL
MODEL 8
REMARK VINA RESULT:      -6.9      9.179     12.124
REMARK  Name = 4977
REMARK  3 active torsions:
REMARK  status: ('A' for Active; 'I' for Inactive)
REMARK    1  A    between atoms: N_3  and  C_14
REMARK    2  A    between atoms: C_14  and  C_15
REMARK    3  A    between atoms: C_15  and  O_17
REMARK                            x       y       z     vdW  Elec       q    Type
REMARK                         _______ _______ _______ _____ _____    ______ ____
ROOT
ATOM      1  O   UNL     1      33.792 -15.269 -24.556  0.00  0.00    -0.272 OA
ATOM      2  O   UNL     1      35.265 -19.656 -23.785  0.00  0.00    -0.252 OA
ATOM      3  N   UNL     1      34.278 -14.826 -21.638  0.00  0.00    -0.237 NA
ATOM      4  N   UNL     1      35.207 -18.186 -21.983  0.00  0.00    -0.228 N 
ATOM      5  N   UNL     1      34.526 -17.472 -24.195  0.00  0.00    -0.211 N 
ATOM      6  N   UNL     1      35.041 -16.418 -20.278  0.00  0.00    -0.240 NA
ATOM      7  C   UNL     1      34.448 -15.940 -22.410  0.00  0.00    +0.192 C 
ATOM      8  C   UNL     1      34.914 -16.899 -21.553  0.00  0.00    +0.136 C 
ATOM      9  C   UNL     1      34.213 -16.143 -23.803  0.00  0.00    +0.254 C 
ATOM     10  C   UNL     1      34.649 -15.164 -20.362  0.00  0.00    +0.203 C 
ATOM     11  C   UNL     1      35.020 -18.527 -23.346  0.00  0.00    +0.318 C 
ATOM     12  C   UNL     1      35.703 -19.179 -21.039  0.00  0.00    +0.123 C 
ATOM     13  C   UNL     1      34.326 -17.803 -25.602  0.00  0.00    +0.124 C 
ENDROOT
BRANCH   3  14
ATOM     14  C   UNL     1      33.803 -13.530 -22.057  0.00  0.00    +0.104 C 
BRANCH  14  15
ATOM     15  C   UNL     1      32.275 -13.436 -22.073  0.00  0.00    +0.127 C 
ATOM     16  C   UNL     1      31.798 -12.206 -21.313  0.00  0.00    +0.033 C 
BRANCH  15  17
ATOM     17  O   UNL     1      31.809 -13.314 -23.416  0.00  0.00    -0.383 OA
ATOM     18  H   UNL     1      31.021 -12.749 -23.435  0.00  0.00    +0.210 HD
ENDBRANCH  15  17
ENDBRANCH  14  15
ENDBRANCH   3  14
TORSDOF 3
ENDMDL
MODEL 9
REMARK VINA RESULT:      -6.8      2.011      5.687
REMARK  Name = 4977
REMARK  3 active torsions:
REMARK  status: ('A' for Active; 'I' for Inactive)
REMARK    1  A    between atoms: N_3  and  C_14
REMARK    2  A    between atoms: C_14  and  C_15
REMARK    3  A    between atoms: C_15  and  O_17
REMARK                            x       y       z     vdW  Elec       q    Type
REMARK                         _______ _______ _______ _____ _____    ______ ____
ROOT
ATOM      1  O   UNL     1      34.574 -22.833 -17.118  0.00  0.00    -0.272 OA
ATOM      2  O   UNL     1      37.914 -23.169 -13.840  0.00  0.00    -0.252 OA
ATOM      3  N   UNL     1      32.707 -23.831 -15.004  0.00  0.00    -0.237 NA
ATOM      4  N   UNL     1      35.743 -23.766 -13.258  0.00  0.00    -0.228 N 
ATOM      5  N   UNL     1      36.265 -22.993 -15.493  0.00  0.00    -0.211 N 
ATOM      6  N   UNL     1      33.367 -24.325 -12.934  0.00  0.00    -0.240 NA
ATOM      7  C   UNL     1      34.049 -23.582 -14.962  0.00  0.00    +0.192 C 
ATOM      8  C   UNL     1      34.428 -23.894 -13.684  0.00  0.00    +0.136 C 
ATOM      9  C   UNL     1      34.933 -23.106 -15.976  0.00  0.00    +0.254 C 
ATOM     10  C   UNL     1      32.343 -24.276 -13.760  0.00  0.00    +0.203 C 
ATOM     11  C   UNL     1      36.729 -23.302 -14.164  0.00  0.00    +0.318 C 
ATOM     12  C   UNL     1      36.106 -24.108 -11.889  0.00  0.00    +0.123 C 
ATOM     13  C   UNL     1      37.265 -22.514 -16.442  0.00  0.00    +0.124 C 
ENDROOT
BRANCH   3  14
ATOM     14  C   UNL     1      31.817 -23.665 -16.129  0.00  0.00    +0.104 C 
BRANCH  14  15
ATOM     15  C   UNL     1      30.341 -23.770 -15.736  0.00  0.00    +0.127 C 
ATOM     16  C   UNL     1      29.501 -22.761 -16.509  0.00  0.00    +0.033 C 
BRANCH  15  17
ATOM     17  O   UNL     1      29.845 -25.069 -16.053  0.00  0.00    -0.383 OA
ATOM     18  H   UNL     1      29.396 -25.043 -16.913  0.00  0.00    +0.210 HD
ENDBRANCH  15  17
ENDBRANCH  14  15
ENDBRANCH   3  14
TORSDOF 3
ENDMDL
