MODEL 1
REMARK VINA RESULT:      -8.4      0.000      0.000
REMARK  Name = 24768549
REMARK  6 active torsions:
REMARK  status: ('A' for Active; 'I' for Inactive)
REMARK    1  A    between atoms: C_2  and  C_11
REMARK    2  A    between atoms: C_11  and  C_13
REMARK    3  A    between atoms: C_11  and  C_16
REMARK    4  A    between atoms: C_13  and  O_14
REMARK    5  A    between atoms: C_16  and  C_17
REMARK    6  A    between atoms: C_17  and  C_18
REMARK                            x       y       z     vdW  Elec       q    Type
REMARK                         _______ _______ _______ _____ _____    ______ ____
ROOT
ATOM      1  N   UNL     1      36.846 -20.202 -20.160  0.00  0.00    -0.312 N 
ATOM      2  C   UNL     1      35.729 -18.726 -21.386  0.00  0.00    +0.004 C 
ATOM      3  C   UNL     1      34.790 -19.632 -20.816  0.00  0.00    +0.011 C 
ATOM      4  C   UNL     1      35.517 -20.548 -20.052  0.00  0.00    +0.048 C 
ATOM      5  C   UNL     1      36.983 -19.102 -20.964  0.00  0.00    +0.058 C 
ATOM      6  C   UNL     1      33.389 -19.761 -20.878  0.00  0.00    +0.001 C 
ATOM      7  C   UNL     1      34.909 -21.590 -19.343  0.00  0.00    +0.015 C 
ATOM      8  C   UNL     1      32.768 -20.800 -20.175  0.00  0.00    +0.000 C 
ATOM      9  C   UNL     1      33.518 -21.699 -19.420  0.00  0.00    +0.001 C 
ATOM     10  H   UNL     1      37.589 -20.677 -19.722  0.00  0.00    +0.152 HD
ENDROOT
BRANCH   2  11
ATOM     11  C   UNL     1      35.413 -17.548 -22.299  0.00  0.00    +0.122 C 
BRANCH  11  13
ATOM     12  O   UNL     1      34.992 -19.199 -24.047  0.00  0.00    -0.250 OA
ATOM     13  C   UNL     1      35.204 -18.035 -23.728  0.00  0.00    +0.317 C 
BRANCH  13  14
ATOM     14  O   UNL     1      35.302 -17.033 -24.639  0.00  0.00    -0.480 OA
ATOM     15  H   UNL     1      35.305 -17.230 -25.554  0.00  0.00    +0.295 HD
ENDBRANCH  13  14
ENDBRANCH  11  13
BRANCH  11  16
ATOM     16  C   UNL     1      34.190 -16.732 -21.831  0.00  0.00    +0.016 C 
BRANCH  16  17
ATOM     17  C   UNL     1      34.537 -15.717 -20.735  0.00  0.00    +0.001 C 
BRANCH  17  18
ATOM     18  C   UNL     1      33.463 -14.643 -20.543  0.00  0.00    +0.000 C 
ATOM     19  C   UNL     1      32.490 -14.543 -21.708  0.00  0.00    +0.000 C 
ENDBRANCH  17  18
ENDBRANCH  16  17
ENDBRANCH  11  16
ENDBRANCH   2  11
TORSDOF 6
ENDMDL
MODEL 2
REMARK VINA RESULT:      -8.4      1.962      2.631
REMARK  Name = 24768549
REMARK  6 active torsions:
REMARK  status: ('A' for Active; 'I' for Inactive)
REMARK    1  A    between atoms: C_2  and  C_11
REMARK    2  A    between atoms: C_11  and  C_13
REMARK    3  A    between atoms: C_11  and  C_16
REMARK    4  A    between atoms: C_13  and  O_14
REMARK    5  A    between atoms: C_16  and  C_17
REMARK    6  A    between atoms: C_17  and  C_18
REMARK                            x       y       z     vdW  Elec       q    Type
REMARK                         _______ _______ _______ _____ _____    ______ ____
ROOT
ATOM      1  N   UNL     1      36.794 -19.851 -20.592  0.00  0.00    -0.312 N 
ATOM      2  C   UNL     1      35.156 -18.564 -21.359  0.00  0.00    +0.004 C 
ATOM      3  C   UNL     1      34.571 -19.674 -20.686  0.00  0.00    +0.011 C 
ATOM      4  C   UNL     1      35.621 -20.466 -20.215  0.00  0.00    +0.048 C 
ATOM      5  C   UNL     1      36.523 -18.700 -21.283  0.00  0.00    +0.058 C 
ATOM      6  C   UNL     1      33.247 -20.081 -20.432  0.00  0.00    +0.001 C 
ATOM      7  C   UNL     1      35.410 -21.650 -19.499  0.00  0.00    +0.015 C 
ATOM      8  C   UNL     1      33.022 -21.265 -19.719  0.00  0.00    +0.000 C 
ATOM      9  C   UNL     1      34.089 -22.035 -19.260  0.00  0.00    +0.001 C 
ATOM     10  H   UNL     1      37.697 -20.189 -20.393  0.00  0.00    +0.152 HD
ENDROOT
BRANCH   2  11
ATOM     11  C   UNL     1      34.412 -17.423 -22.042  0.00  0.00    +0.122 C 
BRANCH  11  13
ATOM     12  O   UNL     1      34.939 -15.775 -20.321  0.00  0.00    -0.250 OA
ATOM     13  C   UNL     1      34.106 -16.320 -21.037  0.00  0.00    +0.317 C 
BRANCH  13  14
ATOM     14  O   UNL     1      32.786 -16.007 -20.992  0.00  0.00    -0.480 OA
ATOM     15  H   UNL     1      32.508 -15.127 -21.144  0.00  0.00    +0.295 HD
ENDBRANCH  13  14
ENDBRANCH  11  13
BRANCH  11  16
ATOM     16  C   UNL     1      35.175 -16.844 -23.252  0.00  0.00    +0.016 C 
BRANCH  16  17
ATOM     17  C   UNL     1      34.597 -17.306 -24.596  0.00  0.00    +0.001 C 
BRANCH  17  18
ATOM     18  C   UNL     1      33.971 -16.169 -25.407  0.00  0.00    +0.000 C 
ATOM     19  C   UNL     1      33.535 -14.985 -24.557  0.00  0.00    +0.000 C 
ENDBRANCH  17  18
ENDBRANCH  16  17
ENDBRANCH  11  16
ENDBRANCH   2  11
TORSDOF 6
ENDMDL
MODEL 3
REMARK VINA RESULT:      -8.3      2.204      3.490
REMARK  Name = 24768549
REMARK  6 active torsions:
REMARK  status: ('A' for Active; 'I' for Inactive)
REMARK    1  A    between atoms: C_2  and  C_11
REMARK    2  A    between atoms: C_11  and  C_13
REMARK    3  A    between atoms: C_11  and  C_16
REMARK    4  A    between atoms: C_13  and  O_14
REMARK    5  A    between atoms: C_16  and  C_17
REMARK    6  A    between atoms: C_17  and  C_18
REMARK                            x       y       z     vdW  Elec       q    Type
REMARK                         _______ _______ _______ _____ _____    ______ ____
ROOT
ATOM      1  N   UNL     1      32.614 -20.903 -20.014  0.00  0.00    -0.312 N 
ATOM      2  C   UNL     1      33.841 -19.423 -21.124  0.00  0.00    +0.004 C 
ATOM      3  C   UNL     1      34.716 -20.228 -20.341  0.00  0.00    +0.011 C 
ATOM      4  C   UNL     1      33.920 -21.148 -19.654  0.00  0.00    +0.048 C 
ATOM      5  C   UNL     1      32.556 -19.863 -20.902  0.00  0.00    +0.058 C 
ATOM      6  C   UNL     1      36.111 -20.262 -20.150  0.00  0.00    +0.001 C 
ATOM      7  C   UNL     1      34.453 -22.104 -18.782  0.00  0.00    +0.015 C 
ATOM      8  C   UNL     1      36.658 -21.212 -19.280  0.00  0.00    +0.000 C 
ATOM      9  C   UNL     1      35.840 -22.118 -18.608  0.00  0.00    +0.001 C 
ATOM     10  H   UNL     1      31.834 -21.403 -19.681  0.00  0.00    +0.152 HD
ENDROOT
BRANCH   2  11
ATOM     11  C   UNL     1      34.244 -18.279 -22.046  0.00  0.00    +0.122 C 
BRANCH  11  13
ATOM     12  O   UNL     1      35.367 -16.835 -20.431  0.00  0.00    -0.250 OA
ATOM     13  C   UNL     1      34.460 -17.006 -21.237  0.00  0.00    +0.317 C 
BRANCH  13  14
ATOM     14  O   UNL     1      33.514 -16.063 -21.485  0.00  0.00    -0.480 OA
ATOM     15  H   UNL     1      33.759 -15.164 -21.566  0.00  0.00    +0.295 HD
ENDBRANCH  13  14
ENDBRANCH  11  13
BRANCH  11  16
ATOM     16  C   UNL     1      35.498 -18.594 -22.887  0.00  0.00    +0.016 C 
BRANCH  16  17
ATOM     17  C   UNL     1      35.158 -19.072 -24.305  0.00  0.00    +0.001 C 
BRANCH  17  18
ATOM     18  C   UNL     1      34.183 -18.146 -25.037  0.00  0.00    +0.000 C 
ATOM     19  C   UNL     1      34.753 -16.764 -25.318  0.00  0.00    +0.000 C 
ENDBRANCH  17  18
ENDBRANCH  16  17
ENDBRANCH  11  16
ENDBRANCH   2  11
TORSDOF 6
ENDMDL
MODEL 4
REMARK VINA RESULT:      -8.2      1.388      2.097
REMARK  Name = 24768549
REMARK  6 active torsions:
REMARK  status: ('A' for Active; 'I' for Inactive)
REMARK    1  A    between atoms: C_2  and  C_11
REMARK    2  A    between atoms: C_11  and  C_13
REMARK    3  A    between atoms: C_11  and  C_16
REMARK    4  A    between atoms: C_13  and  O_14
REMARK    5  A    between atoms: C_16  and  C_17
REMARK    6  A    between atoms: C_17  and  C_18
REMARK                            x       y       z     vdW  Elec       q    Type
REMARK                         _______ _______ _______ _____ _____    ______ ____
ROOT
ATOM      1  N   UNL     1      32.680 -20.402 -20.546  0.00  0.00    -0.312 N 
ATOM      2  C   UNL     1      34.350 -19.316 -21.527  0.00  0.00    +0.004 C 
ATOM      3  C   UNL     1      34.904 -20.217 -20.574  0.00  0.00    +0.011 C 
ATOM      4  C   UNL     1      33.835 -20.885 -19.972  0.00  0.00    +0.048 C 
ATOM      5  C   UNL     1      32.981 -19.454 -21.487  0.00  0.00    +0.058 C 
ATOM      6  C   UNL     1      36.216 -20.528 -20.165  0.00  0.00    +0.001 C 
ATOM      7  C   UNL     1      34.014 -21.854 -18.978  0.00  0.00    +0.015 C 
ATOM      8  C   UNL     1      36.409 -21.494 -19.171  0.00  0.00    +0.000 C 
ATOM      9  C   UNL     1      35.324 -22.145 -18.588  0.00  0.00    +0.001 C 
ATOM     10  H   UNL     1      31.770 -20.696 -20.313  0.00  0.00    +0.152 HD
ENDROOT
BRANCH   2  11
ATOM     11  C   UNL     1      35.122 -18.367 -22.434  0.00  0.00    +0.122 C 
BRANCH  11  13
ATOM     12  O   UNL     1      34.962 -19.929 -24.303  0.00  0.00    -0.250 OA
ATOM     13  C   UNL     1      34.944 -18.774 -23.891  0.00  0.00    +0.317 C 
BRANCH  13  14
ATOM     14  O   UNL     1      34.781 -17.707 -24.715  0.00  0.00    -0.480 OA
ATOM     15  H   UNL     1      35.489 -17.421 -25.257  0.00  0.00    +0.295 HD
ENDBRANCH  13  14
ENDBRANCH  11  13
BRANCH  11  16
ATOM     16  C   UNL     1      34.723 -16.889 -22.242  0.00  0.00    +0.016 C 
BRANCH  16  17
ATOM     17  C   UNL     1      34.873 -16.416 -20.790  0.00  0.00    +0.001 C 
BRANCH  17  18
ATOM     18  C   UNL     1      34.160 -15.091 -20.510  0.00  0.00    +0.000 C 
ATOM     19  C   UNL     1      32.645 -15.185 -20.599  0.00  0.00    +0.000 C 
ENDBRANCH  17  18
ENDBRANCH  16  17
ENDBRANCH  11  16
ENDBRANCH   2  11
TORSDOF 6
ENDMDL
MODEL 5
REMARK VINA RESULT:      -8.2      2.423      5.573
REMARK  Name = 24768549
REMARK  6 active torsions:
REMARK  status: ('A' for Active; 'I' for Inactive)
REMARK    1  A    between atoms: C_2  and  C_11
REMARK    2  A    between atoms: C_11  and  C_13
REMARK    3  A    between atoms: C_11  and  C_16
REMARK    4  A    between atoms: C_13  and  O_14
REMARK    5  A    between atoms: C_16  and  C_17
REMARK    6  A    between atoms: C_17  and  C_18
REMARK                            x       y       z     vdW  Elec       q    Type
REMARK                         _______ _______ _______ _____ _____    ______ ____
ROOT
ATOM      1  N   UNL     1      34.936 -18.332 -23.833  0.00  0.00    -0.312 N 
ATOM      2  C   UNL     1      34.696 -18.992 -21.727  0.00  0.00    +0.004 C 
ATOM      3  C   UNL     1      34.630 -17.571 -21.757  0.00  0.00    +0.011 C 
ATOM      4  C   UNL     1      34.783 -17.182 -23.090  0.00  0.00    +0.048 C 
ATOM      5  C   UNL     1      34.884 -19.430 -23.017  0.00  0.00    +0.058 C 
ATOM      6  C   UNL     1      34.453 -16.575 -20.776  0.00  0.00    +0.001 C 
ATOM      7  C   UNL     1      34.769 -15.841 -23.492  0.00  0.00    +0.015 C 
ATOM      8  C   UNL     1      34.438 -15.230 -21.164  0.00  0.00    +0.000 C 
ATOM      9  C   UNL     1      34.593 -14.871 -22.502  0.00  0.00    +0.001 C 
ATOM     10  H   UNL     1      35.064 -18.360 -24.809  0.00  0.00    +0.152 HD
ENDROOT
BRANCH   2  11
ATOM     11  C   UNL     1      34.580 -19.879 -20.493  0.00  0.00    +0.122 C 
BRANCH  11  13
ATOM     12  O   UNL     1      32.148 -19.684 -20.455  0.00  0.00    -0.250 OA
ATOM     13  C   UNL     1      33.150 -20.381 -20.342  0.00  0.00    +0.317 C 
BRANCH  13  14
ATOM     14  O   UNL     1      33.091 -21.704 -20.039  0.00  0.00    -0.480 OA
ATOM     15  H   UNL     1      32.357 -22.215 -20.314  0.00  0.00    +0.295 HD
ENDBRANCH  13  14
ENDBRANCH  11  13
BRANCH  11  16
ATOM     16  C   UNL     1      35.563 -21.069 -20.511  0.00  0.00    +0.016 C 
BRANCH  16  17
ATOM     17  C   UNL     1      36.549 -21.043 -19.337  0.00  0.00    +0.001 C 
BRANCH  17  18
ATOM     18  C   UNL     1      36.076 -21.860 -18.132  0.00  0.00    +0.000 C 
ATOM     19  C   UNL     1      37.037 -21.819 -16.954  0.00  0.00    +0.000 C 
ENDBRANCH  17  18
ENDBRANCH  16  17
ENDBRANCH  11  16
ENDBRANCH   2  11
TORSDOF 6
ENDMDL
MODEL 6
REMARK VINA RESULT:      -8.0      9.346     11.048
REMARK  Name = 24768549
REMARK  6 active torsions:
REMARK  status: ('A' for Active; 'I' for Inactive)
REMARK    1  A    between atoms: C_2  and  C_11
REMARK    2  A    between atoms: C_11  and  C_13
REMARK    3  A    between atoms: C_11  and  C_16
REMARK    4  A    between atoms: C_13  and  O_14
REMARK    5  A    between atoms: C_16  and  C_17
REMARK    6  A    between atoms: C_17  and  C_18
REMARK                            x       y       z     vdW  Elec       q    Type
REMARK                         _______ _______ _______ _____ _____    ______ ____
ROOT
ATOM      1  N   UNL     1      32.567  -7.932 -19.555  0.00  0.00    -0.312 N 
ATOM      2  C   UNL     1      32.151  -7.703 -21.723  0.00  0.00    +0.004 C 
ATOM      3  C   UNL     1      31.833  -9.039 -21.349  0.00  0.00    +0.011 C 
ATOM      4  C   UNL     1      32.103  -9.156 -19.983  0.00  0.00    +0.048 C 
ATOM      5  C   UNL     1      32.598  -7.048 -20.599  0.00  0.00    +0.058 C 
ATOM      6  C   UNL     1      31.341 -10.162 -22.042  0.00  0.00    +0.001 C 
ATOM      7  C   UNL     1      31.904 -10.346 -19.274  0.00  0.00    +0.015 C 
ATOM      8  C   UNL     1      31.138 -11.359 -21.345  0.00  0.00    +0.000 C 
ATOM      9  C   UNL     1      31.416 -11.447 -19.982  0.00  0.00    +0.001 C 
ATOM     10  H   UNL     1      32.836  -7.723 -18.631  0.00  0.00    +0.152 HD
ENDROOT
BRANCH   2  11
ATOM     11  C   UNL     1      32.022  -7.097 -23.115  0.00  0.00    +0.122 C 
BRANCH  11  13
ATOM     12  O   UNL     1      30.210  -5.617 -22.420  0.00  0.00    -0.250 OA
ATOM     13  C   UNL     1      31.251  -5.785 -23.045  0.00  0.00    +0.317 C 
BRANCH  13  14
ATOM     14  O   UNL     1      31.831  -4.800 -23.779  0.00  0.00    -0.480 OA
ATOM     15  H   UNL     1      31.317  -4.080 -24.085  0.00  0.00    +0.295 HD
ENDBRANCH  13  14
ENDBRANCH  11  13
BRANCH  11  16
ATOM     16  C   UNL     1      33.385  -6.877 -23.807  0.00  0.00    +0.016 C 
BRANCH  16  17
ATOM     17  C   UNL     1      34.476  -7.820 -23.282  0.00  0.00    +0.001 C 
BRANCH  17  18
ATOM     18  C   UNL     1      34.915  -8.865 -24.310  0.00  0.00    +0.000 C 
ATOM     19  C   UNL     1      34.262 -10.225 -24.112  0.00  0.00    +0.000 C 
ENDBRANCH  17  18
ENDBRANCH  16  17
ENDBRANCH  11  16
ENDBRANCH   2  11
TORSDOF 6
ENDMDL
MODEL 7
REMARK VINA RESULT:      -7.7      4.394      6.086
REMARK  Name = 24768549
REMARK  6 active torsions:
REMARK  status: ('A' for Active; 'I' for Inactive)
REMARK    1  A    between atoms: C_2  and  C_11
REMARK    2  A    between atoms: C_11  and  C_13
REMARK    3  A    between atoms: C_11  and  C_16
REMARK    4  A    between atoms: C_13  and  O_14
REMARK    5  A    between atoms: C_16  and  C_17
REMARK    6  A    between atoms: C_17  and  C_18
REMARK                            x       y       z     vdW  Elec       q    Type
REMARK                         _______ _______ _______ _____ _____    ______ ____
ROOT
ATOM      1  N   UNL     1      33.328 -15.306 -25.965  0.00  0.00    -0.312 N 
ATOM      2  C   UNL     1      33.467 -14.082 -24.118  0.00  0.00    +0.004 C 
ATOM      3  C   UNL     1      34.109 -15.329 -23.875  0.00  0.00    +0.011 C 
ATOM      4  C   UNL     1      34.008 -16.078 -25.049  0.00  0.00    +0.048 C 
ATOM      5  C   UNL     1      32.998 -14.098 -25.411  0.00  0.00    +0.058 C 
ATOM      6  C   UNL     1      34.769 -15.893 -22.765  0.00  0.00    +0.001 C 
ATOM      7  C   UNL     1      34.536 -17.369 -25.169  0.00  0.00    +0.015 C 
ATOM      8  C   UNL     1      35.301 -17.183 -22.871  0.00  0.00    +0.000 C 
ATOM      9  C   UNL     1      35.185 -17.908 -24.055  0.00  0.00    +0.001 C 
ATOM     10  H   UNL     1      33.111 -15.583 -26.885  0.00  0.00    +0.152 HD
ENDROOT
BRANCH   2  11
ATOM     11  C   UNL     1      33.320 -12.930 -23.132  0.00  0.00    +0.122 C 
BRANCH  11  13
ATOM     12  O   UNL     1      32.791 -10.653 -23.835  0.00  0.00    -0.250 OA
ATOM     13  C   UNL     1      33.566 -11.603 -23.838  0.00  0.00    +0.317 C 
BRANCH  13  14
ATOM     14  O   UNL     1      34.748 -11.580 -24.508  0.00  0.00    -0.480 OA
ATOM     15  H   UNL     1      35.491 -12.032 -24.162  0.00  0.00    +0.295 HD
ENDBRANCH  13  14
ENDBRANCH  11  13
BRANCH  11  16
ATOM     16  C   UNL     1      31.947 -12.910 -22.426  0.00  0.00    +0.016 C 
BRANCH  16  17
ATOM     17  C   UNL     1      32.052 -12.575 -20.933  0.00  0.00    +0.001 C 
BRANCH  17  18
ATOM     18  C   UNL     1      31.219 -11.356 -20.528  0.00  0.00    +0.000 C 
ATOM     19  C   UNL     1      31.514 -10.859 -19.121  0.00  0.00    +0.000 C 
ENDBRANCH  17  18
ENDBRANCH  16  17
ENDBRANCH  11  16
ENDBRANCH   2  11
TORSDOF 6
ENDMDL
MODEL 8
REMARK VINA RESULT:      -7.7      4.581      7.499
REMARK  Name = 24768549
REMARK  6 active torsions:
REMARK  status: ('A' for Active; 'I' for Inactive)
REMARK    1  A    between atoms: C_2  and  C_11
REMARK    2  A    between atoms: C_11  and  C_13
REMARK    3  A    between atoms: C_11  and  C_16
REMARK    4  A    between atoms: C_13  and  O_14
REMARK    5  A    between atoms: C_16  and  C_17
REMARK    6  A    between atoms: C_17  and  C_18
REMARK                            x       y       z     vdW  Elec       q    Type
REMARK                         _______ _______ _______ _____ _____    ______ ____
ROOT
ATOM      1  N   UNL     1      33.899 -10.858 -24.647  0.00  0.00    -0.312 N 
ATOM      2  C   UNL     1      33.414 -12.961 -24.126  0.00  0.00    +0.004 C 
ATOM      3  C   UNL     1      32.743 -12.109 -23.205  0.00  0.00    +0.011 C 
ATOM      4  C   UNL     1      33.063 -10.795 -23.554  0.00  0.00    +0.048 C 
ATOM      5  C   UNL     1      34.116 -12.164 -25.000  0.00  0.00    +0.058 C 
ATOM      6  C   UNL     1      31.890 -12.330 -22.105  0.00  0.00    +0.001 C 
ATOM      7  C   UNL     1      32.572  -9.687 -22.855  0.00  0.00    +0.015 C 
ATOM      8  C   UNL     1      31.392 -11.230 -21.396  0.00  0.00    +0.000 C 
ATOM      9  C   UNL     1      31.729  -9.930 -21.767  0.00  0.00    +0.001 C 
ATOM     10  H   UNL     1      34.284 -10.078 -25.108  0.00  0.00    +0.152 HD
ENDROOT
BRANCH   2  11
ATOM     11  C   UNL     1      33.371 -14.484 -24.150  0.00  0.00    +0.122 C 
BRANCH  11  13
ATOM     12  O   UNL     1      34.031 -15.763 -26.121  0.00  0.00    -0.250 OA
ATOM     13  C   UNL     1      33.253 -14.982 -25.585  0.00  0.00    +0.317 C 
BRANCH  13  14
ATOM     14  O   UNL     1      32.189 -14.446 -26.237  0.00  0.00    -0.480 OA
ATOM     15  H   UNL     1      31.996 -13.535 -26.149  0.00  0.00    +0.295 HD
ENDBRANCH  13  14
ENDBRANCH  11  13
BRANCH  11  16
ATOM     16  C   UNL     1      34.589 -15.134 -23.460  0.00  0.00    +0.016 C 
BRANCH  16  17
ATOM     17  C   UNL     1      34.203 -15.952 -22.221  0.00  0.00    +0.001 C 
BRANCH  17  18
ATOM     18  C   UNL     1      34.173 -15.123 -20.935  0.00  0.00    +0.000 C 
ATOM     19  C   UNL     1      32.813 -15.106 -20.254  0.00  0.00    +0.000 C 
ENDBRANCH  17  18
ENDBRANCH  16  17
ENDBRANCH  11  16
ENDBRANCH   2  11
TORSDOF 6
ENDMDL
MODEL 9
REMARK VINA RESULT:      -7.7      2.554      5.383
REMARK  Name = 24768549
REMARK  6 active torsions:
REMARK  status: ('A' for Active; 'I' for Inactive)
REMARK    1  A    between atoms: C_2  and  C_11
REMARK    2  A    between atoms: C_11  and  C_13
REMARK    3  A    between atoms: C_11  and  C_16
REMARK    4  A    between atoms: C_13  and  O_14
REMARK    5  A    between atoms: C_16  and  C_17
REMARK    6  A    between atoms: C_17  and  C_18
REMARK                            x       y       z     vdW  Elec       q    Type
REMARK                         _______ _______ _______ _____ _____    ______ ____
ROOT
ATOM      1  N   UNL     1      34.911 -16.111 -21.892  0.00  0.00    -0.312 N 
ATOM      2  C   UNL     1      34.704 -18.238 -21.292  0.00  0.00    +0.004 C 
ATOM      3  C   UNL     1      34.632 -18.168 -22.712  0.00  0.00    +0.011 C 
ATOM      4  C   UNL     1      34.765 -16.822 -23.062  0.00  0.00    +0.048 C 
ATOM      5  C   UNL     1      34.876 -16.959 -20.817  0.00  0.00    +0.058 C 
ATOM      6  C   UNL     1      34.467 -19.122 -23.735  0.00  0.00    +0.001 C 
ATOM      7  C   UNL     1      34.740 -16.382 -24.391  0.00  0.00    +0.015 C 
ATOM      8  C   UNL     1      34.439 -18.696 -25.068  0.00  0.00    +0.000 C 
ATOM      9  C   UNL     1      34.574 -17.347 -25.388  0.00  0.00    +0.001 C 
ATOM     10  H   UNL     1      35.025 -15.135 -21.837  0.00  0.00    +0.152 HD
ENDROOT
BRANCH   2  11
ATOM     11  C   UNL     1      34.609 -19.498 -20.440  0.00  0.00    +0.122 C 
BRANCH  11  13
ATOM     12  O   UNL     1      32.906 -21.246 -20.435  0.00  0.00    -0.250 OA
ATOM     13  C   UNL     1      33.192 -20.055 -20.485  0.00  0.00    +0.317 C 
BRANCH  13  14
ATOM     14  O   UNL     1      32.253 -19.082 -20.612  0.00  0.00    -0.480 OA
ATOM     15  H   UNL     1      32.170 -18.614 -21.418  0.00  0.00    +0.295 HD
ENDBRANCH  13  14
ENDBRANCH  11  13
BRANCH  11  16
ATOM     16  C   UNL     1      35.622 -20.586 -20.857  0.00  0.00    +0.016 C 
BRANCH  16  17
ATOM     17  C   UNL     1      36.607 -20.941 -19.736  0.00  0.00    +0.001 C 
BRANCH  17  18
ATOM     18  C   UNL     1      35.973 -21.766 -18.613  0.00  0.00    +0.000 C 
ATOM     19  C   UNL     1      36.836 -21.854 -17.363  0.00  0.00    +0.000 C 
ENDBRANCH  17  18
ENDBRANCH  16  17
ENDBRANCH  11  16
ENDBRANCH   2  11
TORSDOF 6
ENDMDL
