MODEL 1
REMARK VINA RESULT:      -9.6      0.000      0.000
REMARK  Name = 451597
REMARK  8 active torsions:
REMARK  status: ('A' for Active; 'I' for Inactive)
REMARK    1  A    between atoms: C_2  and  N_18
REMARK    2  A    between atoms: C_3  and  O_22
REMARK    3  A    between atoms: C_4  and  N_6
REMARK    4  A    between atoms: C_5  and  C_24
REMARK    5  A    between atoms: C_24  and  O_25
REMARK    6  A    between atoms: O_25  and  P_26
REMARK    7  A    between atoms: P_26  and  O_28
REMARK    8  A    between atoms: P_26  and  O_30
REMARK                            x       y       z     vdW  Elec       q    Type
REMARK                         _______ _______ _______ _____ _____    ______ ____
ROOT
ATOM      1  O   UNL     1      36.417 -24.240 -15.089  0.00  0.00    -0.338 OA
ATOM      2  C   UNL     1      36.860 -24.965 -12.894  0.00  0.00    -0.004 C 
ATOM      3  C   UNL     1      36.157 -23.618 -12.784  0.00  0.00    +0.140 C 
ATOM      4  C   UNL     1      35.672 -23.368 -14.214  0.00  0.00    +0.220 C 
ATOM      5  C   UNL     1      37.423 -24.915 -14.310  0.00  0.00    +0.130 C 
ENDROOT
BRANCH   4   6
ATOM      6  N   UNL     1      34.238 -23.604 -14.397  0.00  0.00    -0.247 N 
ATOM      7  N   UNL     1      32.146 -24.195 -13.910  0.00  0.00    -0.242 NA
ATOM      8  N   UNL     1      33.949 -22.906 -16.705  0.00  0.00    -0.228 NA
ATOM      9  N   UNL     1      29.917 -23.977 -15.966  0.00  0.00    -0.289 N 
ATOM     10  N   UNL     1      31.628 -23.149 -17.420  0.00  0.00    -0.228 NA
ATOM     11  C   UNL     1      33.510 -23.382 -15.531  0.00  0.00    +0.152 C 
ATOM     12  C   UNL     1      33.376 -24.092 -13.452  0.00  0.00    +0.223 C 
ATOM     13  C   UNL     1      32.215 -23.754 -15.207  0.00  0.00    +0.140 C 
ATOM     14  C   UNL     1      31.256 -23.624 -16.206  0.00  0.00    +0.149 C 
ATOM     15  C   UNL     1      32.932 -22.825 -17.592  0.00  0.00    +0.253 C 
ATOM     16  C   UNL     1      29.587 -25.024 -15.017  0.00  0.00    +0.114 C 
ATOM     17  C   UNL     1      28.837 -23.290 -16.653  0.00  0.00    +0.114 C 
ENDBRANCH   4   6
BRANCH   2  18
ATOM     18  N   UNL     1      37.865 -25.206 -11.874  0.00  0.00    +0.385 N 
ATOM     19  H   UNL     1      38.795 -25.116 -12.285  0.00  0.00    -0.089 HD
ATOM     20  H   UNL     1      37.749 -26.146 -11.498  0.00  0.00    -0.089 HD
ATOM     21  H   UNL     1      37.758 -24.524 -11.124  0.00  0.00    -0.089 HD
ENDBRANCH   2  18
BRANCH   3  22
ATOM     22  O   UNL     1      37.061 -22.577 -12.415  0.00  0.00    -0.382 OA
ATOM     23  H   UNL     1      36.607 -21.721 -12.465  0.00  0.00    +0.210 HD
ENDBRANCH   3  22
BRANCH   5  24
ATOM     24  C   UNL     1      37.709 -26.278 -14.915  0.00  0.00    +0.181 C 
BRANCH  24  25
ATOM     25  O   UNL     1      38.899 -26.792 -14.340  0.00  0.00    -0.271 OA
BRANCH  25  26
ATOM     26  P   UNL     1      40.276 -25.970 -14.555  0.00  0.00    +0.473 P 
ATOM     27  O   UNL     1      40.333 -24.637 -13.866  0.00  0.00    -0.227 OA
BRANCH  26  28
ATOM     28  O   UNL     1      40.450 -25.925 -16.162  0.00  0.00    -0.303 OA
ATOM     29  H   UNL     1      40.053 -25.110 -16.507  0.00  0.00    +0.222 HD
ENDBRANCH  26  28
BRANCH  26  30
ATOM     30  O   UNL     1      41.405 -27.029 -14.087  0.00  0.00    -0.303 OA
ATOM     31  H   UNL     1      40.985 -27.877 -13.877  0.00  0.00    +0.222 HD
ENDBRANCH  26  30
ENDBRANCH  25  26
ENDBRANCH  24  25
ENDBRANCH   5  24
TORSDOF 8
ENDMDL
MODEL 2
REMARK VINA RESULT:      -9.0      8.689     10.810
REMARK  Name = 451597
REMARK  8 active torsions:
REMARK  status: ('A' for Active; 'I' for Inactive)
REMARK    1  A    between atoms: C_2  and  N_18
REMARK    2  A    between atoms: C_3  and  O_22
REMARK    3  A    between atoms: C_4  and  N_6
REMARK    4  A    between atoms: C_5  and  C_24
REMARK    5  A    between atoms: C_24  and  O_25
REMARK    6  A    between atoms: O_25  and  P_26
REMARK    7  A    between atoms: P_26  and  O_28
REMARK    8  A    between atoms: P_26  and  O_30
REMARK                            x       y       z     vdW  Elec       q    Type
REMARK                         _______ _______ _______ _____ _____    ______ ____
ROOT
ATOM      1  O   UNL     1      33.962 -18.809 -22.168  0.00  0.00    -0.338 OA
ATOM      2  C   UNL     1      35.830 -18.967 -20.744  0.00  0.00    -0.004 C 
ATOM      3  C   UNL     1      36.203 -18.001 -21.861  0.00  0.00    +0.140 C 
ATOM      4  C   UNL     1      34.864 -17.754 -22.561  0.00  0.00    +0.220 C 
ATOM      5  C   UNL     1      34.696 -19.765 -21.379  0.00  0.00    +0.130 C 
ENDROOT
BRANCH   4   6
ATOM      6  N   UNL     1      34.265 -16.457 -22.239  0.00  0.00    -0.247 N 
ATOM      7  N   UNL     1      33.509 -14.759 -21.010  0.00  0.00    -0.242 NA
ATOM      8  N   UNL     1      33.787 -15.609 -24.464  0.00  0.00    -0.228 NA
ATOM      9  N   UNL     1      32.302 -12.283 -22.298  0.00  0.00    -0.289 N 
ATOM     10  N   UNL     1      32.752 -13.400 -24.367  0.00  0.00    -0.228 NA
ATOM     11  C   UNL     1      33.797 -15.529 -23.125  0.00  0.00    +0.152 C 
ATOM     12  C   UNL     1      34.070 -15.950 -20.983  0.00  0.00    +0.223 C 
ATOM     13  C   UNL     1      33.333 -14.484 -22.343  0.00  0.00    +0.140 C 
ATOM     14  C   UNL     1      32.795 -13.389 -23.012  0.00  0.00    +0.149 C 
ATOM     15  C   UNL     1      33.243 -14.493 -24.999  0.00  0.00    +0.253 C 
ATOM     16  C   UNL     1      31.739 -12.452 -20.971  0.00  0.00    +0.114 C 
ATOM     17  C   UNL     1      32.359 -10.950 -22.871  0.00  0.00    +0.114 C 
ENDBRANCH   4   6
BRANCH   2  18
ATOM     18  N   UNL     1      36.927 -19.789 -20.266  0.00  0.00    +0.385 N 
ATOM     19  H   UNL     1      37.591 -19.944 -21.026  0.00  0.00    -0.089 HD
ATOM     20  H   UNL     1      36.565 -20.686 -19.944  0.00  0.00    -0.089 HD
ATOM     21  H   UNL     1      37.397 -19.314 -19.496  0.00  0.00    -0.089 HD
ENDBRANCH   2  18
BRANCH   3  22
ATOM     22  O   UNL     1      37.108 -18.592 -22.793  0.00  0.00    -0.382 OA
ATOM     23  H   UNL     1      37.790 -17.946 -23.036  0.00  0.00    +0.210 HD
ENDBRANCH   3  22
BRANCH   5  24
ATOM     24  C   UNL     1      33.765 -20.426 -20.380  0.00  0.00    +0.181 C 
BRANCH  24  25
ATOM     25  O   UNL     1      34.534 -21.232 -19.501  0.00  0.00    -0.271 OA
BRANCH  25  26
ATOM     26  P   UNL     1      33.806 -22.470 -18.755  0.00  0.00    +0.473 P 
ATOM     27  O   UNL     1      32.366 -22.238 -18.399  0.00  0.00    -0.227 OA
BRANCH  26  28
ATOM     28  O   UNL     1      34.782 -22.794 -17.508  0.00  0.00    -0.303 OA
ATOM     29  H   UNL     1      34.361 -22.503 -16.684  0.00  0.00    +0.222 HD
ENDBRANCH  26  28
BRANCH  26  30
ATOM     30  O   UNL     1      34.069 -23.705 -19.765  0.00  0.00    -0.303 OA
ATOM     31  H   UNL     1      33.529 -24.463 -19.496  0.00  0.00    +0.222 HD
ENDBRANCH  26  30
ENDBRANCH  25  26
ENDBRANCH  24  25
ENDBRANCH   5  24
TORSDOF 8
ENDMDL
MODEL 3
REMARK VINA RESULT:      -8.7      5.451      8.118
REMARK  Name = 451597
REMARK  8 active torsions:
REMARK  status: ('A' for Active; 'I' for Inactive)
REMARK    1  A    between atoms: C_2  and  N_18
REMARK    2  A    between atoms: C_3  and  O_22
REMARK    3  A    between atoms: C_4  and  N_6
REMARK    4  A    between atoms: C_5  and  C_24
REMARK    5  A    between atoms: C_24  and  O_25
REMARK    6  A    between atoms: O_25  and  P_26
REMARK    7  A    between atoms: P_26  and  O_28
REMARK    8  A    between atoms: P_26  and  O_30
REMARK                            x       y       z     vdW  Elec       q    Type
REMARK                         _______ _______ _______ _____ _____    ______ ____
ROOT
ATOM      1  O   UNL     1      31.974 -23.595 -17.388  0.00  0.00    -0.338 OA
ATOM      2  C   UNL     1      32.947 -22.791 -15.401  0.00  0.00    -0.004 C 
ATOM      3  C   UNL     1      34.090 -23.173 -16.332  0.00  0.00    +0.140 C 
ATOM      4  C   UNL     1      33.378 -23.414 -17.666  0.00  0.00    +0.220 C 
ATOM      5  C   UNL     1      31.793 -23.616 -15.959  0.00  0.00    +0.130 C 
ENDROOT
BRANCH   4   6
ATOM      6  N   UNL     1      33.547 -22.321 -18.626  0.00  0.00    -0.247 N 
ATOM      7  N   UNL     1      33.003 -20.736 -20.095  0.00  0.00    -0.242 NA
ATOM      8  N   UNL     1      35.963 -22.074 -18.621  0.00  0.00    -0.228 NA
ATOM      9  N   UNL     1      35.124 -19.015 -21.429  0.00  0.00    -0.289 N 
ATOM     10  N   UNL     1      36.676 -20.300 -20.138  0.00  0.00    -0.228 NA
ATOM     11  C   UNL     1      34.724 -21.754 -19.023  0.00  0.00    +0.152 C 
ATOM     12  C   UNL     1      32.542 -21.676 -19.297  0.00  0.00    +0.223 C 
ATOM     13  C   UNL     1      34.364 -20.773 -19.933  0.00  0.00    +0.140 C 
ATOM     14  C   UNL     1      35.397 -20.031 -20.498  0.00  0.00    +0.149 C 
ATOM     15  C   UNL     1      36.877 -21.291 -19.235  0.00  0.00    +0.253 C 
ATOM     16  C   UNL     1      33.965 -19.101 -22.299  0.00  0.00    +0.114 C 
ATOM     17  C   UNL     1      35.989 -17.852 -21.530  0.00  0.00    +0.114 C 
ENDBRANCH   4   6
BRANCH   2  18
ATOM     18  N   UNL     1      33.210 -23.031 -13.994  0.00  0.00    +0.385 N 
ATOM     19  H   UNL     1      34.108 -23.507 -13.892  0.00  0.00    -0.089 HD
ATOM     20  H   UNL     1      32.471 -23.615 -13.604  0.00  0.00    -0.089 HD
ATOM     21  H   UNL     1      33.239 -22.141 -13.496  0.00  0.00    -0.089 HD
ENDBRANCH   2  18
BRANCH   3  22
ATOM     22  O   UNL     1      34.725 -24.383 -15.923  0.00  0.00    -0.382 OA
ATOM     23  H   UNL     1      34.095 -24.927 -15.424  0.00  0.00    +0.210 HD
ENDBRANCH   3  22
BRANCH   5  24
ATOM     24  C   UNL     1      30.417 -23.077 -15.611  0.00  0.00    +0.181 C 
BRANCH  24  25
ATOM     25  O   UNL     1      29.710 -22.817 -16.812  0.00  0.00    -0.271 OA
BRANCH  25  26
ATOM     26  P   UNL     1      28.092 -22.832 -16.773  0.00  0.00    +0.473 P 
ATOM     27  O   UNL     1      27.435 -21.553 -17.206  0.00  0.00    -0.227 OA
BRANCH  26  28
ATOM     28  O   UNL     1      27.749 -23.308 -15.266  0.00  0.00    -0.303 OA
ATOM     29  H   UNL     1      26.827 -23.608 -15.223  0.00  0.00    +0.222 HD
ENDBRANCH  26  28
BRANCH  26  30
ATOM     30  O   UNL     1      27.721 -24.127 -17.666  0.00  0.00    -0.303 OA
ATOM     31  H   UNL     1      28.479 -24.365 -18.221  0.00  0.00    +0.222 HD
ENDBRANCH  26  30
ENDBRANCH  25  26
ENDBRANCH  24  25
ENDBRANCH   5  24
TORSDOF 8
ENDMDL
MODEL 4
REMARK VINA RESULT:      -8.7     12.269     14.537
REMARK  Name = 451597
REMARK  8 active torsions:
REMARK  status: ('A' for Active; 'I' for Inactive)
REMARK    1  A    between atoms: C_2  and  N_18
REMARK    2  A    between atoms: C_3  and  O_22
REMARK    3  A    between atoms: C_4  and  N_6
REMARK    4  A    between atoms: C_5  and  C_24
REMARK    5  A    between atoms: C_24  and  O_25
REMARK    6  A    between atoms: O_25  and  P_26
REMARK    7  A    between atoms: P_26  and  O_28
REMARK    8  A    between atoms: P_26  and  O_30
REMARK                            x       y       z     vdW  Elec       q    Type
REMARK                         _______ _______ _______ _____ _____    ______ ____
ROOT
ATOM      1  O   UNL     1      32.835 -14.537 -22.583  0.00  0.00    -0.338 OA
ATOM      2  C   UNL     1      34.657 -15.388 -23.806  0.00  0.00    -0.004 C 
ATOM      3  C   UNL     1      33.751 -14.671 -24.798  0.00  0.00    +0.140 C 
ATOM      4  C   UNL     1      32.766 -13.932 -23.890  0.00  0.00    +0.220 C 
ATOM      5  C   UNL     1      33.697 -15.687 -22.659  0.00  0.00    +0.130 C 
ENDROOT
BRANCH   4   6
ATOM      6  N   UNL     1      33.037 -12.497 -23.776  0.00  0.00    -0.247 N 
ATOM      7  N   UNL     1      33.939 -10.507 -24.212  0.00  0.00    -0.242 NA
ATOM      8  N   UNL     1      31.564 -11.895 -21.941  0.00  0.00    -0.228 NA
ATOM      9  N   UNL     1      33.165  -8.032 -22.624  0.00  0.00    -0.289 N 
ATOM     10  N   UNL     1      31.719  -9.515 -21.424  0.00  0.00    -0.228 NA
ATOM     11  C   UNL     1      32.474 -11.625 -22.889  0.00  0.00    +0.152 C 
ATOM     12  C   UNL     1      33.909 -11.779 -24.550  0.00  0.00    +0.223 C 
ATOM     13  C   UNL     1      33.047 -10.396 -23.176  0.00  0.00    +0.140 C 
ATOM     14  C   UNL     1      32.637  -9.316 -22.401  0.00  0.00    +0.149 C 
ATOM     15  C   UNL     1      31.247 -10.774 -21.257  0.00  0.00    +0.253 C 
ATOM     16  C   UNL     1      34.512  -7.866 -23.137  0.00  0.00    +0.114 C 
ATOM     17  C   UNL     1      32.366  -6.849 -22.357  0.00  0.00    +0.114 C 
ENDBRANCH   4   6
BRANCH   2  18
ATOM     18  N   UNL     1      35.320 -16.565 -24.336  0.00  0.00    +0.385 N 
ATOM     19  H   UNL     1      36.100 -16.819 -23.727  0.00  0.00    -0.089 HD
ATOM     20  H   UNL     1      35.672 -16.366 -25.271  0.00  0.00    -0.089 HD
ATOM     21  H   UNL     1      34.657 -17.339 -24.379  0.00  0.00    -0.089 HD
ENDBRANCH   2  18
BRANCH   3  22
ATOM     22  O   UNL     1      33.026 -15.591 -25.613  0.00  0.00    -0.382 OA
ATOM     23  H   UNL     1      33.648 -16.176 -26.074  0.00  0.00    +0.210 HD
ENDBRANCH   3  22
BRANCH   5  24
ATOM     24  C   UNL     1      34.378 -15.907 -21.319  0.00  0.00    +0.181 C 
BRANCH  24  25
ATOM     25  O   UNL     1      35.334 -16.945 -21.456  0.00  0.00    -0.271 OA
BRANCH  25  26
ATOM     26  P   UNL     1      34.832 -18.478 -21.326  0.00  0.00    +0.473 P 
ATOM     27  O   UNL     1      33.440 -18.645 -20.788  0.00  0.00    -0.227 OA
BRANCH  26  28
ATOM     28  O   UNL     1      35.997 -19.191 -20.461  0.00  0.00    -0.303 OA
ATOM     29  H   UNL     1      36.571 -18.513 -20.071  0.00  0.00    +0.222 HD
ENDBRANCH  26  28
BRANCH  26  30
ATOM     30  O   UNL     1      35.064 -19.061 -22.816  0.00  0.00    -0.303 OA
ATOM     31  H   UNL     1      35.933 -18.781 -23.141  0.00  0.00    +0.222 HD
ENDBRANCH  26  30
ENDBRANCH  25  26
ENDBRANCH  24  25
ENDBRANCH   5  24
TORSDOF 8
ENDMDL
MODEL 5
REMARK VINA RESULT:      -8.2     11.962     14.148
REMARK  Name = 451597
REMARK  8 active torsions:
REMARK  status: ('A' for Active; 'I' for Inactive)
REMARK    1  A    between atoms: C_2  and  N_18
REMARK    2  A    between atoms: C_3  and  O_22
REMARK    3  A    between atoms: C_4  and  N_6
REMARK    4  A    between atoms: C_5  and  C_24
REMARK    5  A    between atoms: C_24  and  O_25
REMARK    6  A    between atoms: O_25  and  P_26
REMARK    7  A    between atoms: P_26  and  O_28
REMARK    8  A    between atoms: P_26  and  O_30
REMARK                            x       y       z     vdW  Elec       q    Type
REMARK                         _______ _______ _______ _____ _____    ______ ____
ROOT
ATOM      1  O   UNL     1      32.656 -15.199 -22.106  0.00  0.00    -0.338 OA
ATOM      2  C   UNL     1      34.736 -15.515 -23.161  0.00  0.00    -0.004 C 
ATOM      3  C   UNL     1      33.818 -14.852 -24.179  0.00  0.00    +0.140 C 
ATOM      4  C   UNL     1      32.609 -14.443 -23.333  0.00  0.00    +0.220 C 
ATOM      5  C   UNL     1      33.737 -16.145 -22.195  0.00  0.00    +0.130 C 
ENDROOT
BRANCH   4   6
ATOM      6  N   UNL     1      32.568 -13.012 -23.023  0.00  0.00    -0.247 N 
ATOM      7  N   UNL     1      32.013 -11.122 -21.983  0.00  0.00    -0.242 NA
ATOM      8  N   UNL     1      34.050 -12.130 -24.733  0.00  0.00    -0.228 NA
ATOM      9  N   UNL     1      33.116  -8.434 -22.882  0.00  0.00    -0.289 N 
ATOM     10  N   UNL     1      34.260  -9.704 -24.557  0.00  0.00    -0.228 NA
ATOM     11  C   UNL     1      33.230 -12.013 -23.678  0.00  0.00    +0.152 C 
ATOM     12  C   UNL     1      31.851 -12.428 -22.014  0.00  0.00    +0.223 C 
ATOM     13  C   UNL     1      32.873 -10.849 -23.016  0.00  0.00    +0.140 C 
ATOM     14  C   UNL     1      33.422  -9.662 -23.493  0.00  0.00    +0.149 C 
ATOM     15  C   UNL     1      34.518 -10.917 -25.104  0.00  0.00    +0.253 C 
ATOM     16  C   UNL     1      31.832  -8.230 -22.235  0.00  0.00    +0.114 C 
ATOM     17  C   UNL     1      34.084  -7.351 -22.874  0.00  0.00    +0.114 C 
ENDBRANCH   4   6
BRANCH   2  18
ATOM     18  N   UNL     1      35.679 -16.463 -23.726  0.00  0.00    +0.385 N 
ATOM     19  H   UNL     1      36.343 -16.753 -23.007  0.00  0.00    -0.089 HD
ATOM     20  H   UNL     1      36.183 -16.023 -24.496  0.00  0.00    -0.089 HD
ATOM     21  H   UNL     1      35.175 -17.279 -24.072  0.00  0.00    -0.089 HD
ENDBRANCH   2  18
BRANCH   3  22
ATOM     22  O   UNL     1      33.388 -15.771 -25.183  0.00  0.00    -0.382 OA
ATOM     23  H   UNL     1      34.041 -16.484 -25.270  0.00  0.00    +0.210 HD
ENDBRANCH   3  22
BRANCH   5  24
ATOM     24  C   UNL     1      34.297 -16.414 -20.810  0.00  0.00    +0.181 C 
BRANCH  24  25
ATOM     25  O   UNL     1      35.255 -17.456 -20.898  0.00  0.00    -0.271 OA
BRANCH  25  26
ATOM     26  P   UNL     1      34.728 -18.970 -21.125  0.00  0.00    +0.473 P 
ATOM     27  O   UNL     1      33.277 -19.190 -20.810  0.00  0.00    -0.227 OA
BRANCH  26  28
ATOM     28  O   UNL     1      35.765 -19.869 -20.270  0.00  0.00    -0.303 OA
ATOM     29  H   UNL     1      35.988 -19.409 -19.446  0.00  0.00    +0.222 HD
ENDBRANCH  26  28
BRANCH  26  30
ATOM     30  O   UNL     1      35.149 -19.272 -22.657  0.00  0.00    -0.303 OA
ATOM     31  H   UNL     1      34.478 -19.837 -23.070  0.00  0.00    +0.222 HD
ENDBRANCH  26  30
ENDBRANCH  25  26
ENDBRANCH  24  25
ENDBRANCH   5  24
TORSDOF 8
ENDMDL
MODEL 6
REMARK VINA RESULT:      -8.2      8.629     10.957
REMARK  Name = 451597
REMARK  8 active torsions:
REMARK  status: ('A' for Active; 'I' for Inactive)
REMARK    1  A    between atoms: C_2  and  N_18
REMARK    2  A    between atoms: C_3  and  O_22
REMARK    3  A    between atoms: C_4  and  N_6
REMARK    4  A    between atoms: C_5  and  C_24
REMARK    5  A    between atoms: C_24  and  O_25
REMARK    6  A    between atoms: O_25  and  P_26
REMARK    7  A    between atoms: P_26  and  O_28
REMARK    8  A    between atoms: P_26  and  O_30
REMARK                            x       y       z     vdW  Elec       q    Type
REMARK                         _______ _______ _______ _____ _____    ______ ____
ROOT
ATOM      1  O   UNL     1      33.827 -18.805 -22.654  0.00  0.00    -0.338 OA
ATOM      2  C   UNL     1      35.516 -18.668 -21.020  0.00  0.00    -0.004 C 
ATOM      3  C   UNL     1      36.076 -18.044 -22.291  0.00  0.00    +0.140 C 
ATOM      4  C   UNL     1      34.841 -17.930 -23.188  0.00  0.00    +0.220 C 
ATOM      5  C   UNL     1      34.400 -19.553 -21.565  0.00  0.00    +0.130 C 
ENDROOT
BRANCH   4   6
ATOM      6  N   UNL     1      34.309 -16.568 -23.282  0.00  0.00    -0.247 N 
ATOM      7  N   UNL     1      33.737 -14.613 -24.185  0.00  0.00    -0.242 NA
ATOM      8  N   UNL     1      33.588 -16.198 -20.993  0.00  0.00    -0.228 NA
ATOM      9  N   UNL     1      32.428 -12.424 -22.530  0.00  0.00    -0.289 N 
ATOM     10  N   UNL     1      32.613 -13.978 -20.718  0.00  0.00    -0.228 NA
ATOM     11  C   UNL     1      33.758 -15.833 -22.272  0.00  0.00    +0.152 C 
ATOM     12  C   UNL     1      34.274 -15.794 -24.411  0.00  0.00    +0.223 C 
ATOM     13  C   UNL     1      33.409 -14.624 -22.853  0.00  0.00    +0.140 C 
ATOM     14  C   UNL     1      32.815 -13.677 -22.025  0.00  0.00    +0.149 C 
ATOM     15  C   UNL     1      33.006 -15.201 -20.290  0.00  0.00    +0.253 C 
ATOM     16  C   UNL     1      33.147 -11.819 -23.636  0.00  0.00    +0.114 C 
ATOM     17  C   UNL     1      31.292 -11.718 -21.963  0.00  0.00    +0.114 C 
ENDBRANCH   4   6
BRANCH   2  18
ATOM     18  N   UNL     1      36.491 -19.385 -20.219  0.00  0.00    +0.385 N 
ATOM     19  H   UNL     1      37.310 -18.794 -20.071  0.00  0.00    -0.089 HD
ATOM     20  H   UNL     1      36.771 -20.236 -20.704  0.00  0.00    -0.089 HD
ATOM     21  H   UNL     1      36.080 -19.626 -19.318  0.00  0.00    -0.089 HD
ENDBRANCH   2  18
BRANCH   3  22
ATOM     22  O   UNL     1      37.029 -18.897 -22.924  0.00  0.00    -0.382 OA
ATOM     23  H   UNL     1      37.922 -18.546 -22.783  0.00  0.00    +0.210 HD
ENDBRANCH   3  22
BRANCH   5  24
ATOM     24  C   UNL     1      33.320 -19.889 -20.552  0.00  0.00    +0.181 C 
BRANCH  24  25
ATOM     25  O   UNL     1      33.163 -21.298 -20.501  0.00  0.00    -0.271 OA
BRANCH  25  26
ATOM     26  P   UNL     1      33.807 -22.101 -19.252  0.00  0.00    +0.473 P 
ATOM     27  O   UNL     1      35.091 -21.529 -18.724  0.00  0.00    -0.227 OA
BRANCH  26  28
ATOM     28  O   UNL     1      33.897 -23.626 -19.782  0.00  0.00    -0.303 OA
ATOM     29  H   UNL     1      33.132 -23.818 -20.348  0.00  0.00    +0.222 HD
ENDBRANCH  26  28
BRANCH  26  30
ATOM     30  O   UNL     1      32.591 -22.147 -18.188  0.00  0.00    -0.303 OA
ATOM     31  H   UNL     1      32.662 -22.952 -17.651  0.00  0.00    +0.222 HD
ENDBRANCH  26  30
ENDBRANCH  25  26
ENDBRANCH  24  25
ENDBRANCH   5  24
TORSDOF 8
ENDMDL
MODEL 7
REMARK VINA RESULT:      -8.1      0.882      2.128
REMARK  Name = 451597
REMARK  8 active torsions:
REMARK  status: ('A' for Active; 'I' for Inactive)
REMARK    1  A    between atoms: C_2  and  N_18
REMARK    2  A    between atoms: C_3  and  O_22
REMARK    3  A    between atoms: C_4  and  N_6
REMARK    4  A    between atoms: C_5  and  C_24
REMARK    5  A    between atoms: C_24  and  O_25
REMARK    6  A    between atoms: O_25  and  P_26
REMARK    7  A    between atoms: P_26  and  O_28
REMARK    8  A    between atoms: P_26  and  O_30
REMARK                            x       y       z     vdW  Elec       q    Type
REMARK                         _______ _______ _______ _____ _____    ______ ____
ROOT
ATOM      1  O   UNL     1      36.511 -24.053 -15.478  0.00  0.00    -0.338 OA
ATOM      2  C   UNL     1      36.382 -25.000 -13.327  0.00  0.00    -0.004 C 
ATOM      3  C   UNL     1      35.760 -23.613 -13.240  0.00  0.00    +0.140 C 
ATOM      4  C   UNL     1      35.640 -23.198 -14.708  0.00  0.00    +0.220 C 
ATOM      5  C   UNL     1      37.262 -24.876 -14.567  0.00  0.00    +0.130 C 
ENDROOT
BRANCH   4   6
ATOM      6  N   UNL     1      34.276 -23.293 -15.234  0.00  0.00    -0.247 N 
ATOM      7  N   UNL     1      32.612 -23.313 -16.716  0.00  0.00    -0.242 NA
ATOM      8  N   UNL     1      33.021 -23.665 -13.189  0.00  0.00    -0.228 NA
ATOM      9  N   UNL     1      29.727 -23.739 -15.854  0.00  0.00    -0.289 N 
ATOM     10  N   UNL     1      30.632 -23.884 -13.643  0.00  0.00    -0.228 NA
ATOM     11  C   UNL     1      33.134 -23.503 -14.516  0.00  0.00    +0.152 C 
ATOM     12  C   UNL     1      33.912 -23.185 -16.550  0.00  0.00    +0.223 C 
ATOM     13  C   UNL     1      32.114 -23.512 -15.453  0.00  0.00    +0.140 C 
ATOM     14  C   UNL     1      30.823 -23.713 -14.974  0.00  0.00    +0.149 C 
ATOM     15  C   UNL     1      31.726 -23.850 -12.845  0.00  0.00    +0.253 C 
ATOM     16  C   UNL     1      29.748 -22.966 -17.083  0.00  0.00    +0.114 C 
ATOM     17  C   UNL     1      28.560 -24.549 -15.557  0.00  0.00    +0.114 C 
ENDBRANCH   4   6
BRANCH   2  18
ATOM     18  N   UNL     1      37.103 -25.414 -12.138  0.00  0.00    +0.385 N 
ATOM     19  H   UNL     1      37.045 -26.429 -12.041  0.00  0.00    -0.089 HD
ATOM     20  H   UNL     1      36.689 -24.972 -11.318  0.00  0.00    -0.089 HD
ATOM     21  H   UNL     1      38.080 -25.136 -12.218  0.00  0.00    -0.089 HD
ENDBRANCH   2  18
BRANCH   3  22
ATOM     22  O   UNL     1      36.617 -22.690 -12.569  0.00  0.00    -0.382 OA
ATOM     23  H   UNL     1      36.792 -23.006 -11.668  0.00  0.00    +0.210 HD
ENDBRANCH   3  22
BRANCH   5  24
ATOM     24  C   UNL     1      37.593 -26.201 -15.230  0.00  0.00    +0.181 C 
BRANCH  24  25
ATOM     25  O   UNL     1      38.674 -26.803 -14.535  0.00  0.00    -0.271 OA
BRANCH  25  26
ATOM     26  P   UNL     1      40.119 -26.076 -14.581  0.00  0.00    +0.473 P 
ATOM     27  O   UNL     1      41.264 -26.909 -14.082  0.00  0.00    -0.227 OA
BRANCH  26  28
ATOM     28  O   UNL     1      39.877 -24.689 -13.786  0.00  0.00    -0.303 OA
ATOM     29  H   UNL     1      40.640 -24.505 -13.216  0.00  0.00    +0.222 HD
ENDBRANCH  26  28
BRANCH  26  30
ATOM     30  O   UNL     1      40.237 -25.605 -16.123  0.00  0.00    -0.303 OA
ATOM     31  H   UNL     1      41.053 -25.094 -16.243  0.00  0.00    +0.222 HD
ENDBRANCH  26  30
ENDBRANCH  25  26
ENDBRANCH  24  25
ENDBRANCH   5  24
TORSDOF 8
ENDMDL
MODEL 8
REMARK VINA RESULT:      -8.0     14.323     16.732
REMARK  Name = 451597
REMARK  8 active torsions:
REMARK  status: ('A' for Active; 'I' for Inactive)
REMARK    1  A    between atoms: C_2  and  N_18
REMARK    2  A    between atoms: C_3  and  O_22
REMARK    3  A    between atoms: C_4  and  N_6
REMARK    4  A    between atoms: C_5  and  C_24
REMARK    5  A    between atoms: C_24  and  O_25
REMARK    6  A    between atoms: O_25  and  P_26
REMARK    7  A    between atoms: P_26  and  O_28
REMARK    8  A    between atoms: P_26  and  O_30
REMARK                            x       y       z     vdW  Elec       q    Type
REMARK                         _______ _______ _______ _____ _____    ______ ____
ROOT
ATOM      1  O   UNL     1      30.999 -10.313 -22.465  0.00  0.00    -0.338 OA
ATOM      2  C   UNL     1      32.421  -9.379 -20.838  0.00  0.00    -0.004 C 
ATOM      3  C   UNL     1      31.950 -10.722 -20.298  0.00  0.00    +0.140 C 
ATOM      4  C   UNL     1      31.273 -11.361 -21.513  0.00  0.00    +0.220 C 
ATOM      5  C   UNL     1      31.339  -9.051 -21.862  0.00  0.00    +0.130 C 
ENDROOT
BRANCH   4   6
ATOM      6  N   UNL     1      32.081 -12.402 -22.154  0.00  0.00    -0.247 N 
ATOM      7  N   UNL     1      33.293 -13.433 -23.714  0.00  0.00    -0.242 NA
ATOM      8  N   UNL     1      32.142 -14.080 -20.399  0.00  0.00    -0.228 NA
ATOM      9  N   UNL     1      34.472 -16.195 -23.238  0.00  0.00    -0.289 N 
ATOM     10  N   UNL     1      33.432 -16.035 -21.088  0.00  0.00    -0.228 NA
ATOM     11  C   UNL     1      32.445 -13.603 -21.616  0.00  0.00    +0.152 C 
ATOM     12  C   UNL     1      32.614 -12.346 -23.414  0.00  0.00    +0.223 C 
ATOM     13  C   UNL     1      33.196 -14.227 -22.599  0.00  0.00    +0.140 C 
ATOM     14  C   UNL     1      33.698 -15.490 -22.300  0.00  0.00    +0.149 C 
ATOM     15  C   UNL     1      32.681 -15.308 -20.226  0.00  0.00    +0.253 C 
ATOM     16  C   UNL     1      34.261 -16.006 -24.662  0.00  0.00    +0.114 C 
ATOM     17  C   UNL     1      35.507 -17.115 -22.799  0.00  0.00    +0.114 C 
ENDBRANCH   4   6
BRANCH   2  18
ATOM     18  N   UNL     1      32.601  -8.352 -19.829  0.00  0.00    +0.385 N 
ATOM     19  H   UNL     1      31.700  -7.922 -19.617  0.00  0.00    -0.089 HD
ATOM     20  H   UNL     1      33.243  -7.640 -20.177  0.00  0.00    -0.089 HD
ATOM     21  H   UNL     1      32.985  -8.771 -18.982  0.00  0.00    -0.089 HD
ENDBRANCH   2  18
BRANCH   3  22
ATOM     22  O   UNL     1      30.982 -10.566 -19.261  0.00  0.00    -0.382 OA
ATOM     23  H   UNL     1      30.535  -9.711 -19.361  0.00  0.00    +0.210 HD
ENDBRANCH   3  22
BRANCH   5  24
ATOM     24  C   UNL     1      31.775  -8.071 -22.937  0.00  0.00    +0.181 C 
BRANCH  24  25
ATOM     25  O   UNL     1      30.831  -7.014 -23.002  0.00  0.00    -0.271 OA
BRANCH  25  26
ATOM     26  P   UNL     1      31.334  -5.511 -22.677  0.00  0.00    +0.473 P 
ATOM     27  O   UNL     1      32.024  -4.813 -23.813  0.00  0.00    -0.227 OA
BRANCH  26  28
ATOM     28  O   UNL     1      32.218  -5.684 -21.334  0.00  0.00    -0.303 OA
ATOM     29  H   UNL     1      31.913  -5.054 -20.662  0.00  0.00    +0.222 HD
ENDBRANCH  26  28
BRANCH  26  30
ATOM     30  O   UNL     1      29.989  -4.787 -22.147  0.00  0.00    -0.303 OA
ATOM     31  H   UNL     1      29.845  -5.016 -21.215  0.00  0.00    +0.222 HD
ENDBRANCH  26  30
ENDBRANCH  25  26
ENDBRANCH  24  25
ENDBRANCH   5  24
TORSDOF 8
ENDMDL
MODEL 9
REMARK VINA RESULT:      -8.0     13.707     16.019
REMARK  Name = 451597
REMARK  8 active torsions:
REMARK  status: ('A' for Active; 'I' for Inactive)
REMARK    1  A    between atoms: C_2  and  N_18
REMARK    2  A    between atoms: C_3  and  O_22
REMARK    3  A    between atoms: C_4  and  N_6
REMARK    4  A    between atoms: C_5  and  C_24
REMARK    5  A    between atoms: C_24  and  O_25
REMARK    6  A    between atoms: O_25  and  P_26
REMARK    7  A    between atoms: P_26  and  O_28
REMARK    8  A    between atoms: P_26  and  O_30
REMARK                            x       y       z     vdW  Elec       q    Type
REMARK                         _______ _______ _______ _____ _____    ______ ____
ROOT
ATOM      1  O   UNL     1      31.182 -10.063 -22.519  0.00  0.00    -0.338 OA
ATOM      2  C   UNL     1      32.448  -9.328 -20.676  0.00  0.00    -0.004 C 
ATOM      3  C   UNL     1      31.824 -10.661 -20.284  0.00  0.00    +0.140 C 
ATOM      4  C   UNL     1      31.264 -11.180 -21.610  0.00  0.00    +0.220 C 
ATOM      5  C   UNL     1      31.526  -8.865 -21.799  0.00  0.00    +0.130 C 
ENDROOT
BRANCH   4   6
ATOM      6  N   UNL     1      32.075 -12.240 -22.214  0.00  0.00    -0.247 N 
ATOM      7  N   UNL     1      33.315 -13.309 -23.726  0.00  0.00    -0.242 NA
ATOM      8  N   UNL     1      32.066 -13.894 -20.436  0.00  0.00    -0.228 NA
ATOM      9  N   UNL     1      34.443 -16.079 -23.180  0.00  0.00    -0.289 N 
ATOM     10  N   UNL     1      33.347 -15.876 -21.062  0.00  0.00    -0.228 NA
ATOM     11  C   UNL     1      32.408 -13.438 -21.650  0.00  0.00    +0.152 C 
ATOM     12  C   UNL     1      32.643 -12.209 -23.460  0.00  0.00    +0.223 C 
ATOM     13  C   UNL     1      33.177 -14.086 -22.604  0.00  0.00    +0.140 C 
ATOM     14  C   UNL     1      33.654 -15.351 -22.274  0.00  0.00    +0.149 C 
ATOM     15  C   UNL     1      32.583 -15.126 -20.231  0.00  0.00    +0.253 C 
ATOM     16  C   UNL     1      34.273 -15.908 -24.612  0.00  0.00    +0.114 C 
ATOM     17  C   UNL     1      35.453 -17.007 -22.701  0.00  0.00    +0.114 C 
ENDBRANCH   4   6
BRANCH   2  18
ATOM     18  N   UNL     1      32.568  -8.375 -19.588  0.00  0.00    +0.385 N 
ATOM     19  H   UNL     1      32.054  -8.719 -18.776  0.00  0.00    -0.089 HD
ATOM     20  H   UNL     1      32.182  -7.477 -19.878  0.00  0.00    -0.089 HD
ATOM     21  H   UNL     1      33.551  -8.260 -19.343  0.00  0.00    -0.089 HD
ENDBRANCH   2  18
BRANCH   3  22
ATOM     22  O   UNL     1      30.747 -10.492 -19.363  0.00  0.00    -0.382 OA
ATOM     23  H   UNL     1      30.266 -11.329 -19.270  0.00  0.00    +0.210 HD
ENDBRANCH   3  22
BRANCH   5  24
ATOM     24  C   UNL     1      32.157  -7.862 -22.748  0.00  0.00    +0.181 C 
BRANCH  24  25
ATOM     25  O   UNL     1      32.890  -8.566 -23.738  0.00  0.00    -0.271 OA
BRANCH  25  26
ATOM     26  P   UNL     1      34.481  -8.295 -23.857  0.00  0.00    +0.473 P 
ATOM     27  O   UNL     1      35.302  -9.496 -24.230  0.00  0.00    -0.227 OA
BRANCH  26  28
ATOM     28  O   UNL     1      34.861  -7.611 -22.442  0.00  0.00    -0.303 OA
ATOM     29  H   UNL     1      34.111  -7.083 -22.126  0.00  0.00    +0.222 HD
ENDBRANCH  26  28
BRANCH  26  30
ATOM     30  O   UNL     1      34.559  -7.062 -24.900  0.00  0.00    -0.303 OA
ATOM     31  H   UNL     1      34.953  -7.368 -25.732  0.00  0.00    +0.222 HD
ENDBRANCH  26  30
ENDBRANCH  25  26
ENDBRANCH  24  25
ENDBRANCH   5  24
TORSDOF 8
ENDMDL
