MODEL 1
REMARK VINA RESULT:      -8.2      0.000      0.000
REMARK  Name = 739358
REMARK  0 active torsions:
REMARK  status: ('A' for Active; 'I' for Inactive)
REMARK                            x       y       z     vdW  Elec       q    Type
REMARK                         _______ _______ _______ _____ _____    ______ ____
ROOT
ATOM      1  S   UNL     1      33.464 -14.495 -24.340  0.00  0.00    -0.052 S 
ATOM      2  O   UNL     1      34.688 -16.804 -25.729  0.00  0.00    -0.274 OA
ATOM      3  O   UNL     1      31.832 -12.399 -20.487  0.00  0.00    -0.275 OA
ATOM      4  N   UNL     1      35.562 -17.890 -23.966  0.00  0.00    -0.303 N 
ATOM      5  N   UNL     1      33.270 -14.722 -21.793  0.00  0.00    -0.388 NA
ATOM      6  N   UNL     1      32.307 -12.750 -22.776  0.00  0.00    -0.254 N 
ATOM      7  C   UNL     1      34.765 -18.195 -21.647  0.00  0.00    +0.028 C 
ATOM      8  C   UNL     1      34.346 -16.814 -21.172  0.00  0.00    +0.058 C 
ATOM      9  C   UNL     1      35.953 -18.119 -22.588  0.00  0.00    +0.090 C 
ATOM     10  C   UNL     1      33.949 -15.852 -22.241  0.00  0.00    +0.108 C 
ATOM     11  C   UNL     1      34.164 -15.903 -23.614  0.00  0.00    +0.179 C 
ATOM     12  C   UNL     1      34.802 -16.865 -24.500  0.00  0.00    +0.239 C 
ATOM     13  C   UNL     1      32.970 -13.948 -22.805  0.00  0.00    +0.213 C 
ATOM     14  C   UNL     1      31.784 -12.047 -21.661  0.00  0.00    +0.229 C 
ATOM     15  C   UNL     1      31.124 -10.749 -22.053  0.00  0.00    +0.095 C 
ATOM     16  H   UNL     1      35.882 -18.560 -24.613  0.00  0.00    +0.149 HD
ATOM     17  H   UNL     1      32.177 -12.315 -23.650  0.00  0.00    +0.158 HD
ENDROOT
TORSDOF 0
ENDMDL
MODEL 2
REMARK VINA RESULT:      -8.0      2.731      3.863
REMARK  Name = 739358
REMARK  0 active torsions:
REMARK  status: ('A' for Active; 'I' for Inactive)
REMARK                            x       y       z     vdW  Elec       q    Type
REMARK                         _______ _______ _______ _____ _____    ______ ____
ROOT
ATOM      1  S   UNL     1      33.879 -14.474 -22.749  0.00  0.00    -0.052 S 
ATOM      2  O   UNL     1      34.860 -15.403 -20.116  0.00  0.00    -0.274 OA
ATOM      3  O   UNL     1      33.394 -14.977 -27.376  0.00  0.00    -0.275 OA
ATOM      4  N   UNL     1      35.206 -17.574 -20.583  0.00  0.00    -0.303 N 
ATOM      5  N   UNL     1      34.254 -16.098 -24.697  0.00  0.00    -0.388 NA
ATOM      6  N   UNL     1      33.298 -13.960 -25.245  0.00  0.00    -0.254 N 
ATOM      7  C   UNL     1      36.014 -18.722 -22.617  0.00  0.00    +0.028 C 
ATOM      8  C   UNL     1      35.220 -18.128 -23.767  0.00  0.00    +0.058 C 
ATOM      9  C   UNL     1      35.179 -18.804 -21.352  0.00  0.00    +0.090 C 
ATOM     10  C   UNL     1      34.690 -16.751 -23.547  0.00  0.00    +0.108 C 
ATOM     11  C   UNL     1      34.554 -16.023 -22.371  0.00  0.00    +0.179 C 
ATOM     12  C   UNL     1      34.872 -16.290 -20.976  0.00  0.00    +0.239 C 
ATOM     13  C   UNL     1      33.812 -14.903 -24.395  0.00  0.00    +0.213 C 
ATOM     14  C   UNL     1      33.116 -14.030 -26.649  0.00  0.00    +0.229 C 
ATOM     15  C   UNL     1      32.511 -12.770 -27.218  0.00  0.00    +0.095 C 
ATOM     16  H   UNL     1      35.505 -17.666 -19.650  0.00  0.00    +0.149 HD
ATOM     17  H   UNL     1      33.017 -13.116 -24.822  0.00  0.00    +0.158 HD
ENDROOT
TORSDOF 0
ENDMDL
MODEL 3
REMARK VINA RESULT:      -7.8      2.022      2.571
REMARK  Name = 739358
REMARK  0 active torsions:
REMARK  status: ('A' for Active; 'I' for Inactive)
REMARK                            x       y       z     vdW  Elec       q    Type
REMARK                         _______ _______ _______ _____ _____    ______ ____
ROOT
ATOM      1  S   UNL     1      33.842 -15.376 -20.565  0.00  0.00    -0.052 S 
ATOM      2  O   UNL     1      35.569 -17.761 -20.859  0.00  0.00    -0.274 OA
ATOM      3  O   UNL     1      31.455 -11.773 -22.360  0.00  0.00    -0.275 OA
ATOM      4  N   UNL     1      35.228 -18.213 -23.034  0.00  0.00    -0.303 N 
ATOM      5  N   UNL     1      33.051 -14.315 -22.762  0.00  0.00    -0.388 NA
ATOM      6  N   UNL     1      32.437 -13.178 -20.733  0.00  0.00    -0.254 N 
ATOM      7  C   UNL     1      34.891 -16.750 -24.997  0.00  0.00    +0.028 C 
ATOM      8  C   UNL     1      33.851 -15.727 -24.574  0.00  0.00    +0.058 C 
ATOM      9  C   UNL     1      34.634 -18.100 -24.353  0.00  0.00    +0.090 C 
ATOM     10  C   UNL     1      33.761 -15.462 -23.108  0.00  0.00    +0.108 C 
ATOM     11  C   UNL     1      34.264 -16.188 -22.035  0.00  0.00    +0.179 C 
ATOM     12  C   UNL     1      35.047 -17.409 -21.923  0.00  0.00    +0.239 C 
ATOM     13  C   UNL     1      33.033 -14.174 -21.461  0.00  0.00    +0.213 C 
ATOM     14  C   UNL     1      31.699 -12.059 -21.192  0.00  0.00    +0.229 C 
ATOM     15  C   UNL     1      31.202 -11.190 -20.063  0.00  0.00    +0.095 C 
ATOM     16  H   UNL     1      35.848 -18.969 -22.913  0.00  0.00    +0.149 HD
ATOM     17  H   UNL     1      32.535 -13.250 -19.756  0.00  0.00    +0.158 HD
ENDROOT
TORSDOF 0
ENDMDL
MODEL 4
REMARK VINA RESULT:      -7.6     10.906     12.832
REMARK  Name = 739358
REMARK  0 active torsions:
REMARK  status: ('A' for Active; 'I' for Inactive)
REMARK                            x       y       z     vdW  Elec       q    Type
REMARK                         _______ _______ _______ _____ _____    ______ ____
ROOT
ATOM      1  S   UNL     1      34.515 -23.702 -15.706  0.00  0.00    -0.052 S 
ATOM      2  O   UNL     1      32.818 -22.625 -17.877  0.00  0.00    -0.274 OA
ATOM      3  O   UNL     1      35.196 -24.968 -11.252  0.00  0.00    -0.275 OA
ATOM      4  N   UNL     1      30.788 -22.928 -16.960  0.00  0.00    -0.303 N 
ATOM      5  N   UNL     1      33.333 -24.051 -13.457  0.00  0.00    -0.388 NA
ATOM      6  N   UNL     1      35.698 -24.485 -13.511  0.00  0.00    -0.254 N 
ATOM      7  C   UNL     1      29.980 -22.752 -14.631  0.00  0.00    +0.028 C 
ATOM      8  C   UNL     1      30.982 -23.522 -13.789  0.00  0.00    +0.058 C 
ATOM      9  C   UNL     1      29.803 -23.387 -15.999  0.00  0.00    +0.090 C 
ATOM     10  C   UNL     1      32.356 -23.637 -14.359  0.00  0.00    +0.108 C 
ATOM     11  C   UNL     1      32.810 -23.406 -15.652  0.00  0.00    +0.179 C 
ATOM     12  C   UNL     1      32.169 -22.969 -16.883  0.00  0.00    +0.239 C 
ATOM     13  C   UNL     1      34.496 -24.117 -14.054  0.00  0.00    +0.213 C 
ATOM     14  C   UNL     1      35.991 -24.882 -12.181  0.00  0.00    +0.229 C 
ATOM     15  C   UNL     1      37.450 -25.213 -11.984  0.00  0.00    +0.095 C 
ATOM     16  H   UNL     1      30.422 -22.530 -17.783  0.00  0.00    +0.149 HD
ATOM     17  H   UNL     1      36.465 -24.472 -14.128  0.00  0.00    +0.158 HD
ENDROOT
TORSDOF 0
ENDMDL
MODEL 5
REMARK VINA RESULT:      -7.3      8.051      9.728
REMARK  Name = 739358
REMARK  0 active torsions:
REMARK  status: ('A' for Active; 'I' for Inactive)
REMARK                            x       y       z     vdW  Elec       q    Type
REMARK                         _______ _______ _______ _____ _____    ______ ____
ROOT
ATOM      1  S   UNL     1      33.948 -23.269 -16.387  0.00  0.00    -0.052 S 
ATOM      2  O   UNL     1      36.749 -22.548 -17.011  0.00  0.00    -0.274 OA
ATOM      3  O   UNL     1      29.344 -22.962 -17.165  0.00  0.00    -0.275 OA
ATOM      4  N   UNL     1      36.485 -21.767 -19.103  0.00  0.00    -0.303 N 
ATOM      5  N   UNL     1      32.187 -22.333 -17.998  0.00  0.00    -0.388 NA
ATOM      6  N   UNL     1      31.367 -23.549 -16.092  0.00  0.00    -0.254 N 
ATOM      7  C   UNL     1      34.667 -20.478 -20.171  0.00  0.00    +0.028 C 
ATOM      8  C   UNL     1      33.379 -21.181 -19.779  0.00  0.00    +0.058 C 
ATOM      9  C   UNL     1      35.805 -21.467 -20.349  0.00  0.00    +0.090 C 
ATOM     10  C   UNL     1      33.429 -21.967 -18.512  0.00  0.00    +0.108 C 
ATOM     11  C   UNL     1      34.522 -22.402 -17.771  0.00  0.00    +0.179 C 
ATOM     12  C   UNL     1      35.962 -22.255 -17.917  0.00  0.00    +0.239 C 
ATOM     13  C   UNL     1      32.342 -23.014 -16.891  0.00  0.00    +0.213 C 
ATOM     14  C   UNL     1      29.959 -23.505 -16.254  0.00  0.00    +0.229 C 
ATOM     15  C   UNL     1      29.226 -24.225 -15.148  0.00  0.00    +0.095 C 
ATOM     16  H   UNL     1      37.455 -21.600 -19.099  0.00  0.00    +0.149 HD
ATOM     17  H   UNL     1      31.687 -24.032 -15.296  0.00  0.00    +0.158 HD
ENDROOT
TORSDOF 0
ENDMDL
MODEL 6
REMARK VINA RESULT:      -7.3      9.745     11.631
REMARK  Name = 739358
REMARK  0 active torsions:
REMARK  status: ('A' for Active; 'I' for Inactive)
REMARK                            x       y       z     vdW  Elec       q    Type
REMARK                         _______ _______ _______ _____ _____    ______ ____
ROOT
ATOM      1  S   UNL     1      33.767 -23.558 -15.586  0.00  0.00    -0.052 S 
ATOM      2  O   UNL     1      32.869 -24.930 -13.123  0.00  0.00    -0.274 OA
ATOM      3  O   UNL     1      32.987 -21.887 -19.887  0.00  0.00    -0.275 OA
ATOM      4  N   UNL     1      30.644 -24.702 -13.348  0.00  0.00    -0.303 N 
ATOM      5  N   UNL     1      31.936 -23.115 -17.326  0.00  0.00    -0.388 NA
ATOM      6  N   UNL     1      34.181 -22.515 -17.946  0.00  0.00    -0.254 N 
ATOM      7  C   UNL     1      29.168 -24.747 -15.330  0.00  0.00    +0.028 C 
ATOM      8  C   UNL     1      29.827 -23.840 -16.354  0.00  0.00    +0.058 C 
ATOM      9  C   UNL     1      29.392 -24.240 -13.916  0.00  0.00    +0.090 C 
ATOM     10  C   UNL     1      31.303 -23.671 -16.218  0.00  0.00    +0.108 C 
ATOM     11  C   UNL     1      32.143 -23.973 -15.151  0.00  0.00    +0.179 C 
ATOM     12  C   UNL     1      31.932 -24.554 -13.834  0.00  0.00    +0.239 C 
ATOM     13  C   UNL     1      33.222 -23.012 -17.104  0.00  0.00    +0.213 C 
ATOM     14  C   UNL     1      34.033 -21.991 -19.255  0.00  0.00    +0.229 C 
ATOM     15  C   UNL     1      35.344 -21.539 -19.850  0.00  0.00    +0.095 C 
ATOM     16  H   UNL     1      30.568 -25.191 -12.497  0.00  0.00    +0.149 HD
ATOM     17  H   UNL     1      35.100 -22.522 -17.594  0.00  0.00    +0.158 HD
ENDROOT
TORSDOF 0
ENDMDL
MODEL 7
REMARK VINA RESULT:      -7.2      2.476      5.696
REMARK  Name = 739358
REMARK  0 active torsions:
REMARK  status: ('A' for Active; 'I' for Inactive)
REMARK                            x       y       z     vdW  Elec       q    Type
REMARK                         _______ _______ _______ _____ _____    ______ ____
ROOT
ATOM      1  S   UNL     1      34.406 -14.846 -22.309  0.00  0.00    -0.052 S 
ATOM      2  O   UNL     1      33.593 -12.099 -23.050  0.00  0.00    -0.274 OA
ATOM      3  O   UNL     1      34.797 -19.417 -23.233  0.00  0.00    -0.275 OA
ATOM      4  N   UNL     1      33.433 -12.337 -25.279  0.00  0.00    -0.303 N 
ATOM      5  N   UNL     1      34.124 -16.609 -24.148  0.00  0.00    -0.388 NA
ATOM      6  N   UNL     1      34.862 -17.401 -22.001  0.00  0.00    -0.254 N 
ATOM      7  C   UNL     1      32.674 -14.215 -26.693  0.00  0.00    +0.028 C 
ATOM      8  C   UNL     1      33.375 -15.448 -26.151  0.00  0.00    +0.058 C 
ATOM      9  C   UNL     1      33.550 -12.982 -26.573  0.00  0.00    +0.090 C 
ATOM     10  C   UNL     1      33.783 -15.385 -24.717  0.00  0.00    +0.108 C 
ATOM     11  C   UNL     1      33.887 -14.291 -23.865  0.00  0.00    +0.179 C 
ATOM     12  C   UNL     1      33.636 -12.866 -24.017  0.00  0.00    +0.239 C 
ATOM     13  C   UNL     1      34.463 -16.443 -22.895  0.00  0.00    +0.213 C 
ATOM     14  C   UNL     1      35.009 -18.797 -22.196  0.00  0.00    +0.229 C 
ATOM     15  C   UNL     1      35.478 -19.510 -20.952  0.00  0.00    +0.095 C 
ATOM     16  H   UNL     1      33.171 -11.387 -25.302  0.00  0.00    +0.149 HD
ATOM     17  H   UNL     1      35.078 -17.074 -21.097  0.00  0.00    +0.158 HD
ENDROOT
TORSDOF 0
ENDMDL
MODEL 8
REMARK VINA RESULT:      -7.1      3.486      6.430
REMARK  Name = 739358
REMARK  0 active torsions:
REMARK  status: ('A' for Active; 'I' for Inactive)
REMARK                            x       y       z     vdW  Elec       q    Type
REMARK                         _______ _______ _______ _____ _____    ______ ____
ROOT
ATOM      1  S   UNL     1      35.332 -17.486 -20.866  0.00  0.00    -0.052 S 
ATOM      2  O   UNL     1      34.442 -15.056 -22.301  0.00  0.00    -0.274 OA
ATOM      3  O   UNL     1      36.011 -22.110 -20.622  0.00  0.00    -0.275 OA
ATOM      4  N   UNL     1      34.457 -15.832 -24.411  0.00  0.00    -0.303 N 
ATOM      5  N   UNL     1      35.270 -19.654 -22.233  0.00  0.00    -0.388 NA
ATOM      6  N   UNL     1      35.889 -19.857 -19.917  0.00  0.00    -0.254 N 
ATOM      7  C   UNL     1      33.894 -18.041 -25.366  0.00  0.00    +0.028 C 
ATOM      8  C   UNL     1      34.613 -19.059 -24.499  0.00  0.00    +0.058 C 
ATOM      9  C   UNL     1      34.698 -16.761 -25.499  0.00  0.00    +0.090 C 
ATOM     10  C   UNL     1      34.912 -18.627 -23.102  0.00  0.00    +0.108 C 
ATOM     11  C   UNL     1      34.901 -17.356 -22.538  0.00  0.00    +0.179 C 
ATOM     12  C   UNL     1      34.593 -16.029 -23.048  0.00  0.00    +0.239 C 
ATOM     13  C   UNL     1      35.509 -19.170 -21.040  0.00  0.00    +0.213 C 
ATOM     14  C   UNL     1      36.117 -21.247 -19.757  0.00  0.00    +0.229 C 
ATOM     15  C   UNL     1      36.529 -21.607 -18.351  0.00  0.00    +0.095 C 
ATOM     16  H   UNL     1      34.151 -14.936 -24.680  0.00  0.00    +0.149 HD
ATOM     17  H   UNL     1      36.022 -19.309 -19.110  0.00  0.00    +0.158 HD
ENDROOT
TORSDOF 0
ENDMDL
MODEL 9
REMARK VINA RESULT:      -7.1      9.299     10.992
REMARK  Name = 739358
REMARK  0 active torsions:
REMARK  status: ('A' for Active; 'I' for Inactive)
REMARK                            x       y       z     vdW  Elec       q    Type
REMARK                         _______ _______ _______ _____ _____    ______ ____
ROOT
ATOM      1  S   UNL     1      32.951 -23.134 -17.497  0.00  0.00    -0.052 S 
ATOM      2  O   UNL     1      35.124 -22.296 -19.323  0.00  0.00    -0.274 OA
ATOM      3  O   UNL     1      31.411 -24.619 -13.335  0.00  0.00    -0.275 OA
ATOM      4  N   UNL     1      36.720 -21.808 -17.817  0.00  0.00    -0.303 N 
ATOM      5  N   UNL     1      33.662 -23.580 -15.074  0.00  0.00    -0.388 NA
ATOM      6  N   UNL     1      31.366 -24.037 -15.626  0.00  0.00    -0.254 N 
ATOM      7  C   UNL     1      37.326 -22.839 -15.654  0.00  0.00    +0.028 C 
ATOM      8  C   UNL     1      36.020 -23.007 -14.898  0.00  0.00    +0.058 C 
ATOM      9  C   UNL     1      37.313 -21.587 -16.511  0.00  0.00    +0.090 C 
ATOM     10  C   UNL     1      34.792 -23.110 -15.739  0.00  0.00    +0.108 C 
ATOM     11  C   UNL     1      34.598 -22.798 -17.080  0.00  0.00    +0.179 C 
ATOM     12  C   UNL     1      35.466 -22.298 -18.135  0.00  0.00    +0.239 C 
ATOM     13  C   UNL     1      32.646 -23.633 -15.898  0.00  0.00    +0.213 C 
ATOM     14  C   UNL     1      30.818 -24.497 -14.402  0.00  0.00    +0.229 C 
ATOM     15  C   UNL     1      29.355 -24.845 -14.517  0.00  0.00    +0.095 C 
ATOM     16  H   UNL     1      37.292 -21.579 -18.585  0.00  0.00    +0.149 HD
ATOM     17  H   UNL     1      30.740 -24.004 -16.384  0.00  0.00    +0.158 HD
ENDROOT
TORSDOF 0
ENDMDL
