MODEL 1
REMARK VINA RESULT:     -10.1      0.000      0.000
REMARK  Name = 6852167
REMARK  6 active torsions:
REMARK  status: ('A' for Active; 'I' for Inactive)
REMARK    1  A    between atoms: C_2  and  S_19
REMARK    2  A    between atoms: C_3  and  C_12
REMARK    3  A    between atoms: S_19  and  N_22
REMARK    4  A    between atoms: N_22  and  C_24
REMARK    5  A    between atoms: C_24  and  C_25
REMARK    6  A    between atoms: C_25  and  O_26
REMARK                            x       y       z     vdW  Elec       q    Type
REMARK                         _______ _______ _______ _____ _____    ______ ____
ROOT
ATOM      1 CL   UNL     1      39.428 -24.297 -14.963  0.00  0.00    -0.081 Cl
ATOM      2  C   UNL     1      36.802 -25.039 -15.100  0.00  0.00    +0.132 C 
ATOM      3  C   UNL     1      35.067 -23.535 -15.850  0.00  0.00    -0.004 C 
ATOM      4  C   UNL     1      35.459 -24.788 -15.380  0.00  0.00    +0.018 C 
ATOM      5  C   UNL     1      37.753 -24.037 -15.292  0.00  0.00    +0.076 C 
ATOM      6  C   UNL     1      36.018 -22.533 -16.042  0.00  0.00    -0.002 C 
ATOM      7  C   UNL     1      37.361 -22.784 -15.762  0.00  0.00    +0.012 C 
ENDROOT
BRANCH   3  12
ATOM      8  S   UNL     1      32.525 -23.321 -14.871  0.00  0.00    -0.056 S 
ATOM      9  O   UNL     1      28.749 -22.313 -17.422  0.00  0.00    -0.275 OA
ATOM     10  N   UNL     1      31.681 -22.781 -17.254  0.00  0.00    -0.388 NA
ATOM     11  N   UNL     1      30.027 -22.837 -15.503  0.00  0.00    -0.254 N 
ATOM     12  C   UNL     1      33.678 -23.275 -16.139  0.00  0.00    +0.126 C 
ATOM     13  C   UNL     1      33.047 -22.974 -17.328  0.00  0.00    +0.103 C 
ATOM     14  C   UNL     1      31.296 -22.939 -16.007  0.00  0.00    +0.213 C 
ATOM     15  C   UNL     1      33.693 -22.841 -18.650  0.00  0.00    +0.063 C 
ATOM     16  C   UNL     1      28.857 -22.537 -16.221  0.00  0.00    +0.229 C 
ATOM     17  C   UNL     1      27.643 -22.513 -15.324  0.00  0.00    +0.095 C 
ATOM     18  H   UNL     1      29.924 -22.988 -14.536  0.00  0.00    +0.158 HD
ENDBRANCH   3  12
BRANCH   2  19
ATOM     19  S   UNL     1      37.237 -26.632 -14.514  0.00  0.00    +0.061 S 
ATOM     20  O   UNL     1      36.401 -27.616 -15.184  0.00  0.00    -0.153 OA
ATOM     21  O   UNL     1      38.685 -26.747 -14.591  0.00  0.00    -0.153 OA
BRANCH  19  22
ATOM     22  N   UNL     1      36.779 -26.550 -12.870  0.00  0.00    -0.177 NA
ATOM     23  H   UNL     1      37.265 -27.307 -12.391  0.00  0.00    +0.149 HD
BRANCH  22  24
ATOM     24  C   UNL     1      37.033 -25.326 -12.097  0.00  0.00    +0.123 C 
BRANCH  24  25
ATOM     25  C   UNL     1      35.714 -24.689 -11.702  0.00  0.00    +0.156 C 
BRANCH  25  26
ATOM     26  O   UNL     1      35.343 -25.136 -10.404  0.00  0.00    -0.380 OA
ATOM     27  H   UNL     1      34.564 -24.645 -10.102  0.00  0.00    +0.211 HD
ENDBRANCH  25  26
ENDBRANCH  24  25
ENDBRANCH  22  24
ENDBRANCH  19  22
ENDBRANCH   2  19
TORSDOF 6
ENDMDL
MODEL 2
REMARK VINA RESULT:      -9.7      7.504     10.562
REMARK  Name = 6852167
REMARK  6 active torsions:
REMARK  status: ('A' for Active; 'I' for Inactive)
REMARK    1  A    between atoms: C_2  and  S_19
REMARK    2  A    between atoms: C_3  and  C_12
REMARK    3  A    between atoms: S_19  and  N_22
REMARK    4  A    between atoms: N_22  and  C_24
REMARK    5  A    between atoms: C_24  and  C_25
REMARK    6  A    between atoms: C_25  and  O_26
REMARK                            x       y       z     vdW  Elec       q    Type
REMARK                         _______ _______ _______ _____ _____    ______ ____
ROOT
ATOM      1 CL   UNL     1      34.821 -16.084 -25.076  0.00  0.00    -0.081 Cl
ATOM      2  C   UNL     1      34.484 -16.817 -22.465  0.00  0.00    +0.132 C 
ATOM      3  C   UNL     1      34.460 -19.128 -21.760  0.00  0.00    -0.004 C 
ATOM      4  C   UNL     1      34.375 -17.770 -21.453  0.00  0.00    +0.018 C 
ATOM      5  C   UNL     1      34.678 -17.222 -23.786  0.00  0.00    +0.076 C 
ATOM      6  C   UNL     1      34.654 -19.532 -23.081  0.00  0.00    -0.002 C 
ATOM      7  C   UNL     1      34.762 -18.580 -24.094  0.00  0.00    +0.012 C 
ENDROOT
BRANCH   3  12
ATOM      8  S   UNL     1      32.800 -20.527 -20.102  0.00  0.00    -0.056 S 
ATOM      9  O   UNL     1      34.194 -23.674 -16.951  0.00  0.00    -0.275 OA
ATOM     10  N   UNL     1      34.859 -21.715 -19.087  0.00  0.00    -0.388 NA
ATOM     11  N   UNL     1      32.704 -22.328 -18.198  0.00  0.00    -0.254 N 
ATOM     12  C   UNL     1      34.347 -20.112 -20.713  0.00  0.00    +0.126 C 
ATOM     13  C   UNL     1      35.315 -20.842 -20.056  0.00  0.00    +0.103 C 
ATOM     14  C   UNL     1      33.548 -21.633 -19.025  0.00  0.00    +0.213 C 
ATOM     15  C   UNL     1      36.772 -20.774 -20.293  0.00  0.00    +0.063 C 
ATOM     16  C   UNL     1      33.067 -23.283 -17.234  0.00  0.00    +0.229 C 
ATOM     17  C   UNL     1      31.860 -23.834 -16.514  0.00  0.00    +0.095 C 
ATOM     18  H   UNL     1      31.743 -22.137 -18.291  0.00  0.00    +0.158 HD
ENDBRANCH   3  12
BRANCH   2  19
ATOM     19  S   UNL     1      34.373 -15.126 -22.020  0.00  0.00    +0.061 S 
ATOM     20  O   UNL     1      34.918 -14.963 -20.681  0.00  0.00    -0.153 OA
ATOM     21  O   UNL     1      34.923 -14.346 -23.119  0.00  0.00    -0.153 OA
BRANCH  19  22
ATOM     22  N   UNL     1      32.684 -14.878 -21.961  0.00  0.00    -0.177 NA
ATOM     23  H   UNL     1      32.285 -15.684 -21.479  0.00  0.00    +0.149 HD
BRANCH  22  24
ATOM     24  C   UNL     1      32.140 -13.680 -21.306  0.00  0.00    +0.123 C 
BRANCH  24  25
ATOM     25  C   UNL     1      32.018 -12.557 -22.319  0.00  0.00    +0.156 C 
BRANCH  25  26
ATOM     26  O   UNL     1      30.855 -11.788 -22.035  0.00  0.00    -0.380 OA
ATOM     27  H   UNL     1      30.444 -11.503 -22.865  0.00  0.00    +0.211 HD
ENDBRANCH  25  26
ENDBRANCH  24  25
ENDBRANCH  22  24
ENDBRANCH  19  22
ENDBRANCH   2  19
TORSDOF 6
ENDMDL
MODEL 3
REMARK VINA RESULT:      -9.7     10.817     12.774
REMARK  Name = 6852167
REMARK  6 active torsions:
REMARK  status: ('A' for Active; 'I' for Inactive)
REMARK    1  A    between atoms: C_2  and  S_19
REMARK    2  A    between atoms: C_3  and  C_12
REMARK    3  A    between atoms: S_19  and  N_22
REMARK    4  A    between atoms: N_22  and  C_24
REMARK    5  A    between atoms: C_24  and  C_25
REMARK    6  A    between atoms: C_25  and  O_26
REMARK                            x       y       z     vdW  Elec       q    Type
REMARK                         _______ _______ _______ _____ _____    ______ ____
ROOT
ATOM      1 CL   UNL     1      34.926 -18.797 -24.476  0.00  0.00    -0.081 Cl
ATOM      2  C   UNL     1      34.590 -16.635 -22.838  0.00  0.00    +0.132 C 
ATOM      3  C   UNL     1      33.736 -14.522 -23.639  0.00  0.00    -0.004 C 
ATOM      4  C   UNL     1      34.218 -15.313 -22.596  0.00  0.00    +0.018 C 
ATOM      5  C   UNL     1      34.480 -17.167 -24.123  0.00  0.00    +0.076 C 
ATOM      6  C   UNL     1      33.625 -15.054 -24.923  0.00  0.00    -0.002 C 
ATOM      7  C   UNL     1      33.998 -16.376 -25.166  0.00  0.00    +0.012 C 
ENDROOT
BRANCH   3  12
ATOM      8  S   UNL     1      33.879 -11.918 -24.450  0.00  0.00    -0.056 S 
ATOM      9  O   UNL     1      31.845  -8.322 -22.280  0.00  0.00    -0.275 OA
ATOM     10  N   UNL     1      32.406 -11.237 -22.438  0.00  0.00    -0.388 NA
ATOM     11  N   UNL     1      33.125  -9.466 -23.905  0.00  0.00    -0.254 N 
ATOM     12  C   UNL     1      33.351 -13.156 -23.388  0.00  0.00    +0.126 C 
ATOM     13  C   UNL     1      32.582 -12.606 -22.383  0.00  0.00    +0.103 C 
ATOM     14  C   UNL     1      33.044 -10.768 -23.487  0.00  0.00    +0.213 C 
ATOM     15  C   UNL     1      31.943 -13.341 -21.272  0.00  0.00    +0.063 C 
ATOM     16  C   UNL     1      32.536  -8.347 -23.293  0.00  0.00    +0.229 C 
ATOM     17  C   UNL     1      32.848  -7.074 -24.041  0.00  0.00    +0.095 C 
ATOM     18  H   UNL     1      33.651  -9.297 -24.719  0.00  0.00    +0.158 HD
ENDBRANCH   3  12
BRANCH   2  19
ATOM     19  S   UNL     1      35.187 -17.583 -21.490  0.00  0.00    +0.061 S 
ATOM     20  O   UNL     1      36.372 -18.307 -21.923  0.00  0.00    -0.153 OA
ATOM     21  O   UNL     1      35.265 -16.701 -20.335  0.00  0.00    -0.153 OA
BRANCH  19  22
ATOM     22  N   UNL     1      33.919 -18.700 -21.244  0.00  0.00    -0.177 NA
ATOM     23  H   UNL     1      33.492 -18.865 -22.155  0.00  0.00    +0.149 HD
BRANCH  22  24
ATOM     24  C   UNL     1      34.204 -20.019 -20.663  0.00  0.00    +0.123 C 
BRANCH  24  25
ATOM     25  C   UNL     1      32.971 -20.540 -19.949  0.00  0.00    +0.156 C 
BRANCH  25  26
ATOM     26  O   UNL     1      32.996 -21.962 -19.936  0.00  0.00    -0.380 OA
ATOM     27  H   UNL     1      33.828 -22.274 -20.323  0.00  0.00    +0.211 HD
ENDBRANCH  25  26
ENDBRANCH  24  25
ENDBRANCH  22  24
ENDBRANCH  19  22
ENDBRANCH   2  19
TORSDOF 6
ENDMDL
MODEL 4
REMARK VINA RESULT:      -9.3      6.780      8.436
REMARK  Name = 6852167
REMARK  6 active torsions:
REMARK  status: ('A' for Active; 'I' for Inactive)
REMARK    1  A    between atoms: C_2  and  S_19
REMARK    2  A    between atoms: C_3  and  C_12
REMARK    3  A    between atoms: S_19  and  N_22
REMARK    4  A    between atoms: N_22  and  C_24
REMARK    5  A    between atoms: C_24  and  C_25
REMARK    6  A    between atoms: C_25  and  O_26
REMARK                            x       y       z     vdW  Elec       q    Type
REMARK                         _______ _______ _______ _____ _____    ______ ____
ROOT
ATOM      1 CL   UNL     1      36.917 -21.982 -18.100  0.00  0.00    -0.081 Cl
ATOM      2  C   UNL     1      35.032 -21.088 -19.865  0.00  0.00    +0.132 C 
ATOM      3  C   UNL     1      35.475 -19.318 -21.448  0.00  0.00    -0.004 C 
ATOM      4  C   UNL     1      34.603 -20.258 -20.900  0.00  0.00    +0.018 C 
ATOM      5  C   UNL     1      36.335 -20.978 -19.378  0.00  0.00    +0.076 C 
ATOM      6  C   UNL     1      36.777 -19.209 -20.962  0.00  0.00    -0.002 C 
ATOM      7  C   UNL     1      37.207 -20.038 -19.926  0.00  0.00    +0.012 C 
ENDROOT
BRANCH   3  12
ATOM      8  S   UNL     1      34.677 -16.814 -22.194  0.00  0.00    -0.056 S 
ATOM      9  O   UNL     1      33.445 -15.574 -26.521  0.00  0.00    -0.275 OA
ATOM     10  N   UNL     1      34.382 -17.659 -24.619  0.00  0.00    -0.388 NA
ATOM     11  N   UNL     1      33.874 -15.339 -24.208  0.00  0.00    -0.254 N 
ATOM     12  C   UNL     1      35.030 -18.460 -22.518  0.00  0.00    +0.126 C 
ATOM     13  C   UNL     1      34.816 -18.725 -23.855  0.00  0.00    +0.103 C 
ATOM     14  C   UNL     1      34.274 -16.599 -23.848  0.00  0.00    +0.213 C 
ATOM     15  C   UNL     1      35.007 -20.025 -24.529  0.00  0.00    +0.063 C 
ATOM     16  C   UNL     1      33.493 -14.911 -25.490  0.00  0.00    +0.229 C 
ATOM     17  C   UNL     1      33.114 -13.450 -25.500  0.00  0.00    +0.095 C 
ATOM     18  H   UNL     1      33.853 -14.664 -23.493  0.00  0.00    +0.158 HD
ENDBRANCH   3  12
BRANCH   2  19
ATOM     19  S   UNL     1      33.894 -22.252 -19.216  0.00  0.00    +0.061 S 
ATOM     20  O   UNL     1      32.561 -21.673 -19.268  0.00  0.00    -0.153 OA
ATOM     21  O   UNL     1      34.150 -23.527 -19.870  0.00  0.00    -0.153 OA
BRANCH  19  22
ATOM     22  N   UNL     1      34.383 -22.364 -17.584  0.00  0.00    -0.177 NA
ATOM     23  H   UNL     1      34.177 -21.463 -17.153  0.00  0.00    +0.149 HD
BRANCH  22  24
ATOM     24  C   UNL     1      33.802 -23.395 -16.712  0.00  0.00    +0.123 C 
BRANCH  24  25
ATOM     25  C   UNL     1      34.698 -23.607 -15.506  0.00  0.00    +0.156 C 
BRANCH  25  26
ATOM     26  O   UNL     1      35.556 -24.716 -15.743  0.00  0.00    -0.380 OA
ATOM     27  H   UNL     1      36.468 -24.404 -15.844  0.00  0.00    +0.211 HD
ENDBRANCH  25  26
ENDBRANCH  24  25
ENDBRANCH  22  24
ENDBRANCH  19  22
ENDBRANCH   2  19
TORSDOF 6
ENDMDL
MODEL 5
REMARK VINA RESULT:      -9.2     12.827     15.672
REMARK  Name = 6852167
REMARK  6 active torsions:
REMARK  status: ('A' for Active; 'I' for Inactive)
REMARK    1  A    between atoms: C_2  and  S_19
REMARK    2  A    between atoms: C_3  and  C_12
REMARK    3  A    between atoms: S_19  and  N_22
REMARK    4  A    between atoms: N_22  and  C_24
REMARK    5  A    between atoms: C_24  and  C_25
REMARK    6  A    between atoms: C_25  and  O_26
REMARK                            x       y       z     vdW  Elec       q    Type
REMARK                         _______ _______ _______ _____ _____    ______ ____
ROOT
ATOM      1 CL   UNL     1      33.897  -7.255 -23.762  0.00  0.00    -0.081 Cl
ATOM      2  C   UNL     1      32.959  -9.779 -23.292  0.00  0.00    +0.132 C 
ATOM      3  C   UNL     1      33.874 -11.727 -24.388  0.00  0.00    -0.004 C 
ATOM      4  C   UNL     1      32.965 -11.158 -23.496  0.00  0.00    +0.018 C 
ATOM      5  C   UNL     1      33.862  -8.968 -23.980  0.00  0.00    +0.076 C 
ATOM      6  C   UNL     1      34.777 -10.917 -25.075  0.00  0.00    -0.002 C 
ATOM      7  C   UNL     1      34.770  -9.537 -24.872  0.00  0.00    +0.012 C 
ENDROOT
BRANCH   3  12
ATOM      8  S   UNL     1      34.388 -14.196 -23.336  0.00  0.00    -0.056 S 
ATOM      9  O   UNL     1      33.820 -18.240 -25.595  0.00  0.00    -0.275 OA
ATOM     10  N   UNL     1      33.657 -15.271 -25.570  0.00  0.00    -0.388 NA
ATOM     11  N   UNL     1      34.364 -16.772 -23.823  0.00  0.00    -0.254 N 
ATOM     12  C   UNL     1      33.880 -13.154 -24.599  0.00  0.00    +0.126 C 
ATOM     13  C   UNL     1      33.531 -13.901 -25.704  0.00  0.00    +0.103 C 
ATOM     14  C   UNL     1      34.101 -15.541 -24.363  0.00  0.00    +0.213 C 
ATOM     15  C   UNL     1      33.042 -13.376 -26.995  0.00  0.00    +0.063 C 
ATOM     16  C   UNL     1      34.212 -18.018 -24.455  0.00  0.00    +0.229 C 
ATOM     17  C   UNL     1      34.604 -19.156 -23.544  0.00  0.00    +0.095 C 
ATOM     18  H   UNL     1      34.693 -16.785 -22.896  0.00  0.00    +0.158 HD
ENDBRANCH   3  12
BRANCH   2  19
ATOM     19  S   UNL     1      31.797  -9.119 -22.157  0.00  0.00    +0.061 S 
ATOM     20  O   UNL     1      32.523  -8.522 -21.047  0.00  0.00    -0.153 OA
ATOM     21  O   UNL     1      30.853  -8.313 -22.916  0.00  0.00    -0.153 OA
BRANCH  19  22
ATOM     22  N   UNL     1      30.998 -10.523 -21.601  0.00  0.00    -0.177 NA
ATOM     23  H   UNL     1      30.922 -11.153 -22.399  0.00  0.00    +0.149 HD
BRANCH  22  24
ATOM     24  C   UNL     1      31.571 -11.304 -20.496  0.00  0.00    +0.123 C 
BRANCH  24  25
ATOM     25  C   UNL     1      31.122 -10.717 -19.170  0.00  0.00    +0.156 C 
BRANCH  25  26
ATOM     26  O   UNL     1      32.165  -9.916 -18.630  0.00  0.00    -0.380 OA
ATOM     27  H   UNL     1      33.001 -10.135 -19.069  0.00  0.00    +0.211 HD
ENDBRANCH  25  26
ENDBRANCH  24  25
ENDBRANCH  22  24
ENDBRANCH  19  22
ENDBRANCH   2  19
TORSDOF 6
ENDMDL
MODEL 6
REMARK VINA RESULT:      -9.1      7.750     11.066
REMARK  Name = 6852167
REMARK  6 active torsions:
REMARK  status: ('A' for Active; 'I' for Inactive)
REMARK    1  A    between atoms: C_2  and  S_19
REMARK    2  A    between atoms: C_3  and  C_12
REMARK    3  A    between atoms: S_19  and  N_22
REMARK    4  A    between atoms: N_22  and  C_24
REMARK    5  A    between atoms: C_24  and  C_25
REMARK    6  A    between atoms: C_25  and  O_26
REMARK                            x       y       z     vdW  Elec       q    Type
REMARK                         _______ _______ _______ _____ _____    ______ ____
ROOT
ATOM      1 CL   UNL     1      34.328 -16.211 -25.565  0.00  0.00    -0.081 Cl
ATOM      2  C   UNL     1      34.504 -16.691 -22.881  0.00  0.00    +0.132 C 
ATOM      3  C   UNL     1      34.899 -18.898 -21.982  0.00  0.00    -0.004 C 
ATOM      4  C   UNL     1      34.682 -17.535 -21.785  0.00  0.00    +0.018 C 
ATOM      5  C   UNL     1      34.542 -17.212 -24.175  0.00  0.00    +0.076 C 
ATOM      6  C   UNL     1      34.938 -19.418 -23.276  0.00  0.00    -0.002 C 
ATOM      7  C   UNL     1      34.758 -18.575 -24.372  0.00  0.00    +0.012 C 
ENDROOT
BRANCH   3  12
ATOM      8  S   UNL     1      36.638 -19.928 -20.144  0.00  0.00    -0.056 S 
ATOM      9  O   UNL     1      35.499 -22.966 -16.789  0.00  0.00    -0.275 OA
ATOM     10  N   UNL     1      34.698 -21.289 -19.110  0.00  0.00    -0.388 NA
ATOM     11  N   UNL     1      36.866 -21.541 -18.089  0.00  0.00    -0.254 N 
ATOM     12  C   UNL     1      35.084 -19.771 -20.849  0.00  0.00    +0.126 C 
ATOM     13  C   UNL     1      34.184 -20.565 -20.168  0.00  0.00    +0.103 C 
ATOM     14  C   UNL     1      35.983 -21.031 -19.004  0.00  0.00    +0.213 C 
ATOM     15  C   UNL     1      32.744 -20.706 -20.467  0.00  0.00    +0.063 C 
ATOM     16  C   UNL     1      36.581 -22.455 -17.061  0.00  0.00    +0.229 C 
ATOM     17  C   UNL     1      37.811 -22.788 -16.253  0.00  0.00    +0.095 C 
ATOM     18  H   UNL     1      37.799 -21.234 -18.159  0.00  0.00    +0.158 HD
ENDBRANCH   3  12
BRANCH   2  19
ATOM     19  S   UNL     1      34.238 -14.987 -22.573  0.00  0.00    +0.061 S 
ATOM     20  O   UNL     1      35.179 -14.549 -21.554  0.00  0.00    -0.153 OA
ATOM     21  O   UNL     1      34.205 -14.309 -23.860  0.00  0.00    -0.153 OA
BRANCH  19  22
ATOM     22  N   UNL     1      32.664 -14.980 -21.909  0.00  0.00    -0.177 NA
ATOM     23  H   UNL     1      32.507 -15.909 -21.518  0.00  0.00    +0.149 HD
BRANCH  22  24
ATOM     24  C   UNL     1      32.314 -14.013 -20.859  0.00  0.00    +0.123 C 
BRANCH  24  25
ATOM     25  C   UNL     1      32.024 -12.662 -21.487  0.00  0.00    +0.156 C 
BRANCH  25  26
ATOM     26  O   UNL     1      31.693 -12.840 -22.859  0.00  0.00    -0.380 OA
ATOM     27  H   UNL     1      30.744 -12.684 -22.986  0.00  0.00    +0.211 HD
ENDBRANCH  25  26
ENDBRANCH  24  25
ENDBRANCH  22  24
ENDBRANCH  19  22
ENDBRANCH   2  19
TORSDOF 6
ENDMDL
MODEL 7
REMARK VINA RESULT:      -9.1      1.419      2.475
REMARK  Name = 6852167
REMARK  6 active torsions:
REMARK  status: ('A' for Active; 'I' for Inactive)
REMARK    1  A    between atoms: C_2  and  S_19
REMARK    2  A    between atoms: C_3  and  C_12
REMARK    3  A    between atoms: S_19  and  N_22
REMARK    4  A    between atoms: N_22  and  C_24
REMARK    5  A    between atoms: C_24  and  C_25
REMARK    6  A    between atoms: C_25  and  O_26
REMARK                            x       y       z     vdW  Elec       q    Type
REMARK                         _______ _______ _______ _____ _____    ______ ____
ROOT
ATOM      1 CL   UNL     1      38.746 -23.669 -13.609  0.00  0.00    -0.081 Cl
ATOM      2  C   UNL     1      36.042 -23.994 -13.389  0.00  0.00    +0.132 C 
ATOM      3  C   UNL     1      34.501 -23.222 -15.082  0.00  0.00    -0.004 C 
ATOM      4  C   UNL     1      34.737 -23.848 -13.858  0.00  0.00    +0.018 C 
ATOM      5  C   UNL     1      37.112 -23.513 -14.144  0.00  0.00    +0.076 C 
ATOM      6  C   UNL     1      35.571 -22.742 -15.837  0.00  0.00    -0.002 C 
ATOM      7  C   UNL     1      36.877 -22.886 -15.367  0.00  0.00    +0.012 C 
ENDROOT
BRANCH   3  12
ATOM      8  S   UNL     1      31.863 -22.901 -14.450  0.00  0.00    -0.056 S 
ATOM      9  O   UNL     1      28.391 -22.548 -17.548  0.00  0.00    -0.275 OA
ATOM     10  N   UNL     1      31.289 -22.876 -16.970  0.00  0.00    -0.388 NA
ATOM     11  N   UNL     1      29.447 -22.635 -15.435  0.00  0.00    -0.254 N 
ATOM     12  C   UNL     1      33.152 -23.071 -15.567  0.00  0.00    +0.126 C 
ATOM     13  C   UNL     1      32.657 -23.035 -16.854  0.00  0.00    +0.103 C 
ATOM     14  C   UNL     1      30.767 -22.795 -15.767  0.00  0.00    +0.213 C 
ATOM     15  C   UNL     1      33.447 -23.148 -18.097  0.00  0.00    +0.063 C 
ATOM     16  C   UNL     1      28.364 -22.524 -16.322  0.00  0.00    +0.229 C 
ATOM     17  C   UNL     1      27.056 -22.361 -15.587  0.00  0.00    +0.095 C 
ATOM     18  H   UNL     1      29.237 -22.593 -14.475  0.00  0.00    +0.158 HD
ENDBRANCH   3  12
BRANCH   2  19
ATOM     19  S   UNL     1      36.278 -24.791 -11.846  0.00  0.00    +0.061 S 
ATOM     20  O   UNL     1      37.204 -23.997 -11.053  0.00  0.00    -0.153 OA
ATOM     21  O   UNL     1      34.963 -25.108 -11.311  0.00  0.00    -0.153 OA
BRANCH  19  22
ATOM     22  N   UNL     1      37.051 -26.243 -12.304  0.00  0.00    -0.177 NA
ATOM     23  H   UNL     1      36.853 -26.925 -11.572  0.00  0.00    +0.149 HD
BRANCH  22  24
ATOM     24  C   UNL     1      36.713 -26.883 -13.583  0.00  0.00    +0.123 C 
BRANCH  24  25
ATOM     25  C   UNL     1      37.924 -26.867 -14.497  0.00  0.00    +0.156 C 
BRANCH  25  26
ATOM     26  O   UNL     1      37.520 -26.513 -15.813  0.00  0.00    -0.380 OA
ATOM     27  H   UNL     1      36.618 -26.831 -15.972  0.00  0.00    +0.211 HD
ENDBRANCH  25  26
ENDBRANCH  24  25
ENDBRANCH  22  24
ENDBRANCH  19  22
ENDBRANCH   2  19
TORSDOF 6
ENDMDL
MODEL 8
REMARK VINA RESULT:      -9.0      3.260      7.543
REMARK  Name = 6852167
REMARK  6 active torsions:
REMARK  status: ('A' for Active; 'I' for Inactive)
REMARK    1  A    between atoms: C_2  and  S_19
REMARK    2  A    between atoms: C_3  and  C_12
REMARK    3  A    between atoms: S_19  and  N_22
REMARK    4  A    between atoms: N_22  and  C_24
REMARK    5  A    between atoms: C_24  and  C_25
REMARK    6  A    between atoms: C_25  and  O_26
REMARK                            x       y       z     vdW  Elec       q    Type
REMARK                         _______ _______ _______ _____ _____    ______ ____
ROOT
ATOM      1 CL   UNL     1      30.349 -22.624 -16.847  0.00  0.00    -0.081 Cl
ATOM      2  C   UNL     1      32.391 -23.285 -15.156  0.00  0.00    +0.132 C 
ATOM      3  C   UNL     1      34.672 -23.529 -15.912  0.00  0.00    -0.004 C 
ATOM      4  C   UNL     1      33.731 -23.562 -14.884  0.00  0.00    +0.018 C 
ATOM      5  C   UNL     1      31.993 -22.976 -16.457  0.00  0.00    +0.076 C 
ATOM      6  C   UNL     1      34.275 -23.220 -17.212  0.00  0.00    -0.002 C 
ATOM      7  C   UNL     1      32.935 -22.944 -17.485  0.00  0.00    +0.012 C 
ENDROOT
BRANCH   3  12
ATOM      8  S   UNL     1      36.492 -25.337 -14.971  0.00  0.00    -0.056 S 
ATOM      9  O   UNL     1      41.093 -24.612 -14.700  0.00  0.00    -0.275 OA
ATOM     10  N   UNL     1      38.381 -23.631 -15.422  0.00  0.00    -0.388 NA
ATOM     11  N   UNL     1      39.036 -25.757 -14.494  0.00  0.00    -0.254 N 
ATOM     12  C   UNL     1      36.057 -23.816 -15.630  0.00  0.00    +0.126 C 
ATOM     13  C   UNL     1      37.188 -23.045 -15.801  0.00  0.00    +0.103 C 
ATOM     14  C   UNL     1      38.135 -24.841 -14.970  0.00  0.00    +0.213 C 
ATOM     15  C   UNL     1      37.236 -21.672 -16.343  0.00  0.00    +0.063 C 
ATOM     16  C   UNL     1      40.427 -25.593 -14.390  0.00  0.00    +0.229 C 
ATOM     17  C   UNL     1      41.091 -26.821 -13.816  0.00  0.00    +0.095 C 
ATOM     18  H   UNL     1      38.670 -26.620 -14.195  0.00  0.00    +0.158 HD
ENDBRANCH   3  12
BRANCH   2  19
ATOM     19  S   UNL     1      31.252 -23.338 -13.825  0.00  0.00    +0.061 S 
ATOM     20  O   UNL     1      31.957 -22.992 -12.600  0.00  0.00    -0.153 OA
ATOM     21  O   UNL     1      30.080 -22.572 -14.221  0.00  0.00    -0.153 OA
BRANCH  19  22
ATOM     22  N   UNL     1      30.835 -24.993 -13.772  0.00  0.00    -0.177 NA
ATOM     23  H   UNL     1      30.232 -25.118 -12.959  0.00  0.00    +0.149 HD
BRANCH  22  24
ATOM     24  C   UNL     1      30.145 -25.614 -14.912  0.00  0.00    +0.123 C 
BRANCH  24  25
ATOM     25  C   UNL     1      28.644 -25.524 -14.710  0.00  0.00    +0.156 C 
BRANCH  25  26
ATOM     26  O   UNL     1      28.151 -24.349 -15.341  0.00  0.00    -0.380 OA
ATOM     27  H   UNL     1      27.462 -24.588 -15.980  0.00  0.00    +0.211 HD
ENDBRANCH  25  26
ENDBRANCH  24  25
ENDBRANCH  22  24
ENDBRANCH  19  22
ENDBRANCH   2  19
TORSDOF 6
ENDMDL
MODEL 9
REMARK VINA RESULT:      -9.0      8.605     11.791
REMARK  Name = 6852167
REMARK  6 active torsions:
REMARK  status: ('A' for Active; 'I' for Inactive)
REMARK    1  A    between atoms: C_2  and  S_19
REMARK    2  A    between atoms: C_3  and  C_12
REMARK    3  A    between atoms: S_19  and  N_22
REMARK    4  A    between atoms: N_22  and  C_24
REMARK    5  A    between atoms: C_24  and  C_25
REMARK    6  A    between atoms: C_25  and  O_26
REMARK                            x       y       z     vdW  Elec       q    Type
REMARK                         _______ _______ _______ _____ _____    ______ ____
ROOT
ATOM      1 CL   UNL     1      34.036 -15.282 -25.669  0.00  0.00    -0.081 Cl
ATOM      2  C   UNL     1      33.992 -16.069 -23.053  0.00  0.00    +0.132 C 
ATOM      3  C   UNL     1      34.452 -18.342 -22.375  0.00  0.00    -0.004 C 
ATOM      4  C   UNL     1      34.125 -17.026 -22.047  0.00  0.00    +0.018 C 
ATOM      5  C   UNL     1      34.187 -16.428 -24.387  0.00  0.00    +0.076 C 
ATOM      6  C   UNL     1      34.648 -18.700 -23.708  0.00  0.00    -0.002 C 
ATOM      7  C   UNL     1      34.514 -17.743 -24.714  0.00  0.00    +0.012 C 
ENDROOT
BRANCH   3  12
ATOM      8  S   UNL     1      33.195 -20.123 -20.729  0.00  0.00    -0.056 S 
ATOM      9  O   UNL     1      35.333 -22.844 -17.598  0.00  0.00    -0.275 OA
ATOM     10  N   UNL     1      35.486 -20.766 -19.719  0.00  0.00    -0.388 NA
ATOM     11  N   UNL     1      33.554 -21.904 -18.838  0.00  0.00    -0.254 N 
ATOM     12  C   UNL     1      34.589 -19.331 -21.335  0.00  0.00    +0.126 C 
ATOM     13  C   UNL     1      35.710 -19.801 -20.681  0.00  0.00    +0.103 C 
ATOM     14  C   UNL     1      34.197 -21.015 -19.658  0.00  0.00    +0.213 C 
ATOM     15  C   UNL     1      37.103 -19.369 -20.916  0.00  0.00    +0.063 C 
ATOM     16  C   UNL     1      34.144 -22.745 -17.880  0.00  0.00    +0.229 C 
ATOM     17  C   UNL     1      33.113 -23.585 -17.165  0.00  0.00    +0.095 C 
ATOM     18  H   UNL     1      32.575 -21.959 -18.930  0.00  0.00    +0.158 HD
ENDBRANCH   3  12
BRANCH   2  19
ATOM     19  S   UNL     1      33.582 -14.431 -22.582  0.00  0.00    +0.061 S 
ATOM     20  O   UNL     1      32.168 -14.388 -22.244  0.00  0.00    -0.153 OA
ATOM     21  O   UNL     1      34.568 -13.996 -21.605  0.00  0.00    -0.153 OA
BRANCH  19  22
ATOM     22  N   UNL     1      33.828 -13.566 -24.034  0.00  0.00    -0.177 NA
ATOM     23  H   UNL     1      33.203 -13.974 -24.729  0.00  0.00    +0.149 HD
BRANCH  22  24
ATOM     24  C   UNL     1      33.611 -12.113 -24.069  0.00  0.00    +0.123 C 
BRANCH  24  25
ATOM     25  C   UNL     1      34.328 -11.519 -25.267  0.00  0.00    +0.156 C 
BRANCH  25  26
ATOM     26  O   UNL     1      35.201 -10.485 -24.831  0.00  0.00    -0.380 OA
ATOM     27  H   UNL     1      35.771 -10.211 -25.566  0.00  0.00    +0.211 HD
ENDBRANCH  25  26
ENDBRANCH  24  25
ENDBRANCH  22  24
ENDBRANCH  19  22
ENDBRANCH   2  19
TORSDOF 6
ENDMDL
