MODEL 1
REMARK VINA RESULT:      -5.7      0.000      0.000
REMARK  Name = 1014
REMARK  6 active torsions:
REMARK  status: ('A' for Active; 'I' for Inactive)
REMARK    1  A    between atoms: O_1  and  P_2
REMARK    2  A    between atoms: O_1  and  C_8
REMARK    3  A    between atoms: P_2  and  O_4
REMARK    4  A    between atoms: P_2  and  O_6
REMARK    5  A    between atoms: C_8  and  C_9
REMARK    6  A    between atoms: C_9  and  N_10
REMARK                            x       y       z     vdW  Elec       q    Type
REMARK                         _______ _______ _______ _____ _____    ______ ____
ROOT
ATOM      1  O   UNL     1      38.784 -26.873 -14.519  0.00  0.00    -0.276 OA
ENDROOT
BRANCH   1   2
ATOM      2  P   UNL     1      40.058 -25.877 -14.553  0.00  0.00    +0.473 P 
ATOM      3  O   UNL     1      39.893 -24.606 -13.772  0.00  0.00    -0.228 OA
BRANCH   2   4
ATOM      4  O   UNL     1      40.355 -25.685 -16.132  0.00  0.00    -0.303 OA
ATOM      5  H   UNL     1      39.709 -26.194 -16.646  0.00  0.00    +0.222 HD
ENDBRANCH   2   4
BRANCH   2   6
ATOM      6  O   UNL     1      41.269 -26.830 -14.061  0.00  0.00    -0.303 OA
ATOM      7  H   UNL     1      41.120 -27.734 -14.379  0.00  0.00    +0.222 HD
ENDBRANCH   2   6
ENDBRANCH   1   2
BRANCH   1   8
ATOM      8  C   UNL     1      37.583 -26.411 -13.917  0.00  0.00    +0.132 C 
BRANCH   8   9
ATOM      9  C   UNL     1      36.631 -25.922 -14.991  0.00  0.00    -0.040 C 
BRANCH   9  10
ATOM     10  N   UNL     1      36.190 -24.504 -14.664  0.00  0.00    +0.387 N 
ATOM     11  C   UNL     1      37.018 -23.515 -15.474  0.00  0.00    -0.096 C 
ATOM     12  C   UNL     1      34.718 -24.338 -15.013  0.00  0.00    -0.096 C 
ATOM     13  C   UNL     1      36.393 -24.238 -13.179  0.00  0.00    -0.096 C 
ENDBRANCH   9  10
ENDBRANCH   8   9
ENDBRANCH   1   8
TORSDOF 6
ENDMDL
MODEL 2
REMARK VINA RESULT:      -5.6      1.118      1.938
REMARK  Name = 1014
REMARK  6 active torsions:
REMARK  status: ('A' for Active; 'I' for Inactive)
REMARK    1  A    between atoms: O_1  and  P_2
REMARK    2  A    between atoms: O_1  and  C_8
REMARK    3  A    between atoms: P_2  and  O_4
REMARK    4  A    between atoms: P_2  and  O_6
REMARK    5  A    between atoms: C_8  and  C_9
REMARK    6  A    between atoms: C_9  and  N_10
REMARK                            x       y       z     vdW  Elec       q    Type
REMARK                         _______ _______ _______ _____ _____    ______ ____
ROOT
ATOM      1  O   UNL     1      38.862 -26.825 -14.378  0.00  0.00    -0.276 OA
ENDROOT
BRANCH   1   2
ATOM      2  P   UNL     1      40.214 -25.956 -14.559  0.00  0.00    +0.473 P 
ATOM      3  O   UNL     1      40.207 -24.619 -13.875  0.00  0.00    -0.228 OA
BRANCH   2   4
ATOM      4  O   UNL     1      40.433 -25.912 -16.161  0.00  0.00    -0.303 OA
ATOM      5  H   UNL     1      39.816 -25.274 -16.553  0.00  0.00    +0.222 HD
ENDBRANCH   2   4
BRANCH   2   6
ATOM      6  O   UNL     1      41.363 -26.975 -14.054  0.00  0.00    -0.303 OA
ATOM      7  H   UNL     1      41.197 -27.858 -14.420  0.00  0.00    +0.222 HD
ENDBRANCH   2   6
ENDBRANCH   1   2
BRANCH   1   8
ATOM      8  C   UNL     1      37.613 -26.148 -14.429  0.00  0.00    +0.132 C 
BRANCH   8   9
ATOM      9  C   UNL     1      37.101 -25.921 -13.020  0.00  0.00    -0.040 C 
BRANCH   9  10
ATOM     10  N   UNL     1      36.655 -24.474 -12.874  0.00  0.00    +0.387 N 
ATOM     11  C   UNL     1      35.203 -24.433 -12.420  0.00  0.00    -0.096 C 
ATOM     12  C   UNL     1      37.529 -23.776 -11.842  0.00  0.00    -0.096 C 
ATOM     13  C   UNL     1      36.786 -23.764 -14.215  0.00  0.00    -0.096 C 
ENDBRANCH   9  10
ENDBRANCH   8   9
ENDBRANCH   1   8
TORSDOF 6
ENDMDL
MODEL 3
REMARK VINA RESULT:      -5.6      1.389      1.974
REMARK  Name = 1014
REMARK  6 active torsions:
REMARK  status: ('A' for Active; 'I' for Inactive)
REMARK    1  A    between atoms: O_1  and  P_2
REMARK    2  A    between atoms: O_1  and  C_8
REMARK    3  A    between atoms: P_2  and  O_4
REMARK    4  A    between atoms: P_2  and  O_6
REMARK    5  A    between atoms: C_8  and  C_9
REMARK    6  A    between atoms: C_9  and  N_10
REMARK                            x       y       z     vdW  Elec       q    Type
REMARK                         _______ _______ _______ _____ _____    ______ ____
ROOT
ATOM      1  O   UNL     1      38.834 -26.495 -14.413  0.00  0.00    -0.276 OA
ENDROOT
BRANCH   1   2
ATOM      2  P   UNL     1      39.874 -25.342 -14.864  0.00  0.00    +0.473 P 
ATOM      3  O   UNL     1      40.808 -24.871 -13.788  0.00  0.00    -0.228 OA
BRANCH   2   4
ATOM      4  O   UNL     1      38.928 -24.199 -15.507  0.00  0.00    -0.303 OA
ATOM      5  H   UNL     1      38.683 -23.559 -14.820  0.00  0.00    +0.222 HD
ENDBRANCH   2   4
BRANCH   2   6
ATOM      6  O   UNL     1      40.595 -25.998 -16.155  0.00  0.00    -0.303 OA
ATOM      7  H   UNL     1      41.473 -25.602 -16.272  0.00  0.00    +0.222 HD
ENDBRANCH   2   6
ENDBRANCH   1   2
BRANCH   1   8
ATOM      8  C   UNL     1      37.474 -26.136 -14.209  0.00  0.00    +0.132 C 
BRANCH   8   9
ATOM      9  C   UNL     1      37.203 -25.995 -12.724  0.00  0.00    -0.040 C 
BRANCH   9  10
ATOM     10  N   UNL     1      36.686 -24.594 -12.438  0.00  0.00    +0.387 N 
ATOM     11  C   UNL     1      37.847 -23.699 -12.027  0.00  0.00    -0.096 C 
ATOM     12  C   UNL     1      36.029 -24.030 -13.690  0.00  0.00    -0.096 C 
ATOM     13  C   UNL     1      35.665 -24.649 -11.310  0.00  0.00    -0.096 C 
ENDBRANCH   9  10
ENDBRANCH   8   9
ENDBRANCH   1   8
TORSDOF 6
ENDMDL
MODEL 4
REMARK VINA RESULT:      -5.5      0.303      1.392
REMARK  Name = 1014
REMARK  6 active torsions:
REMARK  status: ('A' for Active; 'I' for Inactive)
REMARK    1  A    between atoms: O_1  and  P_2
REMARK    2  A    between atoms: O_1  and  C_8
REMARK    3  A    between atoms: P_2  and  O_4
REMARK    4  A    between atoms: P_2  and  O_6
REMARK    5  A    between atoms: C_8  and  C_9
REMARK    6  A    between atoms: C_9  and  N_10
REMARK                            x       y       z     vdW  Elec       q    Type
REMARK                         _______ _______ _______ _____ _____    ______ ____
ROOT
ATOM      1  O   UNL     1      38.758 -26.782 -14.455  0.00  0.00    -0.276 OA
ENDROOT
BRANCH   1   2
ATOM      2  P   UNL     1      40.196 -26.046 -14.539  0.00  0.00    +0.473 P 
ATOM      3  O   UNL     1      41.350 -26.843 -14.003  0.00  0.00    -0.228 OA
BRANCH   2   4
ATOM      4  O   UNL     1      39.943 -24.622 -13.815  0.00  0.00    -0.303 OA
ATOM      5  H   UNL     1      39.134 -24.671 -13.281  0.00  0.00    +0.222 HD
ENDBRANCH   2   4
BRANCH   2   6
ATOM      6  O   UNL     1      40.305 -25.653 -16.104  0.00  0.00    -0.303 OA
ATOM      7  H   UNL     1      39.857 -24.807 -16.257  0.00  0.00    +0.222 HD
ENDBRANCH   2   6
ENDBRANCH   1   2
BRANCH   1   8
ATOM      8  C   UNL     1      37.665 -26.066 -13.896  0.00  0.00    +0.132 C 
BRANCH   8   9
ATOM      9  C   UNL     1      36.726 -25.627 -15.002  0.00  0.00    -0.040 C 
BRANCH   9  10
ATOM     10  N   UNL     1      36.342 -24.171 -14.788  0.00  0.00    +0.387 N 
ATOM     11  C   UNL     1      37.266 -23.277 -15.602  0.00  0.00    -0.096 C 
ATOM     12  C   UNL     1      34.903 -23.955 -15.235  0.00  0.00    -0.096 C 
ATOM     13  C   UNL     1      36.472 -23.823 -13.312  0.00  0.00    -0.096 C 
ENDBRANCH   9  10
ENDBRANCH   8   9
ENDBRANCH   1   8
TORSDOF 6
ENDMDL
MODEL 5
REMARK VINA RESULT:      -5.2      3.699      4.630
REMARK  Name = 1014
REMARK  6 active torsions:
REMARK  status: ('A' for Active; 'I' for Inactive)
REMARK    1  A    between atoms: O_1  and  P_2
REMARK    2  A    between atoms: O_1  and  C_8
REMARK    3  A    between atoms: P_2  and  O_4
REMARK    4  A    between atoms: P_2  and  O_6
REMARK    5  A    between atoms: C_8  and  C_9
REMARK    6  A    between atoms: C_9  and  N_10
REMARK                            x       y       z     vdW  Elec       q    Type
REMARK                         _______ _______ _______ _____ _____    ______ ____
ROOT
ATOM      1  O   UNL     1      36.770 -25.714 -11.421  0.00  0.00    -0.276 OA
ENDROOT
BRANCH   1   2
ATOM      2  P   UNL     1      35.795 -24.428 -11.327  0.00  0.00    +0.473 P 
ATOM      3  O   UNL     1      36.400 -23.135 -11.791  0.00  0.00    -0.228 OA
BRANCH   2   4
ATOM      4  O   UNL     1      35.286 -24.441  -9.792  0.00  0.00    -0.303 OA
ATOM      5  H   UNL     1      34.323 -24.557  -9.772  0.00  0.00    +0.222 HD
ENDBRANCH   2   4
BRANCH   2   6
ATOM      6  O   UNL     1      34.491 -24.908 -12.155  0.00  0.00    -0.303 OA
ATOM      7  H   UNL     1      34.327 -24.292 -12.886  0.00  0.00    +0.222 HD
ENDBRANCH   2   6
ENDBRANCH   1   2
BRANCH   1   8
ATOM      8  C   UNL     1      37.181 -26.157 -12.707  0.00  0.00    +0.132 C 
BRANCH   8   9
ATOM      9  C   UNL     1      38.440 -25.420 -13.120  0.00  0.00    -0.040 C 
BRANCH   9  10
ATOM     10  N   UNL     1      38.470 -25.286 -14.635  0.00  0.00    +0.387 N 
ATOM     11  C   UNL     1      37.625 -26.388 -15.259  0.00  0.00    -0.096 C 
ATOM     12  C   UNL     1      37.911 -23.929 -15.036  0.00  0.00    -0.096 C 
ATOM     13  C   UNL     1      39.905 -25.409 -15.128  0.00  0.00    -0.096 C 
ENDBRANCH   9  10
ENDBRANCH   8   9
ENDBRANCH   1   8
TORSDOF 6
ENDMDL
MODEL 6
REMARK VINA RESULT:      -5.1      3.634      4.607
REMARK  Name = 1014
REMARK  6 active torsions:
REMARK  status: ('A' for Active; 'I' for Inactive)
REMARK    1  A    between atoms: O_1  and  P_2
REMARK    2  A    between atoms: O_1  and  C_8
REMARK    3  A    between atoms: P_2  and  O_4
REMARK    4  A    between atoms: P_2  and  O_6
REMARK    5  A    between atoms: C_8  and  C_9
REMARK    6  A    between atoms: C_9  and  N_10
REMARK                            x       y       z     vdW  Elec       q    Type
REMARK                         _______ _______ _______ _____ _____    ______ ____
ROOT
ATOM      1  O   UNL     1      37.580 -24.654 -11.164  0.00  0.00    -0.276 OA
ENDROOT
BRANCH   1   2
ATOM      2  P   UNL     1      35.995 -24.337 -11.227  0.00  0.00    +0.473 P 
ATOM      3  O   UNL     1      35.277 -24.422  -9.912  0.00  0.00    -0.228 OA
BRANCH   2   4
ATOM      4  O   UNL     1      35.448 -25.332 -12.379  0.00  0.00    -0.303 OA
ATOM      5  H   UNL     1      34.481 -25.381 -12.331  0.00  0.00    +0.222 HD
ENDBRANCH   2   4
BRANCH   2   6
ATOM      6  O   UNL     1      35.949 -22.885 -11.938  0.00  0.00    -0.303 OA
ATOM      7  H   UNL     1      36.055 -22.990 -12.896  0.00  0.00    +0.222 HD
ENDBRANCH   2   6
ENDBRANCH   1   2
BRANCH   1   8
ATOM      8  C   UNL     1      38.387 -24.283 -12.274  0.00  0.00    +0.132 C 
BRANCH   8   9
ATOM      9  C   UNL     1      38.860 -25.528 -12.997  0.00  0.00    -0.040 C 
BRANCH   9  10
ATOM     10  N   UNL     1      38.575 -25.385 -14.484  0.00  0.00    +0.387 N 
ATOM     11  C   UNL     1      37.868 -24.061 -14.740  0.00  0.00    -0.096 C 
ATOM     12  C   UNL     1      39.885 -25.418 -15.258  0.00  0.00    -0.096 C 
ATOM     13  C   UNL     1      37.684 -26.531 -14.944  0.00  0.00    -0.096 C 
ENDBRANCH   9  10
ENDBRANCH   8   9
ENDBRANCH   1   8
TORSDOF 6
ENDMDL
MODEL 7
REMARK VINA RESULT:      -5.1      9.862     10.905
REMARK  Name = 1014
REMARK  6 active torsions:
REMARK  status: ('A' for Active; 'I' for Inactive)
REMARK    1  A    between atoms: O_1  and  P_2
REMARK    2  A    between atoms: O_1  and  C_8
REMARK    3  A    between atoms: P_2  and  O_4
REMARK    4  A    between atoms: P_2  and  O_6
REMARK    5  A    between atoms: C_8  and  C_9
REMARK    6  A    between atoms: C_9  and  N_10
REMARK                            x       y       z     vdW  Elec       q    Type
REMARK                         _______ _______ _______ _____ _____    ______ ____
ROOT
ATOM      1  O   UNL     1      28.124 -21.657 -16.460  0.00  0.00    -0.276 OA
ENDROOT
BRANCH   1   2
ATOM      2  P   UNL     1      26.697 -21.658 -17.222  0.00  0.00    +0.473 P 
ATOM      3  O   UNL     1      26.335 -20.366 -17.896  0.00  0.00    -0.228 OA
BRANCH   2   4
ATOM      4  O   UNL     1      25.657 -22.162 -16.090  0.00  0.00    -0.303 OA
ATOM      5  H   UNL     1      26.150 -22.538 -15.344  0.00  0.00    +0.222 HD
ENDBRANCH   2   4
BRANCH   2   6
ATOM      6  O   UNL     1      26.820 -22.932 -18.209  0.00  0.00    -0.303 OA
ATOM      7  H   UNL     1      27.755 -23.109 -18.396  0.00  0.00    +0.222 HD
ENDBRANCH   2   6
ENDBRANCH   1   2
BRANCH   1   8
ATOM      8  C   UNL     1      28.671 -22.903 -16.050  0.00  0.00    +0.132 C 
BRANCH   8   9
ATOM      9  C   UNL     1      29.735 -22.668 -14.996  0.00  0.00    -0.040 C 
BRANCH   9  10
ATOM     10  N   UNL     1      30.738 -23.811 -15.031  0.00  0.00    +0.387 N 
ATOM     11  C   UNL     1      31.828 -23.499 -16.048  0.00  0.00    -0.096 C 
ATOM     12  C   UNL     1      31.363 -23.980 -13.654  0.00  0.00    -0.096 C 
ATOM     13  C   UNL     1      30.029 -25.098 -15.429  0.00  0.00    -0.096 C 
ENDBRANCH   9  10
ENDBRANCH   8   9
ENDBRANCH   1   8
TORSDOF 6
ENDMDL
MODEL 8
REMARK VINA RESULT:      -5.1      8.528      9.539
REMARK  Name = 1014
REMARK  6 active torsions:
REMARK  status: ('A' for Active; 'I' for Inactive)
REMARK    1  A    between atoms: O_1  and  P_2
REMARK    2  A    between atoms: O_1  and  C_8
REMARK    3  A    between atoms: P_2  and  O_4
REMARK    4  A    between atoms: P_2  and  O_6
REMARK    5  A    between atoms: C_8  and  C_9
REMARK    6  A    between atoms: C_9  and  N_10
REMARK                            x       y       z     vdW  Elec       q    Type
REMARK                         _______ _______ _______ _____ _____    ______ ____
ROOT
ATOM      1  O   UNL     1      28.617 -24.089 -15.446  0.00  0.00    -0.276 OA
ENDROOT
BRANCH   1   2
ATOM      2  P   UNL     1      28.038 -23.017 -16.510  0.00  0.00    +0.473 P 
ATOM      3  O   UNL     1      29.005 -21.945 -16.922  0.00  0.00    -0.228 OA
BRANCH   2   4
ATOM      4  O   UNL     1      26.673 -22.489 -15.821  0.00  0.00    -0.303 OA
ATOM      5  H   UNL     1      26.348 -21.713 -16.304  0.00  0.00    +0.222 HD
ENDBRANCH   2   4
BRANCH   2   6
ATOM      6  O   UNL     1      27.509 -23.959 -17.713  0.00  0.00    -0.303 OA
ATOM      7  H   UNL     1      26.539 -23.945 -17.732  0.00  0.00    +0.222 HD
ENDBRANCH   2   6
ENDBRANCH   1   2
BRANCH   1   8
ATOM      8  C   UNL     1      29.778 -24.830 -15.798  0.00  0.00    +0.132 C 
BRANCH   8   9
ATOM      9  C   UNL     1      30.718 -24.895 -14.610  0.00  0.00    -0.040 C 
BRANCH   9  10
ATOM     10  N   UNL     1      31.833 -23.878 -14.796  0.00  0.00    +0.387 N 
ATOM     11  C   UNL     1      31.462 -22.582 -14.087  0.00  0.00    -0.096 C 
ATOM     12  C   UNL     1      33.124 -24.427 -14.205  0.00  0.00    -0.096 C 
ATOM     13  C   UNL     1      32.030 -23.604 -16.280  0.00  0.00    -0.096 C 
ENDBRANCH   9  10
ENDBRANCH   8   9
ENDBRANCH   1   8
TORSDOF 6
ENDMDL
MODEL 9
REMARK VINA RESULT:      -5.0      8.854      9.901
REMARK  Name = 1014
REMARK  6 active torsions:
REMARK  status: ('A' for Active; 'I' for Inactive)
REMARK    1  A    between atoms: O_1  and  P_2
REMARK    2  A    between atoms: O_1  and  C_8
REMARK    3  A    between atoms: P_2  and  O_4
REMARK    4  A    between atoms: P_2  and  O_6
REMARK    5  A    between atoms: C_8  and  C_9
REMARK    6  A    between atoms: C_9  and  N_10
REMARK                            x       y       z     vdW  Elec       q    Type
REMARK                         _______ _______ _______ _____ _____    ______ ____
ROOT
ATOM      1  O   UNL     1      29.388 -22.213 -16.891  0.00  0.00    -0.276 OA
ENDROOT
BRANCH   1   2
ATOM      2  P   UNL     1      27.828 -22.603 -16.724  0.00  0.00    +0.473 P 
ATOM      3  O   UNL     1      27.383 -22.851 -15.312  0.00  0.00    -0.228 OA
BRANCH   2   4
ATOM      4  O   UNL     1      27.630 -23.845 -17.740  0.00  0.00    -0.303 OA
ATOM      5  H   UNL     1      28.197 -23.720 -18.517  0.00  0.00    +0.222 HD
ENDBRANCH   2   4
BRANCH   2   6
ATOM      6  O   UNL     1      27.073 -21.385 -17.473  0.00  0.00    -0.303 OA
ATOM      7  H   UNL     1      26.725 -20.765 -16.814  0.00  0.00    +0.222 HD
ENDBRANCH   2   6
ENDBRANCH   1   2
BRANCH   1   8
ATOM      8  C   UNL     1      30.368 -23.181 -16.540  0.00  0.00    +0.132 C 
BRANCH   8   9
ATOM      9  C   UNL     1      30.925 -22.865 -15.167  0.00  0.00    -0.040 C 
BRANCH   9  10
ATOM     10  N   UNL     1      31.029 -24.149 -14.358  0.00  0.00    +0.387 N 
ATOM     11  C   UNL     1      30.468 -23.917 -12.962  0.00  0.00    -0.096 C 
ATOM     12  C   UNL     1      30.235 -25.248 -15.048  0.00  0.00    -0.096 C 
ATOM     13  C   UNL     1      32.489 -24.567 -14.253  0.00  0.00    -0.096 C 
ENDBRANCH   9  10
ENDBRANCH   8   9
ENDBRANCH   1   8
TORSDOF 6
ENDMDL
