MODEL 1
REMARK VINA RESULT:      -8.2      0.000      0.000
REMARK  Name = 446504
REMARK  9 active torsions:
REMARK  status: ('A' for Active; 'I' for Inactive)
REMARK    1  A    between atoms: N_1  and  S_2
REMARK    2  A    between atoms: N_1  and  C_13
REMARK    3  A    between atoms: N_1  and  C_23
REMARK    4  A    between atoms: S_2  and  C_5
REMARK    5  A    between atoms: C_10  and  O_11
REMARK    6  A    between atoms: C_13  and  C_16
REMARK    7  A    between atoms: C_13  and  C_20
REMARK    8  A    between atoms: N_15  and  O_18
REMARK    9  A    between atoms: C_23  and  C_25
REMARK                            x       y       z     vdW  Elec       q    Type
REMARK                         _______ _______ _______ _____ _____    ______ ____
ROOT
ATOM      1  N   UNL     1      34.129 -24.082 -14.342  0.00  0.00    -0.144 NA
ENDROOT
BRANCH   1   2
ATOM      2  S   UNL     1      32.671 -24.087 -13.415  0.00  0.00    +0.064 S 
ATOM      3  O   UNL     1      32.629 -22.901 -12.580  0.00  0.00    -0.153 OA
ATOM      4  O   UNL     1      32.481 -25.393 -12.812  0.00  0.00    -0.153 OA
BRANCH   2   5
ATOM      5  C   UNL     1      31.424 -23.898 -14.659  0.00  0.00    +0.122 C 
ATOM      6  C   UNL     1      30.796 -25.024 -15.158  0.00  0.00    +0.023 C 
ATOM      7  C   UNL     1      31.106 -22.628 -15.106  0.00  0.00    +0.023 C 
ATOM      8  C   UNL     1      29.814 -24.875 -16.138  0.00  0.00    +0.038 C 
ATOM      9  C   UNL     1      30.125 -22.480 -16.086  0.00  0.00    +0.038 C 
ATOM     10  C   UNL     1      29.478 -23.603 -16.602  0.00  0.00    +0.139 C 
BRANCH  10  11
ATOM     11  O   UNL     1      28.521 -23.458 -17.557  0.00  0.00    -0.471 OA
ATOM     12  C   UNL     1      27.462 -22.542 -17.281  0.00  0.00    +0.252 C 
ENDBRANCH  10  11
ENDBRANCH   2   5
ENDBRANCH   1   2
BRANCH   1  13
ATOM     13  C   UNL     1      35.277 -24.864 -13.832  0.00  0.00    +0.158 C 
BRANCH  13  16
ATOM     14  O   UNL     1      36.788 -24.631 -15.709  0.00  0.00    -0.272 OA
ATOM     15  N   UNL     1      35.870 -26.700 -15.264  0.00  0.00    -0.196 N 
ATOM     16  C   UNL     1      36.064 -25.361 -15.034  0.00  0.00    +0.260 C 
ATOM     17  H   UNL     1      35.280 -27.249 -14.699  0.00  0.00    +0.182 HD
BRANCH  15  18
ATOM     18  O   UNL     1      36.564 -27.239 -16.356  0.00  0.00    -0.295 OA
ATOM     19  H   UNL     1      36.978 -28.076 -16.095  0.00  0.00    +0.241 HD
ENDBRANCH  15  18
ENDBRANCH  13  16
BRANCH  13  20
ATOM     20  C   UNL     1      36.147 -24.043 -12.858  0.00  0.00    +0.025 C 
ATOM     21  C   UNL     1      37.638 -24.391 -12.924  0.00  0.00    +0.002 C 
ATOM     22  C   UNL     1      35.646 -24.178 -11.416  0.00  0.00    +0.002 C 
ENDBRANCH  13  20
ENDBRANCH   1  13
BRANCH   1  23
ATOM     23  C   UNL     1      34.553 -22.794 -14.951  0.00  0.00    +0.124 C 
BRANCH  23  25
ATOM     24  N   UNL     1      33.488 -23.679 -18.455  0.00  0.00    -0.243 NA
ATOM     25  C   UNL     1      34.514 -22.832 -16.452  0.00  0.00    +0.015 C 
ATOM     26  C   UNL     1      35.420 -22.099 -17.196  0.00  0.00    +0.000 C 
ATOM     27  C   UNL     1      33.577 -23.599 -17.108  0.00  0.00    +0.096 C 
ATOM     28  C   UNL     1      35.360 -22.155 -18.585  0.00  0.00    +0.020 C 
ATOM     29  C   UNL     1      34.383 -22.953 -19.159  0.00  0.00    +0.099 C 
ENDBRANCH  23  25
ENDBRANCH   1  23
TORSDOF 9
ENDMDL
MODEL 2
REMARK VINA RESULT:      -7.6      1.069      1.347
REMARK  Name = 446504
REMARK  9 active torsions:
REMARK  status: ('A' for Active; 'I' for Inactive)
REMARK    1  A    between atoms: N_1  and  S_2
REMARK    2  A    between atoms: N_1  and  C_13
REMARK    3  A    between atoms: N_1  and  C_23
REMARK    4  A    between atoms: S_2  and  C_5
REMARK    5  A    between atoms: C_10  and  O_11
REMARK    6  A    between atoms: C_13  and  C_16
REMARK    7  A    between atoms: C_13  and  C_20
REMARK    8  A    between atoms: N_15  and  O_18
REMARK    9  A    between atoms: C_23  and  C_25
REMARK                            x       y       z     vdW  Elec       q    Type
REMARK                         _______ _______ _______ _____ _____    ______ ____
ROOT
ATOM      1  N   UNL     1      35.036 -24.178 -14.031  0.00  0.00    -0.144 NA
ENDROOT
BRANCH   1   2
ATOM      2  S   UNL     1      33.716 -24.187 -12.916  0.00  0.00    +0.064 S 
ATOM      3  O   UNL     1      33.756 -22.977 -12.116  0.00  0.00    -0.153 OA
ATOM      4  O   UNL     1      33.644 -25.478 -12.257  0.00  0.00    -0.153 OA
BRANCH   2   5
ATOM      5  C   UNL     1      32.310 -24.064 -13.986  0.00  0.00    +0.122 C 
ATOM      6  C   UNL     1      31.734 -25.222 -14.474  0.00  0.00    +0.023 C 
ATOM      7  C   UNL     1      31.818 -22.813 -14.310  0.00  0.00    +0.023 C 
ATOM      8  C   UNL     1      30.626 -25.126 -15.316  0.00  0.00    +0.038 C 
ATOM      9  C   UNL     1      30.711 -22.717 -15.153  0.00  0.00    +0.038 C 
ATOM     10  C   UNL     1      30.114 -23.873 -15.656  0.00  0.00    +0.139 C 
BRANCH  10  11
ATOM     11  O   UNL     1      29.034 -23.779 -16.477  0.00  0.00    -0.471 OA
ATOM     12  C   UNL     1      28.346 -22.530 -16.504  0.00  0.00    +0.252 C 
ENDBRANCH  10  11
ENDBRANCH   2   5
ENDBRANCH   1   2
BRANCH   1  13
ATOM     13  C   UNL     1      36.206 -25.032 -13.728  0.00  0.00    +0.158 C 
BRANCH  13  16
ATOM     14  O   UNL     1      37.545 -25.058 -15.745  0.00  0.00    -0.272 OA
ATOM     15  N   UNL     1      36.104 -26.814 -15.338  0.00  0.00    -0.196 N 
ATOM     16  C   UNL     1      36.702 -25.614 -15.042  0.00  0.00    +0.260 C 
ATOM     17  H   UNL     1      35.434 -27.225 -14.746  0.00  0.00    +0.182 HD
BRANCH  15  18
ATOM     18  O   UNL     1      36.511 -27.419 -16.535  0.00  0.00    -0.295 OA
ATOM     19  H   UNL     1      36.068 -26.987 -17.282  0.00  0.00    +0.241 HD
ENDBRANCH  15  18
ENDBRANCH  13  16
BRANCH  13  20
ATOM     20  C   UNL     1      37.306 -24.259 -12.973  0.00  0.00    +0.025 C 
ATOM     21  C   UNL     1      38.676 -24.947 -13.011  0.00  0.00    +0.002 C 
ATOM     22  C   UNL     1      36.901 -23.989 -11.521  0.00  0.00    +0.002 C 
ENDBRANCH  13  20
ENDBRANCH   1  13
BRANCH   1  23
ATOM     23  C   UNL     1      35.435 -22.870 -14.616  0.00  0.00    +0.124 C 
BRANCH  23  25
ATOM     24  N   UNL     1      35.839 -22.093 -18.281  0.00  0.00    -0.243 NA
ATOM     25  C   UNL     1      35.143 -22.791 -16.088  0.00  0.00    +0.015 C 
ATOM     26  C   UNL     1      33.970 -23.314 -16.599  0.00  0.00    +0.000 C 
ATOM     27  C   UNL     1      36.040 -22.197 -16.947  0.00  0.00    +0.096 C 
ATOM     28  C   UNL     1      33.727 -23.227 -17.965  0.00  0.00    +0.020 C 
ATOM     29  C   UNL     1      34.685 -22.612 -18.756  0.00  0.00    +0.099 C 
ENDBRANCH  23  25
ENDBRANCH   1  23
TORSDOF 9
ENDMDL
MODEL 3
REMARK VINA RESULT:      -7.3      1.923      2.546
REMARK  Name = 446504
REMARK  9 active torsions:
REMARK  status: ('A' for Active; 'I' for Inactive)
REMARK    1  A    between atoms: N_1  and  S_2
REMARK    2  A    between atoms: N_1  and  C_13
REMARK    3  A    between atoms: N_1  and  C_23
REMARK    4  A    between atoms: S_2  and  C_5
REMARK    5  A    between atoms: C_10  and  O_11
REMARK    6  A    between atoms: C_13  and  C_16
REMARK    7  A    between atoms: C_13  and  C_20
REMARK    8  A    between atoms: N_15  and  O_18
REMARK    9  A    between atoms: C_23  and  C_25
REMARK                            x       y       z     vdW  Elec       q    Type
REMARK                         _______ _______ _______ _____ _____    ______ ____
ROOT
ATOM      1  N   UNL     1      35.317 -23.837 -14.432  0.00  0.00    -0.144 NA
ENDROOT
BRANCH   1   2
ATOM      2  S   UNL     1      34.292 -24.138 -13.074  0.00  0.00    +0.064 S 
ATOM      3  O   UNL     1      34.415 -23.045 -12.128  0.00  0.00    -0.153 OA
ATOM      4  O   UNL     1      34.476 -25.503 -12.617  0.00  0.00    -0.153 OA
BRANCH   2   5
ATOM      5  C   UNL     1      32.673 -24.037 -13.786  0.00  0.00    +0.122 C 
ATOM      6  C   UNL     1      31.989 -25.205 -14.069  0.00  0.00    +0.023 C 
ATOM      7  C   UNL     1      32.127 -22.793 -14.042  0.00  0.00    +0.023 C 
ATOM      8  C   UNL     1      30.714 -25.127 -14.630  0.00  0.00    +0.038 C 
ATOM      9  C   UNL     1      30.852 -22.715 -14.602  0.00  0.00    +0.038 C 
ATOM     10  C   UNL     1      30.145 -23.881 -14.896  0.00  0.00    +0.139 C 
BRANCH  10  11
ATOM     11  O   UNL     1      28.902 -23.804 -15.442  0.00  0.00    -0.471 OA
ATOM     12  C   UNL     1      28.625 -22.676 -16.271  0.00  0.00    +0.252 C 
ENDBRANCH  10  11
ENDBRANCH   2   5
ENDBRANCH   1   2
BRANCH   1  13
ATOM     13  C   UNL     1      36.708 -24.336 -14.374  0.00  0.00    +0.158 C 
BRANCH  13  16
ATOM     14  O   UNL     1      37.889 -22.775 -12.949  0.00  0.00    -0.272 OA
ATOM     15  N   UNL     1      37.142 -24.764 -12.049  0.00  0.00    -0.196 N 
ATOM     16  C   UNL     1      37.315 -23.856 -13.065  0.00  0.00    +0.260 C 
ATOM     17  H   UNL     1      36.676 -25.620 -12.185  0.00  0.00    +0.182 HD
BRANCH  15  18
ATOM     18  O   UNL     1      37.672 -24.394 -10.805  0.00  0.00    -0.295 OA
ATOM     19  H   UNL     1      37.739 -23.428 -10.757  0.00  0.00    +0.241 HD
ENDBRANCH  15  18
ENDBRANCH  13  16
BRANCH  13  20
ATOM     20  C   UNL     1      36.779 -25.869 -14.528  0.00  0.00    +0.025 C 
ATOM     21  C   UNL     1      38.208 -26.408 -14.661  0.00  0.00    +0.002 C 
ATOM     22  C   UNL     1      35.931 -26.349 -15.710  0.00  0.00    +0.002 C 
ENDBRANCH  13  20
ENDBRANCH   1  13
BRANCH   1  23
ATOM     23  C   UNL     1      35.227 -22.501 -15.080  0.00  0.00    +0.124 C 
BRANCH  23  25
ATOM     24  N   UNL     1      35.698 -22.173 -18.804  0.00  0.00    -0.243 NA
ATOM     25  C   UNL     1      34.961 -22.600 -16.555  0.00  0.00    +0.015 C 
ATOM     26  C   UNL     1      33.794 -23.179 -17.020  0.00  0.00    +0.000 C 
ATOM     27  C   UNL     1      35.875 -22.116 -17.464  0.00  0.00    +0.096 C 
ATOM     28  C   UNL     1      33.576 -23.256 -18.391  0.00  0.00    +0.020 C 
ATOM     29  C   UNL     1      34.550 -22.743 -19.233  0.00  0.00    +0.099 C 
ENDBRANCH  23  25
ENDBRANCH   1  23
TORSDOF 9
ENDMDL
MODEL 4
REMARK VINA RESULT:      -7.1      2.967      5.421
REMARK  Name = 446504
REMARK  9 active torsions:
REMARK  status: ('A' for Active; 'I' for Inactive)
REMARK    1  A    between atoms: N_1  and  S_2
REMARK    2  A    between atoms: N_1  and  C_13
REMARK    3  A    between atoms: N_1  and  C_23
REMARK    4  A    between atoms: S_2  and  C_5
REMARK    5  A    between atoms: C_10  and  O_11
REMARK    6  A    between atoms: C_13  and  C_16
REMARK    7  A    between atoms: C_13  and  C_20
REMARK    8  A    between atoms: N_15  and  O_18
REMARK    9  A    between atoms: C_23  and  C_25
REMARK                            x       y       z     vdW  Elec       q    Type
REMARK                         _______ _______ _______ _____ _____    ______ ____
ROOT
ATOM      1  N   UNL     1      34.407 -22.792 -16.318  0.00  0.00    -0.144 NA
ENDROOT
BRANCH   1   2
ATOM      2  S   UNL     1      33.388 -23.119 -17.674  0.00  0.00    +0.064 S 
ATOM      3  O   UNL     1      32.028 -22.725 -17.360  0.00  0.00    -0.153 OA
ATOM      4  O   UNL     1      33.648 -24.459 -18.167  0.00  0.00    -0.153 OA
BRANCH   2   5
ATOM      5  C   UNL     1      33.996 -21.986 -18.893  0.00  0.00    +0.122 C 
ATOM      6  C   UNL     1      35.329 -22.038 -19.254  0.00  0.00    +0.023 C 
ATOM      7  C   UNL     1      33.124 -21.073 -19.457  0.00  0.00    +0.023 C 
ATOM      8  C   UNL     1      35.808 -21.146 -20.213  0.00  0.00    +0.038 C 
ATOM      9  C   UNL     1      33.603 -20.181 -20.416  0.00  0.00    +0.038 C 
ATOM     10  C   UNL     1      34.945 -20.217 -20.794  0.00  0.00    +0.139 C 
BRANCH  10  11
ATOM     11  O   UNL     1      35.411 -19.347 -21.730  0.00  0.00    -0.471 OA
ATOM     12  C   UNL     1      35.457 -17.967 -21.369  0.00  0.00    +0.252 C 
ENDBRANCH  10  11
ENDBRANCH   2   5
ENDBRANCH   1   2
BRANCH   1  13
ATOM     13  C   UNL     1      35.612 -23.631 -16.137  0.00  0.00    +0.158 C 
BRANCH  13  16
ATOM     14  O   UNL     1      37.981 -23.133 -16.163  0.00  0.00    -0.272 OA
ATOM     15  N   UNL     1      36.478 -21.435 -16.588  0.00  0.00    -0.196 N 
ATOM     16  C   UNL     1      36.826 -22.730 -16.292  0.00  0.00    +0.260 C 
ATOM     17  H   UNL     1      35.540 -21.154 -16.682  0.00  0.00    +0.182 HD
BRANCH  15  18
ATOM     18  O   UNL     1      37.543 -20.539 -16.750  0.00  0.00    -0.295 OA
ATOM     19  H   UNL     1      37.894 -20.293 -15.880  0.00  0.00    +0.241 HD
ENDBRANCH  15  18
ENDBRANCH  13  16
BRANCH  13  20
ATOM     20  C   UNL     1      35.600 -24.375 -14.786  0.00  0.00    +0.025 C 
ATOM     21  C   UNL     1      36.367 -23.647 -13.677  0.00  0.00    +0.002 C 
ATOM     22  C   UNL     1      36.133 -25.804 -14.934  0.00  0.00    +0.002 C 
ENDBRANCH  13  20
ENDBRANCH   1  13
BRANCH   1  23
ATOM     23  C   UNL     1      33.748 -22.471 -15.024  0.00  0.00    +0.124 C 
BRANCH  23  25
ATOM     24  N   UNL     1      31.558 -25.458 -14.330  0.00  0.00    -0.243 NA
ATOM     25  C   UNL     1      32.518 -23.302 -14.789  0.00  0.00    +0.015 C 
ATOM     26  C   UNL     1      31.264 -22.721 -14.814  0.00  0.00    +0.000 C 
ATOM     27  C   UNL     1      32.623 -24.653 -14.548  0.00  0.00    +0.096 C 
ATOM     28  C   UNL     1      30.144 -23.515 -14.594  0.00  0.00    +0.020 C 
ATOM     29  C   UNL     1      30.343 -24.866 -14.358  0.00  0.00    +0.099 C 
ENDBRANCH  23  25
ENDBRANCH   1  23
TORSDOF 9
ENDMDL
MODEL 5
REMARK VINA RESULT:      -6.7      2.884      4.625
REMARK  Name = 446504
REMARK  9 active torsions:
REMARK  status: ('A' for Active; 'I' for Inactive)
REMARK    1  A    between atoms: N_1  and  S_2
REMARK    2  A    between atoms: N_1  and  C_13
REMARK    3  A    between atoms: N_1  and  C_23
REMARK    4  A    between atoms: S_2  and  C_5
REMARK    5  A    between atoms: C_10  and  O_11
REMARK    6  A    between atoms: C_13  and  C_16
REMARK    7  A    between atoms: C_13  and  C_20
REMARK    8  A    between atoms: N_15  and  O_18
REMARK    9  A    between atoms: C_23  and  C_25
REMARK                            x       y       z     vdW  Elec       q    Type
REMARK                         _______ _______ _______ _____ _____    ______ ____
ROOT
ATOM      1  N   UNL     1      35.492 -23.882 -14.367  0.00  0.00    -0.144 NA
ENDROOT
BRANCH   1   2
ATOM      2  S   UNL     1      36.754 -23.249 -15.362  0.00  0.00    +0.064 S 
ATOM      3  O   UNL     1      37.641 -24.327 -15.757  0.00  0.00    -0.153 OA
ATOM      4  O   UNL     1      37.309 -22.057 -14.747  0.00  0.00    -0.153 OA
BRANCH   2   5
ATOM      5  C   UNL     1      35.877 -22.731 -16.812  0.00  0.00    +0.122 C 
ATOM      6  C   UNL     1      36.522 -21.932 -17.737  0.00  0.00    +0.023 C 
ATOM      7  C   UNL     1      34.567 -23.138 -16.987  0.00  0.00    +0.023 C 
ATOM      8  C   UNL     1      35.832 -21.523 -18.879  0.00  0.00    +0.038 C 
ATOM      9  C   UNL     1      33.878 -22.729 -18.129  0.00  0.00    +0.038 C 
ATOM     10  C   UNL     1      34.510 -21.923 -19.075  0.00  0.00    +0.139 C 
BRANCH  10  11
ATOM     11  O   UNL     1      33.837 -21.525 -20.188  0.00  0.00    -0.471 OA
ATOM     12  C   UNL     1      33.333 -20.190 -20.200  0.00  0.00    +0.252 C 
ENDBRANCH  10  11
ENDBRANCH   2   5
ENDBRANCH   1   2
BRANCH   1  13
ATOM     13  C   UNL     1      35.873 -24.537 -13.096  0.00  0.00    +0.158 C 
BRANCH  13  16
ATOM     14  O   UNL     1      38.231 -25.058 -12.921  0.00  0.00    -0.272 OA
ATOM     15  N   UNL     1      36.864 -26.464 -14.137  0.00  0.00    -0.196 N 
ATOM     16  C   UNL     1      37.123 -25.360 -13.361  0.00  0.00    +0.260 C 
ATOM     17  H   UNL     1      35.961 -26.669 -14.469  0.00  0.00    +0.182 HD
BRANCH  15  18
ATOM     18  O   UNL     1      37.966 -27.279 -14.425  0.00  0.00    -0.295 OA
ATOM     19  H   UNL     1      38.576 -26.804 -15.011  0.00  0.00    +0.241 HD
ENDBRANCH  15  18
ENDBRANCH  13  16
BRANCH  13  20
ATOM     20  C   UNL     1      36.072 -23.516 -11.958  0.00  0.00    +0.025 C 
ATOM     21  C   UNL     1      37.498 -22.961 -11.872  0.00  0.00    +0.002 C 
ATOM     22  C   UNL     1      35.661 -24.105 -10.604  0.00  0.00    +0.002 C 
ENDBRANCH  13  20
ENDBRANCH   1  13
BRANCH   1  23
ATOM     23  C   UNL     1      34.368 -24.583 -15.044  0.00  0.00    +0.124 C 
BRANCH  23  25
ATOM     24  N   UNL     1      31.156 -24.933 -13.105  0.00  0.00    -0.243 NA
ATOM     25  C   UNL     1      33.036 -24.244 -14.435  0.00  0.00    +0.015 C 
ATOM     26  C   UNL     1      32.476 -22.995 -14.628  0.00  0.00    +0.000 C 
ATOM     27  C   UNL     1      32.356 -25.172 -13.680  0.00  0.00    +0.096 C 
ATOM     28  C   UNL     1      31.242 -22.710 -14.053  0.00  0.00    +0.020 C 
ATOM     29  C   UNL     1      30.629 -23.704 -13.307  0.00  0.00    +0.099 C 
ENDBRANCH  23  25
ENDBRANCH   1  23
TORSDOF 9
ENDMDL
MODEL 6
REMARK VINA RESULT:      -6.5      2.582      6.892
REMARK  Name = 446504
REMARK  9 active torsions:
REMARK  status: ('A' for Active; 'I' for Inactive)
REMARK    1  A    between atoms: N_1  and  S_2
REMARK    2  A    between atoms: N_1  and  C_13
REMARK    3  A    between atoms: N_1  and  C_23
REMARK    4  A    between atoms: S_2  and  C_5
REMARK    5  A    between atoms: C_10  and  O_11
REMARK    6  A    between atoms: C_13  and  C_16
REMARK    7  A    between atoms: C_13  and  C_20
REMARK    8  A    between atoms: N_15  and  O_18
REMARK    9  A    between atoms: C_23  and  C_25
REMARK                            x       y       z     vdW  Elec       q    Type
REMARK                         _______ _______ _______ _____ _____    ______ ____
ROOT
ATOM      1  N   UNL     1      33.729 -23.974 -14.772  0.00  0.00    -0.144 NA
ENDROOT
BRANCH   1   2
ATOM      2  S   UNL     1      34.967 -23.366 -15.813  0.00  0.00    +0.064 S 
ATOM      3  O   UNL     1      35.332 -22.026 -15.393  0.00  0.00    -0.153 OA
ATOM      4  O   UNL     1      34.602 -23.606 -17.197  0.00  0.00    -0.153 OA
BRANCH   2   5
ATOM      5  C   UNL     1      36.336 -24.426 -15.440  0.00  0.00    +0.122 C 
ATOM      6  C   UNL     1      37.585 -23.867 -15.244  0.00  0.00    +0.023 C 
ATOM      7  C   UNL     1      36.127 -25.790 -15.354  0.00  0.00    +0.023 C 
ATOM      8  C   UNL     1      38.664 -24.701 -14.950  0.00  0.00    +0.038 C 
ATOM      9  C   UNL     1      37.206 -26.624 -15.060  0.00  0.00    +0.038 C 
ATOM     10  C   UNL     1      38.474 -26.080 -14.859  0.00  0.00    +0.139 C 
BRANCH  10  11
ATOM     11  O   UNL     1      39.526 -26.894 -14.572  0.00  0.00    -0.471 OA
ATOM     12  C   UNL     1      40.769 -26.264 -14.265  0.00  0.00    +0.252 C 
ENDBRANCH  10  11
ENDBRANCH   2   5
ENDBRANCH   1   2
BRANCH   1  13
ATOM     13  C   UNL     1      32.359 -24.090 -15.319  0.00  0.00    +0.158 C 
BRANCH  13  16
ATOM     14  O   UNL     1      31.939 -25.288 -13.257  0.00  0.00    -0.272 OA
ATOM     15  N   UNL     1      30.430 -25.485 -14.991  0.00  0.00    -0.196 N 
ATOM     16  C   UNL     1      31.574 -25.011 -14.399  0.00  0.00    +0.260 C 
ATOM     17  H   UNL     1      30.174 -25.239 -15.909  0.00  0.00    +0.182 HD
BRANCH  15  18
ATOM     18  O   UNL     1      29.646 -26.342 -14.206  0.00  0.00    -0.295 OA
ATOM     19  H   UNL     1      29.175 -25.824 -13.534  0.00  0.00    +0.241 HD
ENDBRANCH  15  18
ENDBRANCH  13  16
BRANCH  13  20
ATOM     20  C   UNL     1      31.685 -22.713 -15.486  0.00  0.00    +0.025 C 
ATOM     21  C   UNL     1      30.557 -22.455 -14.481  0.00  0.00    +0.002 C 
ATOM     22  C   UNL     1      31.163 -22.519 -16.914  0.00  0.00    +0.002 C 
ENDBRANCH  13  20
ENDBRANCH   1  13
BRANCH   1  23
ATOM     23  C   UNL     1      33.731 -23.513 -13.358  0.00  0.00    +0.124 C 
BRANCH  23  25
ATOM     24  N   UNL     1      36.351 -25.571 -11.597  0.00  0.00    -0.243 NA
ATOM     25  C   UNL     1      35.001 -23.878 -12.642  0.00  0.00    +0.015 C 
ATOM     26  C   UNL     1      35.955 -22.915 -12.372  0.00  0.00    +0.000 C 
ATOM     27  C   UNL     1      35.232 -25.176 -12.245  0.00  0.00    +0.096 C 
ATOM     28  C   UNL     1      37.120 -23.282 -11.707  0.00  0.00    +0.020 C 
ATOM     29  C   UNL     1      37.268 -24.611 -11.345  0.00  0.00    +0.099 C 
ENDBRANCH  23  25
ENDBRANCH   1  23
TORSDOF 9
ENDMDL
MODEL 7
REMARK VINA RESULT:      -6.3      3.786      5.452
REMARK  Name = 446504
REMARK  9 active torsions:
REMARK  status: ('A' for Active; 'I' for Inactive)
REMARK    1  A    between atoms: N_1  and  S_2
REMARK    2  A    between atoms: N_1  and  C_13
REMARK    3  A    between atoms: N_1  and  C_23
REMARK    4  A    between atoms: S_2  and  C_5
REMARK    5  A    between atoms: C_10  and  O_11
REMARK    6  A    between atoms: C_13  and  C_16
REMARK    7  A    between atoms: C_13  and  C_20
REMARK    8  A    between atoms: N_15  and  O_18
REMARK    9  A    between atoms: C_23  and  C_25
REMARK                            x       y       z     vdW  Elec       q    Type
REMARK                         _______ _______ _______ _____ _____    ______ ____
ROOT
ATOM      1  N   UNL     1      37.232 -23.760 -14.879  0.00  0.00    -0.144 NA
ENDROOT
BRANCH   1   2
ATOM      2  S   UNL     1      37.641 -22.433 -15.906  0.00  0.00    +0.064 S 
ATOM      3  O   UNL     1      38.810 -22.779 -16.694  0.00  0.00    -0.153 OA
ATOM      4  O   UNL     1      37.636 -21.202 -15.138  0.00  0.00    -0.153 OA
BRANCH   2   5
ATOM      5  C   UNL     1      36.261 -22.366 -17.014  0.00  0.00    +0.122 C 
ATOM      6  C   UNL     1      35.069 -22.956 -16.639  0.00  0.00    +0.023 C 
ATOM      7  C   UNL     1      36.405 -21.724 -18.231  0.00  0.00    +0.023 C 
ATOM      8  C   UNL     1      33.981 -22.903 -17.511  0.00  0.00    +0.038 C 
ATOM      9  C   UNL     1      35.318 -21.671 -19.103  0.00  0.00    +0.038 C 
ATOM     10  C   UNL     1      34.106 -22.260 -18.743  0.00  0.00    +0.139 C 
BRANCH  10  11
ATOM     11  O   UNL     1      33.045 -22.208 -19.593  0.00  0.00    -0.471 OA
ATOM     12  C   UNL     1      32.824 -20.978 -20.280  0.00  0.00    +0.252 C 
ENDBRANCH  10  11
ENDBRANCH   2   5
ENDBRANCH   1   2
BRANCH   1  13
ATOM     13  C   UNL     1      37.701 -25.109 -15.268  0.00  0.00    +0.158 C 
BRANCH  13  16
ATOM     14  O   UNL     1      39.430 -24.781 -13.605  0.00  0.00    -0.272 OA
ATOM     15  N   UNL     1      39.867 -26.140 -15.417  0.00  0.00    -0.196 N 
ATOM     16  C   UNL     1      39.079 -25.310 -14.658  0.00  0.00    +0.260 C 
ATOM     17  H   UNL     1      39.547 -26.543 -16.255  0.00  0.00    +0.182 HD
BRANCH  15  18
ATOM     18  O   UNL     1      41.156 -26.379 -14.920  0.00  0.00    -0.295 OA
ATOM     19  H   UNL     1      41.341 -25.765 -14.193  0.00  0.00    +0.241 HD
ENDBRANCH  15  18
ENDBRANCH  13  16
BRANCH  13  20
ATOM     20  C   UNL     1      36.706 -26.210 -14.848  0.00  0.00    +0.025 C 
ATOM     21  C   UNL     1      37.150 -27.000 -13.612  0.00  0.00    +0.002 C 
ATOM     22  C   UNL     1      36.421 -27.173 -16.005  0.00  0.00    +0.002 C 
ENDBRANCH  13  20
ENDBRANCH   1  13
BRANCH   1  23
ATOM     23  C   UNL     1      35.862 -23.788 -14.303  0.00  0.00    +0.124 C 
BRANCH  23  25
ATOM     24  N   UNL     1      34.957 -24.799 -10.787  0.00  0.00    -0.243 NA
ATOM     25  C   UNL     1      35.876 -23.862 -12.802  0.00  0.00    +0.015 C 
ATOM     26  C   UNL     1      36.771 -23.103 -12.071  0.00  0.00    +0.000 C 
ATOM     27  C   UNL     1      34.998 -24.686 -12.134  0.00  0.00    +0.096 C 
ATOM     28  C   UNL     1      36.760 -23.192 -10.683  0.00  0.00    +0.020 C 
ATOM     29  C   UNL     1      35.842 -24.048 -10.095  0.00  0.00    +0.099 C 
ENDBRANCH  23  25
ENDBRANCH   1  23
TORSDOF 9
ENDMDL
MODEL 8
REMARK VINA RESULT:      -6.3     13.300     15.735
REMARK  Name = 446504
REMARK  9 active torsions:
REMARK  status: ('A' for Active; 'I' for Inactive)
REMARK    1  A    between atoms: N_1  and  S_2
REMARK    2  A    between atoms: N_1  and  C_13
REMARK    3  A    between atoms: N_1  and  C_23
REMARK    4  A    between atoms: S_2  and  C_5
REMARK    5  A    between atoms: C_10  and  O_11
REMARK    6  A    between atoms: C_13  and  C_16
REMARK    7  A    between atoms: C_13  and  C_20
REMARK    8  A    between atoms: N_15  and  O_18
REMARK    9  A    between atoms: C_23  and  C_25
REMARK                            x       y       z     vdW  Elec       q    Type
REMARK                         _______ _______ _______ _____ _____    ______ ____
ROOT
ATOM      1  N   UNL     1      32.061 -10.075 -22.204  0.00  0.00    -0.144 NA
ENDROOT
BRANCH   1   2
ATOM      2  S   UNL     1      31.478 -11.097 -20.938  0.00  0.00    +0.064 S 
ATOM      3  O   UNL     1      30.040 -11.245 -21.065  0.00  0.00    -0.153 OA
ATOM      4  O   UNL     1      32.044 -10.674 -19.670  0.00  0.00    -0.153 OA
BRANCH   2   5
ATOM      5  C   UNL     1      32.205 -12.660 -21.342  0.00  0.00    +0.122 C 
ATOM      6  C   UNL     1      32.254 -13.057 -22.665  0.00  0.00    +0.023 C 
ATOM      7  C   UNL     1      32.708 -13.451 -20.325  0.00  0.00    +0.023 C 
ATOM      8  C   UNL     1      32.827 -14.289 -22.984  0.00  0.00    +0.038 C 
ATOM      9  C   UNL     1      33.281 -14.682 -20.643  0.00  0.00    +0.038 C 
ATOM     10  C   UNL     1      33.341 -15.102 -21.972  0.00  0.00    +0.139 C 
BRANCH  10  11
ATOM     11  O   UNL     1      33.899 -16.303 -22.282  0.00  0.00    -0.471 OA
ATOM     12  C   UNL     1      34.879 -16.815 -21.380  0.00  0.00    +0.252 C 
ENDBRANCH  10  11
ENDBRANCH   2   5
ENDBRANCH   1   2
BRANCH   1  13
ATOM     13  C   UNL     1      31.738  -8.632 -22.134  0.00  0.00    +0.158 C 
BRANCH  13  16
ATOM     14  O   UNL     1      33.953  -7.882 -21.505  0.00  0.00    -0.272 OA
ATOM     15  N   UNL     1      32.194  -7.512 -20.058  0.00  0.00    -0.196 N 
ATOM     16  C   UNL     1      32.760  -7.977 -21.219  0.00  0.00    +0.260 C 
ATOM     17  H   UNL     1      31.234  -7.608 -19.868  0.00  0.00    +0.182 HD
BRANCH  15  18
ATOM     18  O   UNL     1      33.071  -6.889 -19.159  0.00  0.00    -0.295 OA
ATOM     19  H   UNL     1      33.315  -6.014 -19.499  0.00  0.00    +0.241 HD
ENDBRANCH  15  18
ENDBRANCH  13  16
BRANCH  13  20
ATOM     20  C   UNL     1      31.698  -7.982 -23.532  0.00  0.00    +0.025 C 
ATOM     21  C   UNL     1      32.520  -6.692 -23.634  0.00  0.00    +0.002 C 
ATOM     22  C   UNL     1      30.257  -7.716 -23.981  0.00  0.00    +0.002 C 
ENDBRANCH  13  20
ENDBRANCH   1  13
BRANCH   1  23
ATOM     23  C   UNL     1      31.998 -10.598 -23.594  0.00  0.00    +0.124 C 
BRANCH  23  25
ATOM     24  N   UNL     1      35.544  -9.596 -24.385  0.00  0.00    -0.243 NA
ATOM     25  C   UNL     1      33.327 -10.523 -24.292  0.00  0.00    +0.015 C 
ATOM     26  C   UNL     1      33.564 -11.270 -25.431  0.00  0.00    +0.000 C 
ATOM     27  C   UNL     1      34.327  -9.710 -23.807  0.00  0.00    +0.096 C 
ATOM     28  C   UNL     1      34.804 -11.180 -26.055  0.00  0.00    +0.020 C 
ATOM     29  C   UNL     1      35.751 -10.337 -25.497  0.00  0.00    +0.099 C 
ENDBRANCH  23  25
ENDBRANCH   1  23
TORSDOF 9
ENDMDL
MODEL 9
REMARK VINA RESULT:      -6.2      2.294      3.294
REMARK  Name = 446504
REMARK  9 active torsions:
REMARK  status: ('A' for Active; 'I' for Inactive)
REMARK    1  A    between atoms: N_1  and  S_2
REMARK    2  A    between atoms: N_1  and  C_13
REMARK    3  A    between atoms: N_1  and  C_23
REMARK    4  A    between atoms: S_2  and  C_5
REMARK    5  A    between atoms: C_10  and  O_11
REMARK    6  A    between atoms: C_13  and  C_16
REMARK    7  A    between atoms: C_13  and  C_20
REMARK    8  A    between atoms: N_15  and  O_18
REMARK    9  A    between atoms: C_23  and  C_25
REMARK                            x       y       z     vdW  Elec       q    Type
REMARK                         _______ _______ _______ _____ _____    ______ ____
ROOT
ATOM      1  N   UNL     1      36.618 -23.901 -14.904  0.00  0.00    -0.144 NA
ENDROOT
BRANCH   1   2
ATOM      2  S   UNL     1      35.529 -25.202 -14.580  0.00  0.00    +0.064 S 
ATOM      3  O   UNL     1      35.749 -25.688 -13.231  0.00  0.00    -0.153 OA
ATOM      4  O   UNL     1      35.545 -26.139 -15.688  0.00  0.00    -0.153 OA
BRANCH   2   5
ATOM      5  C   UNL     1      33.952 -24.396 -14.598  0.00  0.00    +0.122 C 
ATOM      6  C   UNL     1      33.293 -24.235 -15.803  0.00  0.00    +0.023 C 
ATOM      7  C   UNL     1      33.413 -23.944 -13.407  0.00  0.00    +0.023 C 
ATOM      8  C   UNL     1      32.051 -23.600 -15.818  0.00  0.00    +0.038 C 
ATOM      9  C   UNL     1      32.171 -23.309 -13.422  0.00  0.00    +0.038 C 
ATOM     10  C   UNL     1      31.490 -23.137 -14.627  0.00  0.00    +0.139 C 
BRANCH  10  11
ATOM     11  O   UNL     1      30.279 -22.518 -14.641  0.00  0.00    -0.471 OA
ATOM     12  C   UNL     1      29.275 -23.075 -15.489  0.00  0.00    +0.252 C 
ENDBRANCH  10  11
ENDBRANCH   2   5
ENDBRANCH   1   2
BRANCH   1  13
ATOM     13  C   UNL     1      37.872 -23.836 -14.121  0.00  0.00    +0.158 C 
BRANCH  13  16
ATOM     14  O   UNL     1      37.792 -22.209 -12.330  0.00  0.00    -0.272 OA
ATOM     15  N   UNL     1      36.867 -24.295 -11.987  0.00  0.00    -0.196 N 
ATOM     16  C   UNL     1      37.519 -23.340 -12.729  0.00  0.00    +0.260 C 
ATOM     17  H   UNL     1      36.668 -25.189 -12.345  0.00  0.00    +0.182 HD
BRANCH  15  18
ATOM     18  O   UNL     1      36.503 -23.915 -10.688  0.00  0.00    -0.295 OA
ATOM     19  H   UNL     1      37.023 -24.422 -10.045  0.00  0.00    +0.241 HD
ENDBRANCH  15  18
ENDBRANCH  13  16
BRANCH  13  20
ATOM     20  C   UNL     1      38.608 -25.191 -14.094  0.00  0.00    +0.025 C 
ATOM     21  C   UNL     1      39.141 -25.573 -12.709  0.00  0.00    +0.002 C 
ATOM     22  C   UNL     1      39.748 -25.226 -15.117  0.00  0.00    +0.002 C 
ENDBRANCH  13  20
ENDBRANCH   1  13
BRANCH   1  23
ATOM     23  C   UNL     1      36.033 -22.555 -15.138  0.00  0.00    +0.124 C 
BRANCH  23  25
ATOM     24  N   UNL     1      35.138 -22.281 -18.789  0.00  0.00    -0.243 NA
ATOM     25  C   UNL     1      36.091 -22.152 -16.585  0.00  0.00    +0.015 C 
ATOM     26  C   UNL     1      37.097 -21.321 -17.041  0.00  0.00    +0.000 C 
ATOM     27  C   UNL     1      35.143 -22.605 -17.476  0.00  0.00    +0.096 C 
ATOM     28  C   UNL     1      37.126 -20.966 -18.385  0.00  0.00    +0.020 C 
ATOM     29  C   UNL     1      36.132 -21.468 -19.210  0.00  0.00    +0.099 C 
ENDBRANCH  23  25
ENDBRANCH   1  23
TORSDOF 9
ENDMDL
