MODEL 1
REMARK VINA RESULT:      -9.7      0.000      0.000
REMARK  Name = 117761397
REMARK  4 active torsions:
REMARK  status: ('A' for Active; 'I' for Inactive)
REMARK    1  A    between atoms: N_3  and  C_10
REMARK    2  A    between atoms: C_5  and  N_13
REMARK    3  A    between atoms: N_13  and  C_15
REMARK    4  A    between atoms: C_15  and  C_17
REMARK                            x       y       z     vdW  Elec       q    Type
REMARK                         _______ _______ _______ _____ _____    ______ ____
ROOT
ATOM      1  O   UNL     1      32.401 -14.070 -22.212  0.00  0.00    -0.252 OA
ATOM      2  O   UNL     1      34.576 -16.255 -25.721  0.00  0.00    -0.269 OA
ATOM      3  N   UNL     1      33.482 -15.073 -24.022  0.00  0.00    -0.212 N 
ATOM      4  N   UNL     1      33.818 -15.815 -21.811  0.00  0.00    -0.257 N 
ATOM      5  C   UNL     1      34.689 -16.803 -22.209  0.00  0.00    +0.105 C 
ATOM      6  C   UNL     1      33.176 -14.921 -22.654  0.00  0.00    +0.315 C 
ATOM      7  C   UNL     1      34.325 -16.065 -24.532  0.00  0.00    +0.259 C 
ATOM      8  C   UNL     1      34.950 -16.945 -23.517  0.00  0.00    +0.088 C 
ATOM      9  H   UNL     1      33.636 -15.736 -20.847  0.00  0.00    +0.158 HD
ENDROOT
BRANCH   3  10
ATOM     10  C   UNL     1      32.881 -14.136 -24.963  0.00  0.00    +0.084 C 
ATOM     11  C   UNL     1      33.722 -12.869 -25.065  0.00  0.00    +0.022 C 
ATOM     12  C   UNL     1      32.707 -14.793 -26.325  0.00  0.00    +0.022 C 
ENDBRANCH   3  10
BRANCH   5  13
ATOM     13  N   UNL     1      35.265 -17.620 -21.272  0.00  0.00    -0.319 N 
ATOM     14  H   UNL     1      35.369 -17.278 -20.355  0.00  0.00    +0.148 HD
BRANCH  13  15
ATOM     15  C   UNL     1      35.723 -18.951 -21.563  0.00  0.00    +0.093 C 
ATOM     16  C   UNL     1      37.236 -19.022 -21.368  0.00  0.00    +0.026 C 
BRANCH  15  17
ATOM     17  C   UNL     1      34.970 -19.959 -20.721  0.00  0.00    -0.005 C 
ATOM     18  C   UNL     1      35.670 -20.933 -20.009  0.00  0.00    -0.003 C 
ATOM     19  C   UNL     1      33.578 -19.913 -20.658  0.00  0.00    -0.003 C 
ATOM     20  C   UNL     1      34.975 -21.862 -19.233  0.00  0.00    -0.000 C 
ATOM     21  C   UNL     1      32.884 -20.841 -19.882  0.00  0.00    -0.000 C 
ATOM     22  C   UNL     1      33.583 -21.816 -19.170  0.00  0.00    -0.000 C 
ENDBRANCH  15  17
ENDBRANCH  13  15
ENDBRANCH   5  13
TORSDOF 4
ENDMDL
MODEL 2
REMARK VINA RESULT:      -9.5      0.627      2.136
REMARK  Name = 117761397
REMARK  4 active torsions:
REMARK  status: ('A' for Active; 'I' for Inactive)
REMARK    1  A    between atoms: N_3  and  C_10
REMARK    2  A    between atoms: C_5  and  N_13
REMARK    3  A    between atoms: N_13  and  C_15
REMARK    4  A    between atoms: C_15  and  C_17
REMARK                            x       y       z     vdW  Elec       q    Type
REMARK                         _______ _______ _______ _____ _____    ______ ____
ROOT
ATOM      1  O   UNL     1      34.908 -16.121 -25.388  0.00  0.00    -0.252 OA
ATOM      2  O   UNL     1      32.320 -14.105 -22.063  0.00  0.00    -0.269 OA
ATOM      3  N   UNL     1      33.545 -15.086 -23.800  0.00  0.00    -0.212 N 
ATOM      4  N   UNL     1      34.993 -16.853 -23.226  0.00  0.00    -0.257 N 
ATOM      5  C   UNL     1      34.617 -16.815 -21.904  0.00  0.00    +0.105 C 
ATOM      6  C   UNL     1      34.509 -16.024 -24.225  0.00  0.00    +0.315 C 
ATOM      7  C   UNL     1      33.121 -14.942 -22.476  0.00  0.00    +0.259 C 
ATOM      8  C   UNL     1      33.716 -15.901 -21.515  0.00  0.00    +0.088 C 
ATOM      9  H   UNL     1      35.662 -17.527 -23.486  0.00  0.00    +0.158 HD
ENDROOT
BRANCH   3  10
ATOM     10  C   UNL     1      32.954 -14.212 -24.806  0.00  0.00    +0.084 C 
ATOM     11  C   UNL     1      33.753 -12.921 -24.926  0.00  0.00    +0.022 C 
ATOM     12  C   UNL     1      32.862 -14.931 -26.145  0.00  0.00    +0.022 C 
ENDBRANCH   3  10
BRANCH   5  13
ATOM     13  N   UNL     1      35.169 -17.698 -21.013  0.00  0.00    -0.319 N 
ATOM     14  H   UNL     1      35.273 -17.414 -20.076  0.00  0.00    +0.148 HD
BRANCH  13  15
ATOM     15  C   UNL     1      35.603 -19.019 -21.380  0.00  0.00    +0.093 C 
ATOM     16  C   UNL     1      37.120 -19.115 -21.231  0.00  0.00    +0.026 C 
BRANCH  15  17
ATOM     17  C   UNL     1      34.862 -20.058 -20.567  0.00  0.00    -0.005 C 
ATOM     18  C   UNL     1      33.468 -20.047 -20.525  0.00  0.00    -0.003 C 
ATOM     19  C   UNL     1      35.574 -21.027 -19.860  0.00  0.00    -0.003 C 
ATOM     20  C   UNL     1      32.786 -21.005 -19.775  0.00  0.00    -0.000 C 
ATOM     21  C   UNL     1      34.891 -21.984 -19.110  0.00  0.00    -0.000 C 
ATOM     22  C   UNL     1      33.497 -21.973 -19.068  0.00  0.00    -0.000 C 
ENDBRANCH  15  17
ENDBRANCH  13  15
ENDBRANCH   5  13
TORSDOF 4
ENDMDL
MODEL 3
REMARK VINA RESULT:      -9.5      3.238      5.215
REMARK  Name = 117761397
REMARK  4 active torsions:
REMARK  status: ('A' for Active; 'I' for Inactive)
REMARK    1  A    between atoms: N_3  and  C_10
REMARK    2  A    between atoms: C_5  and  N_13
REMARK    3  A    between atoms: N_13  and  C_15
REMARK    4  A    between atoms: C_15  and  C_17
REMARK                            x       y       z     vdW  Elec       q    Type
REMARK                         _______ _______ _______ _____ _____    ______ ____
ROOT
ATOM      1  O   UNL     1      30.426 -11.282 -21.093  0.00  0.00    -0.252 OA
ATOM      2  O   UNL     1      33.699  -9.828 -24.091  0.00  0.00    -0.269 OA
ATOM      3  N   UNL     1      32.066 -10.464 -22.539  0.00  0.00    -0.212 N 
ATOM      4  N   UNL     1      31.795 -12.772 -22.152  0.00  0.00    -0.257 N 
ATOM      5  C   UNL     1      32.819 -13.100 -23.010  0.00  0.00    +0.105 C 
ATOM      6  C   UNL     1      31.360 -11.486 -21.871  0.00  0.00    +0.315 C 
ATOM      7  C   UNL     1      33.096 -10.692 -23.456  0.00  0.00    +0.259 C 
ATOM      8  C   UNL     1      33.463 -12.114 -23.653  0.00  0.00    +0.088 C 
ATOM      9  H   UNL     1      31.332 -13.513 -21.698  0.00  0.00    +0.158 HD
ENDROOT
BRANCH   3  10
ATOM     10  C   UNL     1      31.697  -9.082 -22.255  0.00  0.00    +0.084 C 
ATOM     11  C   UNL     1      32.863  -8.339 -21.616  0.00  0.00    +0.022 C 
ATOM     12  C   UNL     1      31.231  -8.387 -23.527  0.00  0.00    +0.022 C 
ENDBRANCH   3  10
BRANCH   5  13
ATOM     13  N   UNL     1      33.156 -14.414 -23.196  0.00  0.00    -0.319 N 
ATOM     14  H   UNL     1      32.514 -15.001 -23.659  0.00  0.00    +0.148 HD
BRANCH  13  15
ATOM     15  C   UNL     1      34.401 -14.979 -22.750  0.00  0.00    +0.093 C 
ATOM     16  C   UNL     1      34.475 -14.905 -21.226  0.00  0.00    +0.026 C 
BRANCH  15  17
ATOM     17  C   UNL     1      34.558 -16.386 -23.282  0.00  0.00    -0.005 C 
ATOM     18  C   UNL     1      34.358 -16.646 -24.638  0.00  0.00    -0.003 C 
ATOM     19  C   UNL     1      34.903 -17.424 -22.417  0.00  0.00    -0.003 C 
ATOM     20  C   UNL     1      34.503 -17.945 -25.127  0.00  0.00    -0.000 C 
ATOM     21  C   UNL     1      35.048 -18.722 -22.907  0.00  0.00    -0.000 C 
ATOM     22  C   UNL     1      34.848 -18.982 -24.262  0.00  0.00    -0.000 C 
ENDBRANCH  15  17
ENDBRANCH  13  15
ENDBRANCH   5  13
TORSDOF 4
ENDMDL
MODEL 4
REMARK VINA RESULT:      -9.5      2.628      7.921
REMARK  Name = 117761397
REMARK  4 active torsions:
REMARK  status: ('A' for Active; 'I' for Inactive)
REMARK    1  A    between atoms: N_3  and  C_10
REMARK    2  A    between atoms: C_5  and  N_13
REMARK    3  A    between atoms: N_13  and  C_15
REMARK    4  A    between atoms: C_15  and  C_17
REMARK                            x       y       z     vdW  Elec       q    Type
REMARK                         _______ _______ _______ _____ _____    ______ ____
ROOT
ATOM      1  O   UNL     1      34.904 -15.164 -20.196  0.00  0.00    -0.252 OA
ATOM      2  O   UNL     1      34.544 -17.443 -24.257  0.00  0.00    -0.269 OA
ATOM      3  N   UNL     1      34.713 -16.392 -22.171  0.00  0.00    -0.212 N 
ATOM      4  N   UNL     1      34.100 -14.121 -22.062  0.00  0.00    -0.257 N 
ATOM      5  C   UNL     1      33.740 -14.089 -23.389  0.00  0.00    +0.105 C 
ATOM      6  C   UNL     1      34.596 -15.226 -21.388  0.00  0.00    +0.315 C 
ATOM      7  C   UNL     1      34.408 -16.457 -23.534  0.00  0.00    +0.259 C 
ATOM      8  C   UNL     1      33.879 -15.203 -24.122  0.00  0.00    +0.088 C 
ATOM      9  H   UNL     1      33.996 -13.289 -21.546  0.00  0.00    +0.158 HD
ENDROOT
BRANCH   3  10
ATOM     10  C   UNL     1      35.183 -17.609 -21.518  0.00  0.00    +0.084 C 
ATOM     11  C   UNL     1      34.032 -18.588 -21.325  0.00  0.00    +0.022 C 
ATOM     12  C   UNL     1      36.313 -18.238 -22.321  0.00  0.00    +0.022 C 
ENDBRANCH   3  10
BRANCH   5  13
ATOM     13  N   UNL     1      33.254 -12.930 -23.935  0.00  0.00    -0.319 N 
ATOM     14  H   UNL     1      32.302 -12.714 -23.803  0.00  0.00    +0.148 HD
BRANCH  13  15
ATOM     15  C   UNL     1      34.065 -12.015 -24.690  0.00  0.00    +0.093 C 
ATOM     16  C   UNL     1      33.683 -12.097 -26.166  0.00  0.00    +0.026 C 
BRANCH  15  17
ATOM     17  C   UNL     1      33.942 -10.617 -24.124  0.00  0.00    -0.005 C 
ATOM     18  C   UNL     1      32.863 -10.290 -23.304  0.00  0.00    -0.003 C 
ATOM     19  C   UNL     1      34.907  -9.656 -24.424  0.00  0.00    -0.003 C 
ATOM     20  C   UNL     1      32.750  -9.000 -22.783  0.00  0.00    -0.000 C 
ATOM     21  C   UNL     1      34.794  -8.368 -23.903  0.00  0.00    -0.000 C 
ATOM     22  C   UNL     1      33.715  -8.040 -23.082  0.00  0.00    -0.000 C 
ENDBRANCH  15  17
ENDBRANCH  13  15
ENDBRANCH   5  13
TORSDOF 4
ENDMDL
MODEL 5
REMARK VINA RESULT:      -9.4      3.218      5.403
REMARK  Name = 117761397
REMARK  4 active torsions:
REMARK  status: ('A' for Active; 'I' for Inactive)
REMARK    1  A    between atoms: N_3  and  C_10
REMARK    2  A    between atoms: C_5  and  N_13
REMARK    3  A    between atoms: N_13  and  C_15
REMARK    4  A    between atoms: C_15  and  C_17
REMARK                            x       y       z     vdW  Elec       q    Type
REMARK                         _______ _______ _______ _____ _____    ______ ____
ROOT
ATOM      1  O   UNL     1      34.683 -10.079 -24.694  0.00  0.00    -0.252 OA
ATOM      2  O   UNL     1      31.130 -10.486 -21.689  0.00  0.00    -0.269 OA
ATOM      3  N   UNL     1      32.869 -10.192 -23.229  0.00  0.00    -0.212 N 
ATOM      4  N   UNL     1      33.984 -12.130 -23.970  0.00  0.00    -0.257 N 
ATOM      5  C   UNL     1      33.166 -12.957 -23.236  0.00  0.00    +0.105 C 
ATOM      6  C   UNL     1      33.901 -10.747 -24.013  0.00  0.00    +0.315 C 
ATOM      7  C   UNL     1      32.008 -10.940 -22.421  0.00  0.00    +0.259 C 
ATOM      8  C   UNL     1      32.205 -12.408 -22.480  0.00  0.00    +0.088 C 
ATOM      9  H   UNL     1      34.688 -12.555 -24.511  0.00  0.00    +0.158 HD
ENDROOT
BRANCH   3  10
ATOM     10  C   UNL     1      32.689  -8.745 -23.263  0.00  0.00    +0.084 C 
ATOM     11  C   UNL     1      31.255  -8.395 -23.639  0.00  0.00    +0.022 C 
ATOM     12  C   UNL     1      33.074  -8.132 -21.923  0.00  0.00    +0.022 C 
ENDBRANCH   3  10
BRANCH   5  13
ATOM     13  N   UNL     1      33.349 -14.314 -23.286  0.00  0.00    -0.319 N 
ATOM     14  H   UNL     1      32.654 -14.864 -23.715  0.00  0.00    +0.148 HD
BRANCH  13  15
ATOM     15  C   UNL     1      34.506 -14.973 -22.744  0.00  0.00    +0.093 C 
ATOM     16  C   UNL     1      34.456 -14.913 -21.218  0.00  0.00    +0.026 C 
BRANCH  15  17
ATOM     17  C   UNL     1      34.601 -16.386 -23.277  0.00  0.00    -0.005 C 
ATOM     18  C   UNL     1      34.835 -17.446 -22.403  0.00  0.00    -0.003 C 
ATOM     19  C   UNL     1      34.454 -16.626 -24.643  0.00  0.00    -0.003 C 
ATOM     20  C   UNL     1      34.923 -18.749 -22.896  0.00  0.00    -0.000 C 
ATOM     21  C   UNL     1      34.542 -17.928 -25.135  0.00  0.00    -0.000 C 
ATOM     22  C   UNL     1      34.776 -18.990 -24.261  0.00  0.00    -0.000 C 
ENDBRANCH  15  17
ENDBRANCH  13  15
ENDBRANCH   5  13
TORSDOF 4
ENDMDL
MODEL 6
REMARK VINA RESULT:      -9.3      2.569      7.949
REMARK  Name = 117761397
REMARK  4 active torsions:
REMARK  status: ('A' for Active; 'I' for Inactive)
REMARK    1  A    between atoms: N_3  and  C_10
REMARK    2  A    between atoms: C_5  and  N_13
REMARK    3  A    between atoms: N_13  and  C_15
REMARK    4  A    between atoms: C_15  and  C_17
REMARK                            x       y       z     vdW  Elec       q    Type
REMARK                         _______ _______ _______ _____ _____    ______ ____
ROOT
ATOM      1  O   UNL     1      34.187 -17.357 -25.512  0.00  0.00    -0.252 OA
ATOM      2  O   UNL     1      34.930 -16.265 -21.032  0.00  0.00    -0.269 OA
ATOM      3  N   UNL     1      34.631 -16.887 -23.269  0.00  0.00    -0.212 N 
ATOM      4  N   UNL     1      33.776 -15.250 -24.732  0.00  0.00    -0.257 N 
ATOM      5  C   UNL     1      33.744 -14.294 -23.744  0.00  0.00    +0.105 C 
ATOM      6  C   UNL     1      34.199 -16.560 -24.571  0.00  0.00    +0.315 C 
ATOM      7  C   UNL     1      34.606 -16.000 -22.188  0.00  0.00    +0.259 C 
ATOM      8  C   UNL     1      34.138 -14.631 -22.507  0.00  0.00    +0.088 C 
ATOM      9  H   UNL     1      33.474 -14.982 -25.629  0.00  0.00    +0.158 HD
ENDROOT
BRANCH   3  10
ATOM     10  C   UNL     1      35.137 -18.234 -23.036  0.00  0.00    +0.084 C 
ATOM     11  C   UNL     1      36.533 -18.182 -22.427  0.00  0.00    +0.022 C 
ATOM     12  C   UNL     1      34.177 -19.014 -22.149  0.00  0.00    +0.022 C 
ENDBRANCH   3  10
BRANCH   5  13
ATOM     13  N   UNL     1      33.308 -13.028 -24.035  0.00  0.00    -0.319 N 
ATOM     14  H   UNL     1      32.412 -12.760 -23.728  0.00  0.00    +0.148 HD
BRANCH  13  15
ATOM     15  C   UNL     1      34.095 -12.073 -24.766  0.00  0.00    +0.093 C 
ATOM     16  C   UNL     1      33.699 -12.111 -26.241  0.00  0.00    +0.026 C 
BRANCH  15  17
ATOM     17  C   UNL     1      33.954 -10.698 -24.151  0.00  0.00    -0.005 C 
ATOM     18  C   UNL     1      34.874  -9.698 -24.462  0.00  0.00    -0.003 C 
ATOM     19  C   UNL     1      32.903 -10.432 -23.273  0.00  0.00    -0.003 C 
ATOM     20  C   UNL     1      34.743  -8.429 -23.894  0.00  0.00    -0.000 C 
ATOM     21  C   UNL     1      32.773  -9.165 -22.706  0.00  0.00    -0.000 C 
ATOM     22  C   UNL     1      33.693  -8.164 -23.016  0.00  0.00    -0.000 C 
ENDBRANCH  15  17
ENDBRANCH  13  15
ENDBRANCH   5  13
TORSDOF 4
ENDMDL
MODEL 7
REMARK VINA RESULT:      -9.3      3.654      5.944
REMARK  Name = 117761397
REMARK  4 active torsions:
REMARK  status: ('A' for Active; 'I' for Inactive)
REMARK    1  A    between atoms: N_3  and  C_10
REMARK    2  A    between atoms: C_5  and  N_13
REMARK    3  A    between atoms: N_13  and  C_15
REMARK    4  A    between atoms: C_15  and  C_17
REMARK                            x       y       z     vdW  Elec       q    Type
REMARK                         _______ _______ _______ _____ _____    ______ ____
ROOT
ATOM      1  O   UNL     1      34.046  -8.836 -23.973  0.00  0.00    -0.252 OA
ATOM      2  O   UNL     1      30.903 -11.237 -21.489  0.00  0.00    -0.269 OA
ATOM      3  N   UNL     1      32.410  -9.954 -22.739  0.00  0.00    -0.212 N 
ATOM      4  N   UNL     1      34.026 -11.120 -23.996  0.00  0.00    -0.257 N 
ATOM      5  C   UNL     1      33.525 -12.345 -23.620  0.00  0.00    +0.105 C 
ATOM      6  C   UNL     1      33.529  -9.890 -23.595  0.00  0.00    +0.315 C 
ATOM      7  C   UNL     1      31.847 -11.145 -22.272  0.00  0.00    +0.259 C 
ATOM      8  C   UNL     1      32.474 -12.385 -22.788  0.00  0.00    +0.088 C 
ATOM      9  H   UNL     1      34.803 -11.116 -24.600  0.00  0.00    +0.158 HD
ENDROOT
BRANCH   3  10
ATOM     10  C   UNL     1      31.802  -8.698 -22.315  0.00  0.00    +0.084 C 
ATOM     11  C   UNL     1      32.802  -7.860 -21.530  0.00  0.00    +0.022 C 
ATOM     12  C   UNL     1      31.268  -7.936 -23.520  0.00  0.00    +0.022 C 
ENDBRANCH   3  10
BRANCH   5  13
ATOM     13  N   UNL     1      34.105 -13.492 -24.094  0.00  0.00    -0.319 N 
ATOM     14  H   UNL     1      35.089 -13.546 -24.109  0.00  0.00    +0.148 HD
BRANCH  13  15
ATOM     15  C   UNL     1      33.350 -14.619 -24.568  0.00  0.00    +0.093 C 
ATOM     16  C   UNL     1      33.095 -14.465 -26.066  0.00  0.00    +0.026 C 
BRANCH  15  17
ATOM     17  C   UNL     1      34.060 -15.909 -24.219  0.00  0.00    -0.005 C 
ATOM     18  C   UNL     1      34.648 -16.064 -22.964  0.00  0.00    -0.003 C 
ATOM     19  C   UNL     1      34.126 -16.943 -25.152  0.00  0.00    -0.003 C 
ATOM     20  C   UNL     1      35.303 -17.254 -22.643  0.00  0.00    -0.000 C 
ATOM     21  C   UNL     1      34.780 -18.132 -24.831  0.00  0.00    -0.000 C 
ATOM     22  C   UNL     1      35.368 -18.287 -23.576  0.00  0.00    -0.000 C 
ENDBRANCH  15  17
ENDBRANCH  13  15
ENDBRANCH   5  13
TORSDOF 4
ENDMDL
MODEL 8
REMARK VINA RESULT:      -9.2      6.486     10.592
REMARK  Name = 117761397
REMARK  4 active torsions:
REMARK  status: ('A' for Active; 'I' for Inactive)
REMARK    1  A    between atoms: N_3  and  C_10
REMARK    2  A    between atoms: C_5  and  N_13
REMARK    3  A    between atoms: N_13  and  C_15
REMARK    4  A    between atoms: C_15  and  C_17
REMARK                            x       y       z     vdW  Elec       q    Type
REMARK                         _______ _______ _______ _____ _____    ______ ____
ROOT
ATOM      1  O   UNL     1      38.972 -24.201 -14.943  0.00  0.00    -0.252 OA
ATOM      2  O   UNL     1      34.598 -23.831 -13.346  0.00  0.00    -0.269 OA
ATOM      3  N   UNL     1      36.823 -24.024 -14.047  0.00  0.00    -0.212 N 
ATOM      4  N   UNL     1      37.372 -23.096 -16.141  0.00  0.00    -0.257 N 
ATOM      5  C   UNL     1      36.096 -22.622 -16.336  0.00  0.00    +0.105 C 
ATOM      6  C   UNL     1      37.807 -23.805 -15.033  0.00  0.00    +0.315 C 
ATOM      7  C   UNL     1      35.491 -23.615 -14.163  0.00  0.00    +0.259 C 
ATOM      8  C   UNL     1      35.168 -22.860 -15.397  0.00  0.00    +0.088 C 
ATOM      9  H   UNL     1      38.033 -22.916 -16.849  0.00  0.00    +0.158 HD
ENDROOT
BRANCH   3  10
ATOM     10  C   UNL     1      37.220 -24.720 -12.829  0.00  0.00    +0.084 C 
ATOM     11  C   UNL     1      37.885 -26.049 -13.167  0.00  0.00    +0.022 C 
ATOM     12  C   UNL     1      38.139 -23.841 -11.992  0.00  0.00    +0.022 C 
ENDBRANCH   3  10
BRANCH   5  13
ATOM     13  N   UNL     1      35.794 -21.927 -17.478  0.00  0.00    -0.319 N 
ATOM     14  H   UNL     1      36.210 -21.044 -17.611  0.00  0.00    +0.148 HD
BRANCH  13  15
ATOM     15  C   UNL     1      34.903 -22.424 -18.491  0.00  0.00    +0.093 C 
ATOM     16  C   UNL     1      33.640 -22.973 -17.830  0.00  0.00    +0.026 C 
BRANCH  15  17
ATOM     17  C   UNL     1      34.616 -21.344 -19.511  0.00  0.00    -0.005 C 
ATOM     18  C   UNL     1      35.669 -20.693 -20.152  0.00  0.00    -0.003 C 
ATOM     19  C   UNL     1      33.298 -21.002 -19.810  0.00  0.00    -0.003 C 
ATOM     20  C   UNL     1      35.403 -19.697 -21.092  0.00  0.00    -0.000 C 
ATOM     21  C   UNL     1      33.032 -20.007 -20.751  0.00  0.00    -0.000 C 
ATOM     22  C   UNL     1      34.086 -19.354 -21.392  0.00  0.00    -0.000 C 
ENDBRANCH  15  17
ENDBRANCH  13  15
ENDBRANCH   5  13
TORSDOF 4
ENDMDL
MODEL 9
REMARK VINA RESULT:      -9.0      4.041      6.383
REMARK  Name = 117761397
REMARK  4 active torsions:
REMARK  status: ('A' for Active; 'I' for Inactive)
REMARK    1  A    between atoms: N_3  and  C_10
REMARK    2  A    between atoms: C_5  and  N_13
REMARK    3  A    between atoms: N_13  and  C_15
REMARK    4  A    between atoms: C_15  and  C_17
REMARK                            x       y       z     vdW  Elec       q    Type
REMARK                         _______ _______ _______ _____ _____    ______ ____
ROOT
ATOM      1  O   UNL     1      32.035 -20.067 -20.954  0.00  0.00    -0.252 OA
ATOM      2  O   UNL     1      36.685 -20.108 -20.517  0.00  0.00    -0.269 OA
ATOM      3  N   UNL     1      34.360 -19.985 -20.763  0.00  0.00    -0.212 N 
ATOM      4  N   UNL     1      33.070 -21.533 -19.542  0.00  0.00    -0.257 N 
ATOM      5  C   UNL     1      34.181 -22.082 -18.944  0.00  0.00    +0.105 C 
ATOM      6  C   UNL     1      33.080 -20.494 -20.459  0.00  0.00    +0.315 C 
ATOM      7  C   UNL     1      35.552 -20.495 -20.238  0.00  0.00    +0.259 C 
ATOM      8  C   UNL     1      35.391 -21.599 -19.263  0.00  0.00    +0.088 C 
ATOM      9  H   UNL     1      32.194 -21.909 -19.298  0.00  0.00    +0.158 HD
ENDROOT
BRANCH   3  10
ATOM     10  C   UNL     1      34.446 -18.858 -21.683  0.00  0.00    +0.084 C 
ATOM     11  C   UNL     1      35.303 -17.748 -21.088  0.00  0.00    +0.022 C 
ATOM     12  C   UNL     1      34.990 -19.313 -23.030  0.00  0.00    +0.022 C 
ENDBRANCH   3  10
BRANCH   5  13
ATOM     13  N   UNL     1      34.034 -23.106 -18.046  0.00  0.00    -0.319 N 
ATOM     14  H   UNL     1      33.982 -24.027 -18.391  0.00  0.00    +0.148 HD
BRANCH  13  15
ATOM     15  C   UNL     1      33.953 -22.902 -16.625  0.00  0.00    +0.093 C 
ATOM     16  C   UNL     1      32.643 -23.487 -16.102  0.00  0.00    +0.026 C 
BRANCH  15  17
ATOM     17  C   UNL     1      35.173 -23.481 -15.943  0.00  0.00    -0.005 C 
ATOM     18  C   UNL     1      35.066 -24.660 -15.206  0.00  0.00    -0.003 C 
ATOM     19  C   UNL     1      36.405 -22.835 -16.052  0.00  0.00    -0.003 C 
ATOM     20  C   UNL     1      36.192 -25.193 -14.577  0.00  0.00    -0.000 C 
ATOM     21  C   UNL     1      37.530 -23.369 -15.424  0.00  0.00    -0.000 C 
ATOM     22  C   UNL     1      37.423 -24.548 -14.686  0.00  0.00    -0.000 C 
ENDBRANCH  15  17
ENDBRANCH  13  15
ENDBRANCH   5  13
TORSDOF 4
ENDMDL
