MODEL 1
REMARK VINA RESULT:      -9.5      0.000      0.000
REMARK  Name = 16623
REMARK  10 active torsions:
REMARK  status: ('A' for Active; 'I' for Inactive)
REMARK    1  A    between atoms: C_6  and  O_21
REMARK    2  A    between atoms: C_6  and  C_26
REMARK    3  A    between atoms: C_9  and  O_23
REMARK    4  A    between atoms: C_26  and  C_27
REMARK    5  A    between atoms: C_27  and  O_28
REMARK    6  A    between atoms: O_28  and  C_30
REMARK    7  A    between atoms: C_30  and  C_31
REMARK    8  A    between atoms: C_31  and  C_32
REMARK    9  A    between atoms: C_32  and  C_34
REMARK   10  A    between atoms: C_34  and  O_35
REMARK                            x       y       z     vdW  Elec       q    Type
REMARK                         _______ _______ _______ _____ _____    ______ ____
ROOT
ATOM      1  O   UNL     1      40.854 -25.924 -14.713  0.00  0.00    -0.291 OA
ATOM      2  C   UNL     1      32.689 -23.801 -14.262  0.00  0.00    +0.031 C 
ATOM      3  C   UNL     1      33.633 -23.679 -15.476  0.00  0.00    +0.003 C 
ATOM      4  C   UNL     1      35.070 -23.285 -15.101  0.00  0.00    +0.003 C 
ATOM      5  C   UNL     1      35.658 -24.372 -14.144  0.00  0.00    +0.030 C 
ATOM      6  C   UNL     1      31.363 -24.132 -15.000  0.00  0.00    +0.143 C 
ATOM      7  C   UNL     1      33.249 -24.912 -13.350  0.00  0.00    +0.032 C 
ATOM      8  C   UNL     1      37.178 -24.117 -13.781  0.00  0.00    +0.018 C 
ATOM      9  C   UNL     1      34.718 -24.672 -12.935  0.00  0.00    +0.111 C 
ATOM     10  C   UNL     1      32.853 -22.792 -16.443  0.00  0.00    +0.003 C 
ATOM     11  C   UNL     1      31.384 -23.215 -16.245  0.00  0.00    +0.034 C 
ATOM     12  C   UNL     1      35.936 -23.159 -16.364  0.00  0.00    +0.004 C 
ATOM     13  C   UNL     1      32.527 -22.472 -13.473  0.00  0.00    +0.003 C 
ATOM     14  C   UNL     1      37.969 -23.866 -15.073  0.00  0.00    -0.042 C 
ATOM     15  C   UNL     1      37.387 -22.852 -16.027  0.00  0.00    +0.022 C 
ATOM     16  C   UNL     1      37.721 -25.387 -13.063  0.00  0.00    +0.012 C 
ATOM     17  C   UNL     1      37.398 -22.891 -12.867  0.00  0.00    +0.004 C 
ATOM     18  C   UNL     1      39.239 -25.453 -13.009  0.00  0.00    +0.069 C 
ATOM     19  C   UNL     1      39.137 -24.460 -15.367  0.00  0.00    +0.029 C 
ATOM     20  C   UNL     1      39.814 -25.351 -14.397  0.00  0.00    +0.173 C 
ENDROOT
BRANCH   6  21
ATOM     21  O   UNL     1      31.331 -25.493 -15.419  0.00  0.00    -0.380 OA
ATOM     22  H   UNL     1      31.135 -25.534 -16.368  0.00  0.00    +0.211 HD
ENDBRANCH   6  21
BRANCH   9  23
ATOM     23  O   UNL     1      34.771 -23.633 -11.968  0.00  0.00    -0.384 OA
ATOM     24  H   UNL     1      34.574 -22.784 -12.394  0.00  0.00    +0.210 HD
ENDBRANCH   9  23
BRANCH   6  26
ATOM     25  O   UNL     1      30.090 -24.395 -13.002  0.00  0.00    -0.290 OA
ATOM     26  C   UNL     1      30.138 -23.960 -14.152  0.00  0.00    +0.218 C 
BRANCH  26  27
ATOM     27  C   UNL     1      28.978 -23.227 -14.791  0.00  0.00    +0.274 C 
BRANCH  27  28
ATOM     28  O   UNL     1      28.127 -24.130 -15.464  0.00  0.00    -0.440 OA
BRANCH  28  30
ATOM     29  O   UNL     1      27.686 -24.656 -17.666  0.00  0.00    -0.250 OA
ATOM     30  C   UNL     1      27.840 -23.832 -16.776  0.00  0.00    +0.318 C 
BRANCH  30  31
ATOM     31  C   UNL     1      27.749 -22.330 -16.944  0.00  0.00    +0.121 C 
BRANCH  31  32
ATOM     32  C   UNL     1      26.319 -21.806 -16.891  0.00  0.00    +0.121 C 
BRANCH  32  34
ATOM     33  O   UNL     1      25.748 -21.559 -19.225  0.00  0.00    -0.250 OA
ATOM     34  C   UNL     1      25.970 -21.037 -18.141  0.00  0.00    +0.314 C 
BRANCH  34  35
ATOM     35  O   UNL     1      25.905 -19.699 -17.930  0.00  0.00    -0.480 OA
ATOM     36  H   UNL     1      26.252 -19.108 -18.569  0.00  0.00    +0.295 HD
ENDBRANCH  34  35
ENDBRANCH  32  34
ENDBRANCH  31  32
ENDBRANCH  30  31
ENDBRANCH  28  30
ENDBRANCH  27  28
ENDBRANCH  26  27
ENDBRANCH   6  26
TORSDOF 10
ENDMDL
MODEL 2
REMARK VINA RESULT:      -8.9      9.395     12.229
REMARK  Name = 16623
REMARK  10 active torsions:
REMARK  status: ('A' for Active; 'I' for Inactive)
REMARK    1  A    between atoms: C_6  and  O_21
REMARK    2  A    between atoms: C_6  and  C_26
REMARK    3  A    between atoms: C_9  and  O_23
REMARK    4  A    between atoms: C_26  and  C_27
REMARK    5  A    between atoms: C_27  and  O_28
REMARK    6  A    between atoms: O_28  and  C_30
REMARK    7  A    between atoms: C_30  and  C_31
REMARK    8  A    between atoms: C_31  and  C_32
REMARK    9  A    between atoms: C_32  and  C_34
REMARK   10  A    between atoms: C_34  and  O_35
REMARK                            x       y       z     vdW  Elec       q    Type
REMARK                         _______ _______ _______ _____ _____    ______ ____
ROOT
ATOM      1  O   UNL     1      34.242 -10.121 -25.857  0.00  0.00    -0.291 OA
ATOM      2  C   UNL     1      34.817 -17.700 -22.169  0.00  0.00    +0.031 C 
ATOM      3  C   UNL     1      34.813 -17.379 -23.679  0.00  0.00    +0.003 C 
ATOM      4  C   UNL     1      33.879 -16.220 -24.060  0.00  0.00    +0.003 C 
ATOM      5  C   UNL     1      34.335 -14.935 -23.297  0.00  0.00    +0.030 C 
ATOM      6  C   UNL     1      35.781 -18.918 -22.168  0.00  0.00    +0.143 C 
ATOM      7  C   UNL     1      35.317 -16.442 -21.430  0.00  0.00    +0.032 C 
ATOM      8  C   UNL     1      33.502 -13.650 -23.702  0.00  0.00    +0.018 C 
ATOM      9  C   UNL     1      34.497 -15.177 -21.764  0.00  0.00    +0.111 C 
ATOM     10  C   UNL     1      34.599 -18.744 -24.330  0.00  0.00    +0.003 C 
ATOM     11  C   UNL     1      35.378 -19.722 -23.427  0.00  0.00    +0.034 C 
ATOM     12  C   UNL     1      33.914 -15.983 -25.578  0.00  0.00    +0.004 C 
ATOM     13  C   UNL     1      33.426 -18.137 -21.631  0.00  0.00    +0.003 C 
ATOM     14  C   UNL     1      33.459 -13.539 -25.233  0.00  0.00    -0.042 C 
ATOM     15  C   UNL     1      33.065 -14.788 -25.983  0.00  0.00    +0.022 C 
ATOM     16  C   UNL     1      34.214 -12.404 -23.098  0.00  0.00    +0.012 C 
ATOM     17  C   UNL     1      32.039 -13.681 -23.207  0.00  0.00    +0.004 C 
ATOM     18  C   UNL     1      33.770 -11.089 -23.719  0.00  0.00    +0.069 C 
ATOM     19  C   UNL     1      33.711 -12.408 -25.913  0.00  0.00    +0.029 C 
ATOM     20  C   UNL     1      33.960 -11.128 -25.211  0.00  0.00    +0.173 C 
ENDROOT
BRANCH   6  21
ATOM     21  O   UNL     1      37.138 -18.503 -22.291  0.00  0.00    -0.380 OA
ATOM     22  H   UNL     1      37.688 -19.264 -22.529  0.00  0.00    +0.211 HD
ENDBRANCH   6  21
BRANCH   9  23
ATOM     23  O   UNL     1      33.235 -15.249 -21.115  0.00  0.00    -0.384 OA
ATOM     24  H   UNL     1      32.570 -15.581 -21.738  0.00  0.00    +0.210 HD
ENDBRANCH   9  23
BRANCH   6  26
ATOM     25  O   UNL     1      36.463 -19.458 -19.949  0.00  0.00    -0.290 OA
ATOM     26  C   UNL     1      35.736 -19.725 -20.905  0.00  0.00    +0.218 C 
BRANCH  26  27
ATOM     27  C   UNL     1      34.751 -20.876 -20.879  0.00  0.00    +0.274 C 
BRANCH  27  28
ATOM     28  O   UNL     1      34.780 -21.528 -19.627  0.00  0.00    -0.440 OA
BRANCH  28  30
ATOM     29  O   UNL     1      32.550 -21.165 -19.163  0.00  0.00    -0.250 OA
ATOM     30  C   UNL     1      33.560 -21.851 -19.082  0.00  0.00    +0.318 C 
BRANCH  30  31
ATOM     31  C   UNL     1      33.663 -23.181 -18.367  0.00  0.00    +0.121 C 
BRANCH  31  32
ATOM     32  C   UNL     1      33.165 -23.127 -16.927  0.00  0.00    +0.121 C 
BRANCH  32  34
ATOM     33  O   UNL     1      35.419 -23.658 -16.239  0.00  0.00    -0.250 OA
ATOM     34  C   UNL     1      34.307 -23.237 -15.947  0.00  0.00    +0.314 C 
BRANCH  34  35
ATOM     35  O   UNL     1      33.978 -22.799 -14.708  0.00  0.00    -0.480 OA
ATOM     36  H   UNL     1      34.649 -22.519 -14.116  0.00  0.00    +0.295 HD
ENDBRANCH  34  35
ENDBRANCH  32  34
ENDBRANCH  31  32
ENDBRANCH  30  31
ENDBRANCH  28  30
ENDBRANCH  27  28
ENDBRANCH  26  27
ENDBRANCH   6  26
TORSDOF 10
ENDMDL
MODEL 3
REMARK VINA RESULT:      -8.9      3.904      8.767
REMARK  Name = 16623
REMARK  10 active torsions:
REMARK  status: ('A' for Active; 'I' for Inactive)
REMARK    1  A    between atoms: C_6  and  O_21
REMARK    2  A    between atoms: C_6  and  C_26
REMARK    3  A    between atoms: C_9  and  O_23
REMARK    4  A    between atoms: C_26  and  C_27
REMARK    5  A    between atoms: C_27  and  O_28
REMARK    6  A    between atoms: O_28  and  C_30
REMARK    7  A    between atoms: C_30  and  C_31
REMARK    8  A    between atoms: C_31  and  C_32
REMARK    9  A    between atoms: C_32  and  C_34
REMARK   10  A    between atoms: C_34  and  O_35
REMARK                            x       y       z     vdW  Elec       q    Type
REMARK                         _______ _______ _______ _____ _____    ______ ____
ROOT
ATOM      1  O   UNL     1      33.707 -18.461 -21.756  0.00  0.00    -0.291 OA
ATOM      2  C   UNL     1      35.410 -23.600 -15.271  0.00  0.00    +0.031 C 
ATOM      3  C   UNL     1      36.365 -22.612 -15.972  0.00  0.00    +0.003 C 
ATOM      4  C   UNL     1      36.144 -22.513 -17.489  0.00  0.00    +0.003 C 
ATOM      5  C   UNL     1      34.680 -22.035 -17.754  0.00  0.00    +0.030 C 
ATOM      6  C   UNL     1      35.950 -23.494 -13.818  0.00  0.00    +0.143 C 
ATOM      7  C   UNL     1      33.971 -23.091 -15.495  0.00  0.00    +0.032 C 
ATOM      8  C   UNL     1      34.379 -21.795 -19.290  0.00  0.00    +0.018 C 
ATOM      9  C   UNL     1      33.625 -22.891 -16.987  0.00  0.00    +0.111 C 
ATOM     10  C   UNL     1      37.741 -23.021 -15.452  0.00  0.00    +0.003 C 
ATOM     11  C   UNL     1      37.486 -23.436 -13.989  0.00  0.00    +0.034 C 
ATOM     12  C   UNL     1      37.149 -21.531 -18.112  0.00  0.00    +0.004 C 
ATOM     13  C   UNL     1      35.560 -25.062 -15.775  0.00  0.00    +0.003 C 
ATOM     14  C   UNL     1      35.487 -20.918 -19.890  0.00  0.00    -0.042 C 
ATOM     15  C   UNL     1      36.906 -21.343 -19.601  0.00  0.00    +0.022 C 
ATOM     16  C   UNL     1      33.006 -21.069 -19.405  0.00  0.00    +0.012 C 
ATOM     17  C   UNL     1      34.329 -23.097 -20.121  0.00  0.00    +0.004 C 
ATOM     18  C   UNL     1      32.769 -20.427 -20.762  0.00  0.00    +0.069 C 
ATOM     19  C   UNL     1      35.261 -19.845 -20.666  0.00  0.00    +0.029 C 
ATOM     20  C   UNL     1      33.890 -19.478 -21.092  0.00  0.00    +0.173 C 
ENDROOT
BRANCH   6  21
ATOM     21  O   UNL     1      35.503 -22.298 -13.188  0.00  0.00    -0.380 OA
ATOM     22  H   UNL     1      35.278 -22.484 -12.263  0.00  0.00    +0.211 HD
ENDBRANCH   6  21
BRANCH   9  23
ATOM     23  O   UNL     1      33.441 -24.159 -17.602  0.00  0.00    -0.384 OA
ATOM     24  H   UNL     1      33.493 -24.855 -16.929  0.00  0.00    +0.210 HD
ENDBRANCH   9  23
BRANCH   6  26
ATOM     25  O   UNL     1      34.294 -24.825 -12.740  0.00  0.00    -0.290 OA
ATOM     26  C   UNL     1      35.490 -24.601 -12.917  0.00  0.00    +0.218 C 
BRANCH  26  27
ATOM     27  C   UNL     1      36.577 -25.417 -12.249  0.00  0.00    +0.274 C 
BRANCH  27  28
ATOM     28  O   UNL     1      36.764 -26.643 -12.921  0.00  0.00    -0.440 OA
BRANCH  28  30
ATOM     29  O   UNL     1      37.860 -27.320 -14.835  0.00  0.00    -0.250 OA
ATOM     30  C   UNL     1      37.841 -26.710 -13.774  0.00  0.00    +0.318 C 
BRANCH  30  31
ATOM     31  C   UNL     1      38.994 -25.919 -13.196  0.00  0.00    +0.121 C 
BRANCH  31  32
ATOM     32  C   UNL     1      40.335 -26.262 -13.832  0.00  0.00    +0.121 C 
BRANCH  32  34
ATOM     33  O   UNL     1      41.256 -24.286 -14.872  0.00  0.00    -0.250 OA
ATOM     34  C   UNL     1      40.648 -25.342 -14.986  0.00  0.00    +0.314 C 
BRANCH  34  35
ATOM     35  O   UNL     1      40.201 -25.820 -16.172  0.00  0.00    -0.480 OA
ATOM     36  H   UNL     1      39.325 -26.145 -16.246  0.00  0.00    +0.295 HD
ENDBRANCH  34  35
ENDBRANCH  32  34
ENDBRANCH  31  32
ENDBRANCH  30  31
ENDBRANCH  28  30
ENDBRANCH  27  28
ENDBRANCH  26  27
ENDBRANCH   6  26
TORSDOF 10
ENDMDL
MODEL 4
REMARK VINA RESULT:      -8.7     12.524     15.731
REMARK  Name = 16623
REMARK  10 active torsions:
REMARK  status: ('A' for Active; 'I' for Inactive)
REMARK    1  A    between atoms: C_6  and  O_21
REMARK    2  A    between atoms: C_6  and  C_26
REMARK    3  A    between atoms: C_9  and  O_23
REMARK    4  A    between atoms: C_26  and  C_27
REMARK    5  A    between atoms: C_27  and  O_28
REMARK    6  A    between atoms: O_28  and  C_30
REMARK    7  A    between atoms: C_30  and  C_31
REMARK    8  A    between atoms: C_31  and  C_32
REMARK    9  A    between atoms: C_32  and  C_34
REMARK   10  A    between atoms: C_34  and  O_35
REMARK                            x       y       z     vdW  Elec       q    Type
REMARK                         _______ _______ _______ _____ _____    ______ ____
ROOT
ATOM      1  O   UNL     1      30.809  -4.640 -23.999  0.00  0.00    -0.291 OA
ATOM      2  C   UNL     1      33.399 -12.649 -23.280  0.00  0.00    +0.031 C 
ATOM      3  C   UNL     1      32.316 -11.926 -22.451  0.00  0.00    +0.003 C 
ATOM      4  C   UNL     1      32.646 -10.454 -22.159  0.00  0.00    +0.003 C 
ATOM      5  C   UNL     1      32.799  -9.694 -23.515  0.00  0.00    +0.030 C 
ATOM      6  C   UNL     1      32.782 -14.075 -23.319  0.00  0.00    +0.143 C 
ATOM      7  C   UNL     1      33.505 -11.923 -24.636  0.00  0.00    +0.032 C 
ATOM      8  C   UNL     1      33.035  -8.139 -23.327  0.00  0.00    +0.018 C 
ATOM      9  C   UNL     1      33.783 -10.410 -24.493  0.00  0.00    +0.111 C 
ATOM     10  C   UNL     1      32.075 -12.875 -21.279  0.00  0.00    +0.003 C 
ATOM     11  C   UNL     1      32.216 -14.282 -21.895  0.00  0.00    +0.034 C 
ATOM     12  C   UNL     1      31.535  -9.816 -21.310  0.00  0.00    +0.004 C 
ATOM     13  C   UNL     1      34.781 -12.700 -22.573  0.00  0.00    +0.003 C 
ATOM     14  C   UNL     1      31.976  -7.582 -22.365  0.00  0.00    -0.042 C 
ATOM     15  C   UNL     1      31.785  -8.336 -21.071  0.00  0.00    +0.022 C 
ATOM     16  C   UNL     1      32.897  -7.458 -24.721  0.00  0.00    +0.012 C 
ATOM     17  C   UNL     1      34.417  -7.790 -22.733  0.00  0.00    +0.004 C 
ATOM     18  C   UNL     1      32.704  -5.952 -24.646  0.00  0.00    +0.069 C 
ATOM     19  C   UNL     1      31.259  -6.469 -22.596  0.00  0.00    +0.029 C 
ATOM     20  C   UNL     1      31.516  -5.622 -23.783  0.00  0.00    +0.173 C 
ENDROOT
BRANCH   6  21
ATOM     21  O   UNL     1      31.718 -14.151 -24.263  0.00  0.00    -0.380 OA
ATOM     22  H   UNL     1      30.971 -13.619 -23.951  0.00  0.00    +0.211 HD
ENDBRANCH   6  21
BRANCH   9  23
ATOM     23  O   UNL     1      35.135 -10.214 -24.102  0.00  0.00    -0.384 OA
ATOM     24  H   UNL     1      35.647  -9.892 -24.860  0.00  0.00    +0.210 HD
ENDBRANCH   9  23
BRANCH   6  26
ATOM     25  O   UNL     1      33.900 -15.439 -24.923  0.00  0.00    -0.290 OA
ATOM     26  C   UNL     1      33.749 -15.142 -23.739  0.00  0.00    +0.218 C 
BRANCH  26  27
ATOM     27  C   UNL     1      34.520 -15.823 -22.627  0.00  0.00    +0.274 C 
BRANCH  27  28
ATOM     28  O   UNL     1      34.488 -17.225 -22.785  0.00  0.00    -0.440 OA
BRANCH  28  30
ATOM     29  O   UNL     1      35.311 -17.555 -20.655  0.00  0.00    -0.250 OA
ATOM     30  C   UNL     1      34.745 -17.970 -21.658  0.00  0.00    +0.318 C 
BRANCH  30  31
ATOM     31  C   UNL     1      34.225 -19.378 -21.853  0.00  0.00    +0.121 C 
BRANCH  31  32
ATOM     32  C   UNL     1      33.223 -19.800 -20.785  0.00  0.00    +0.121 C 
BRANCH  32  34
ATOM     33  O   UNL     1      34.934 -21.068 -19.647  0.00  0.00    -0.250 OA
ATOM     34  C   UNL     1      33.756 -20.938 -19.951  0.00  0.00    +0.314 C 
BRANCH  34  35
ATOM     35  O   UNL     1      32.784 -21.796 -19.554  0.00  0.00    -0.480 OA
ATOM     36  H   UNL     1      32.953 -22.717 -19.533  0.00  0.00    +0.295 HD
ENDBRANCH  34  35
ENDBRANCH  32  34
ENDBRANCH  31  32
ENDBRANCH  30  31
ENDBRANCH  28  30
ENDBRANCH  27  28
ENDBRANCH  26  27
ENDBRANCH   6  26
TORSDOF 10
ENDMDL
MODEL 5
REMARK VINA RESULT:      -8.3      3.036      6.367
REMARK  Name = 16623
REMARK  10 active torsions:
REMARK  status: ('A' for Active; 'I' for Inactive)
REMARK    1  A    between atoms: C_6  and  O_21
REMARK    2  A    between atoms: C_6  and  C_26
REMARK    3  A    between atoms: C_9  and  O_23
REMARK    4  A    between atoms: C_26  and  C_27
REMARK    5  A    between atoms: C_27  and  O_28
REMARK    6  A    between atoms: O_28  and  C_30
REMARK    7  A    between atoms: C_30  and  C_31
REMARK    8  A    between atoms: C_31  and  C_32
REMARK    9  A    between atoms: C_32  and  C_34
REMARK   10  A    between atoms: C_34  and  O_35
REMARK                            x       y       z     vdW  Elec       q    Type
REMARK                         _______ _______ _______ _____ _____    ______ ____
ROOT
ATOM      1  O   UNL     1      33.740 -18.379 -21.722  0.00  0.00    -0.291 OA
ATOM      2  C   UNL     1      35.466 -23.665 -15.361  0.00  0.00    +0.031 C 
ATOM      3  C   UNL     1      36.425 -22.675 -16.057  0.00  0.00    +0.003 C 
ATOM      4  C   UNL     1      36.183 -22.544 -17.568  0.00  0.00    +0.003 C 
ATOM      5  C   UNL     1      34.722 -22.042 -17.803  0.00  0.00    +0.030 C 
ATOM      6  C   UNL     1      36.028 -23.593 -13.915  0.00  0.00    +0.143 C 
ATOM      7  C   UNL     1      34.031 -23.133 -15.555  0.00  0.00    +0.032 C 
ATOM      8  C   UNL     1      34.403 -21.769 -19.330  0.00  0.00    +0.018 C 
ATOM      9  C   UNL     1      33.667 -22.900 -17.038  0.00  0.00    +0.111 C 
ATOM     10  C   UNL     1      37.803 -23.112 -15.565  0.00  0.00    +0.003 C 
ATOM     11  C   UNL     1      37.563 -23.553 -14.106  0.00  0.00    +0.034 C 
ATOM     12  C   UNL     1      37.192 -21.563 -18.187  0.00  0.00    +0.004 C 
ATOM     13  C   UNL     1      35.591 -25.119 -15.896  0.00  0.00    +0.003 C 
ATOM     14  C   UNL     1      35.514 -20.894 -19.929  0.00  0.00    -0.042 C 
ATOM     15  C   UNL     1      36.931 -21.343 -19.669  0.00  0.00    +0.022 C 
ATOM     16  C   UNL     1      33.038 -21.023 -19.411  0.00  0.00    +0.012 C 
ATOM     17  C   UNL     1      34.324 -23.053 -20.185  0.00  0.00    +0.004 C 
ATOM     18  C   UNL     1      32.791 -20.352 -20.752  0.00  0.00    +0.069 C 
ATOM     19  C   UNL     1      35.291 -19.804 -20.681  0.00  0.00    +0.029 C 
ATOM     20  C   UNL     1      33.920 -19.412 -21.080  0.00  0.00    +0.173 C 
ENDROOT
BRANCH   6  21
ATOM     21  O   UNL     1      35.606 -22.404 -13.255  0.00  0.00    -0.380 OA
ATOM     22  H   UNL     1      35.640 -22.537 -12.295  0.00  0.00    +0.211 HD
ENDBRANCH   6  21
BRANCH   9  23
ATOM     23  O   UNL     1      33.458 -24.152 -17.675  0.00  0.00    -0.384 OA
ATOM     24  H   UNL     1      34.314 -24.567 -17.861  0.00  0.00    +0.210 HD
ENDBRANCH   9  23
BRANCH   6  26
ATOM     25  O   UNL     1      36.240 -25.729 -12.879  0.00  0.00    -0.290 OA
ATOM     26  C   UNL     1      35.566 -24.712 -13.029  0.00  0.00    +0.218 C 
BRANCH  26  27
ATOM     27  C   UNL     1      34.233 -24.512 -12.338  0.00  0.00    +0.274 C 
BRANCH  27  28
ATOM     28  O   UNL     1      33.196 -25.129 -13.070  0.00  0.00    -0.440 OA
BRANCH  28  30
ATOM     29  O   UNL     1      31.903 -23.228 -12.883  0.00  0.00    -0.250 OA
ATOM     30  C   UNL     1      32.084 -24.358 -13.315  0.00  0.00    +0.318 C 
BRANCH  30  31
ATOM     31  C   UNL     1      31.121 -25.125 -14.196  0.00  0.00    +0.121 C 
BRANCH  31  32
ATOM     32  C   UNL     1      30.417 -24.246 -15.223  0.00  0.00    +0.121 C 
BRANCH  32  34
ATOM     33  O   UNL     1      28.124 -23.654 -15.699  0.00  0.00    -0.250 OA
ATOM     34  C   UNL     1      28.919 -24.403 -15.145  0.00  0.00    +0.314 C 
BRANCH  34  35
ATOM     35  O   UNL     1      28.543 -25.479 -14.412  0.00  0.00    -0.480 OA
ATOM     36  H   UNL     1      27.642 -25.737 -14.387  0.00  0.00    +0.295 HD
ENDBRANCH  34  35
ENDBRANCH  32  34
ENDBRANCH  31  32
ENDBRANCH  30  31
ENDBRANCH  28  30
ENDBRANCH  27  28
ENDBRANCH  26  27
ENDBRANCH   6  26
TORSDOF 10
ENDMDL
MODEL 6
REMARK VINA RESULT:      -7.6     15.014     17.635
REMARK  Name = 16623
REMARK  10 active torsions:
REMARK  status: ('A' for Active; 'I' for Inactive)
REMARK    1  A    between atoms: C_6  and  O_21
REMARK    2  A    between atoms: C_6  and  C_26
REMARK    3  A    between atoms: C_9  and  O_23
REMARK    4  A    between atoms: C_26  and  C_27
REMARK    5  A    between atoms: C_27  and  O_28
REMARK    6  A    between atoms: O_28  and  C_30
REMARK    7  A    between atoms: C_30  and  C_31
REMARK    8  A    between atoms: C_31  and  C_32
REMARK    9  A    between atoms: C_32  and  C_34
REMARK   10  A    between atoms: C_34  and  O_35
REMARK                            x       y       z     vdW  Elec       q    Type
REMARK                         _______ _______ _______ _____ _____    ______ ____
ROOT
ATOM      1  O   UNL     1      34.522 -16.951 -20.979  0.00  0.00    -0.291 OA
ATOM      2  C   UNL     1      33.258  -9.039 -23.656  0.00  0.00    +0.031 C 
ATOM      3  C   UNL     1      32.838  -9.660 -22.307  0.00  0.00    +0.003 C 
ATOM      4  C   UNL     1      32.388 -11.125 -22.418  0.00  0.00    +0.003 C 
ATOM      5  C   UNL     1      33.570 -11.973 -22.990  0.00  0.00    +0.030 C 
ATOM      6  C   UNL     1      33.571  -7.592 -23.186  0.00  0.00    +0.143 C 
ATOM      7  C   UNL     1      34.457  -9.851 -24.187  0.00  0.00    +0.032 C 
ATOM      8  C   UNL     1      33.247 -13.523 -23.044  0.00  0.00    +0.018 C 
ATOM      9  C   UNL     1      34.163 -11.363 -24.299  0.00  0.00    +0.111 C 
ATOM     10  C   UNL     1      31.868  -8.632 -21.730  0.00  0.00    +0.003 C 
ATOM     11  C   UNL     1      32.450  -7.273 -22.169  0.00  0.00    +0.034 C 
ATOM     12  C   UNL     1      31.964 -11.659 -21.041  0.00  0.00    +0.004 C 
ATOM     13  C   UNL     1      32.109  -9.008 -24.702  0.00  0.00    +0.003 C 
ATOM     14  C   UNL     1      32.701 -13.972 -21.681  0.00  0.00    -0.042 C 
ATOM     15  C   UNL     1      31.591 -13.133 -21.096  0.00  0.00    +0.022 C 
ATOM     16  C   UNL     1      34.570 -14.280 -23.362  0.00  0.00    +0.012 C 
ATOM     17  C   UNL     1      32.187 -13.897 -24.104  0.00  0.00    +0.004 C 
ATOM     18  C   UNL     1      34.506 -15.768 -23.060  0.00  0.00    +0.069 C 
ATOM     19  C   UNL     1      33.126 -15.062 -21.022  0.00  0.00    +0.029 C 
ATOM     20  C   UNL     1      34.109 -15.991 -21.625  0.00  0.00    +0.173 C 
ENDROOT
BRANCH   6  21
ATOM     21  O   UNL     1      34.834  -7.525 -22.530  0.00  0.00    -0.380 OA
ATOM     22  H   UNL     1      34.739  -7.834 -21.616  0.00  0.00    +0.211 HD
ENDBRANCH   6  21
BRANCH   9  23
ATOM     23  O   UNL     1      33.310 -11.596 -25.411  0.00  0.00    -0.384 OA
ATOM     24  H   UNL     1      33.240 -10.786 -25.940  0.00  0.00    +0.210 HD
ENDBRANCH   9  23
BRANCH   6  26
ATOM     25  O   UNL     1      34.675  -6.507 -24.998  0.00  0.00    -0.290 OA
ATOM     26  C   UNL     1      33.664  -6.597 -24.305  0.00  0.00    +0.218 C 
BRANCH  26  27
ATOM     27  C   UNL     1      32.448  -5.722 -24.525  0.00  0.00    +0.274 C 
BRANCH  27  28
ATOM     28  O   UNL     1      32.500  -5.107 -25.795  0.00  0.00    -0.440 OA
BRANCH  28  30
ATOM     29  O   UNL     1      33.028  -2.954 -26.430  0.00  0.00    -0.250 OA
ATOM     30  C   UNL     1      32.322  -3.744 -25.818  0.00  0.00    +0.318 C 
BRANCH  30  31
ATOM     31  C   UNL     1      31.126  -3.375 -24.968  0.00  0.00    +0.121 C 
BRANCH  31  32
ATOM     32  C   UNL     1      31.496  -2.567 -23.730  0.00  0.00    +0.121 C 
BRANCH  32  34
ATOM     33  O   UNL     1      29.654  -1.795 -22.371  0.00  0.00    -0.250 OA
ATOM     34  C   UNL     1      30.440  -2.688 -22.659  0.00  0.00    +0.314 C 
BRANCH  34  35
ATOM     35  O   UNL     1      30.438  -3.905 -22.062  0.00  0.00    -0.480 OA
ATOM     36  H   UNL     1      30.254  -4.673 -22.565  0.00  0.00    +0.295 HD
ENDBRANCH  34  35
ENDBRANCH  32  34
ENDBRANCH  31  32
ENDBRANCH  30  31
ENDBRANCH  28  30
ENDBRANCH  27  28
ENDBRANCH  26  27
ENDBRANCH   6  26
TORSDOF 10
ENDMDL
MODEL 7
REMARK VINA RESULT:      -7.5     13.400     16.401
REMARK  Name = 16623
REMARK  10 active torsions:
REMARK  status: ('A' for Active; 'I' for Inactive)
REMARK    1  A    between atoms: C_6  and  O_21
REMARK    2  A    between atoms: C_6  and  C_26
REMARK    3  A    between atoms: C_9  and  O_23
REMARK    4  A    between atoms: C_26  and  C_27
REMARK    5  A    between atoms: C_27  and  O_28
REMARK    6  A    between atoms: O_28  and  C_30
REMARK    7  A    between atoms: C_30  and  C_31
REMARK    8  A    between atoms: C_31  and  C_32
REMARK    9  A    between atoms: C_32  and  C_34
REMARK   10  A    between atoms: C_34  and  O_35
REMARK                            x       y       z     vdW  Elec       q    Type
REMARK                         _______ _______ _______ _____ _____    ______ ____
ROOT
ATOM      1  O   UNL     1      31.740  -4.081 -25.081  0.00  0.00    -0.291 OA
ATOM      2  C   UNL     1      33.369 -12.203 -23.421  0.00  0.00    +0.031 C 
ATOM      3  C   UNL     1      32.288 -11.305 -22.783  0.00  0.00    +0.003 C 
ATOM      4  C   UNL     1      32.740  -9.851 -22.576  0.00  0.00    +0.003 C 
ATOM      5  C   UNL     1      33.117  -9.237 -23.963  0.00  0.00    +0.030 C 
ATOM      6  C   UNL     1      32.612 -13.559 -23.415  0.00  0.00    +0.143 C 
ATOM      7  C   UNL     1      33.696 -11.619 -24.811  0.00  0.00    +0.032 C 
ATOM      8  C   UNL     1      33.496  -7.702 -23.876  0.00  0.00    +0.018 C 
ATOM      9  C   UNL     1      34.117 -10.133 -24.759  0.00  0.00    +0.111 C 
ATOM     10  C   UNL     1      31.824 -12.113 -21.574  0.00  0.00    +0.003 C 
ATOM     11  C   UNL     1      31.878 -13.578 -22.053  0.00  0.00    +0.034 C 
ATOM     12  C   UNL     1      31.620  -9.032 -21.915  0.00  0.00    +0.004 C 
ATOM     13  C   UNL     1      34.656 -12.322 -22.558  0.00  0.00    +0.003 C 
ATOM     14  C   UNL     1      32.406  -6.958 -23.090  0.00  0.00    -0.042 C 
ATOM     15  C   UNL     1      32.000  -7.567 -21.770  0.00  0.00    +0.022 C 
ATOM     16  C   UNL     1      33.580  -7.143 -25.326  0.00  0.00    +0.012 C 
ATOM     17  C   UNL     1      34.837  -7.436 -23.157  0.00  0.00    +0.004 C 
ATOM     18  C   UNL     1      33.542  -5.625 -25.397  0.00  0.00    +0.069 C 
ATOM     19  C   UNL     1      31.841  -5.808 -23.492  0.00  0.00    +0.029 C 
ATOM     20  C   UNL     1      32.311  -5.103 -24.706  0.00  0.00    +0.173 C 
ENDROOT
BRANCH   6  21
ATOM     21  O   UNL     1      31.652 -13.619 -24.466  0.00  0.00    -0.380 OA
ATOM     22  H   UNL     1      30.760 -13.655 -24.087  0.00  0.00    +0.211 HD
ENDBRANCH   6  21
BRANCH   9  23
ATOM     23  O   UNL     1      35.433 -10.034 -24.233  0.00  0.00    -0.384 OA
ATOM     24  H   UNL     1      35.489  -9.263 -23.648  0.00  0.00    +0.210 HD
ENDBRANCH   9  23
BRANCH   6  26
ATOM     25  O   UNL     1      33.793 -15.129 -24.765  0.00  0.00    -0.290 OA
ATOM     26  C   UNL     1      33.498 -14.750 -23.633  0.00  0.00    +0.218 C 
BRANCH  26  27
ATOM     27  C   UNL     1      34.003 -15.446 -22.386  0.00  0.00    +0.274 C 
BRANCH  27  28
ATOM     28  O   UNL     1      34.870 -16.507 -22.725  0.00  0.00    -0.440 OA
BRANCH  28  30
ATOM     29  O   UNL     1      35.077 -17.366 -20.594  0.00  0.00    -0.250 OA
ATOM     30  C   UNL     1      34.977 -17.522 -21.803  0.00  0.00    +0.318 C 
BRANCH  30  31
ATOM     31  C   UNL     1      34.955 -18.857 -22.517  0.00  0.00    +0.121 C 
BRANCH  31  32
ATOM     32  C   UNL     1      35.552 -18.797 -23.918  0.00  0.00    +0.121 C 
BRANCH  32  34
ATOM     33  O   UNL     1      33.450 -19.096 -25.069  0.00  0.00    -0.250 OA
ATOM     34  C   UNL     1      34.499 -18.477 -24.950  0.00  0.00    +0.314 C 
BRANCH  34  35
ATOM     35  O   UNL     1      34.829 -17.413 -25.722  0.00  0.00    -0.480 OA
ATOM     36  H   UNL     1      34.323 -16.626 -25.675  0.00  0.00    +0.295 HD
ENDBRANCH  34  35
ENDBRANCH  32  34
ENDBRANCH  31  32
ENDBRANCH  30  31
ENDBRANCH  28  30
ENDBRANCH  27  28
ENDBRANCH  26  27
ENDBRANCH   6  26
TORSDOF 10
ENDMDL
MODEL 8
REMARK VINA RESULT:      -7.5     13.752     17.148
REMARK  Name = 16623
REMARK  10 active torsions:
REMARK  status: ('A' for Active; 'I' for Inactive)
REMARK    1  A    between atoms: C_6  and  O_21
REMARK    2  A    between atoms: C_6  and  C_26
REMARK    3  A    between atoms: C_9  and  O_23
REMARK    4  A    between atoms: C_26  and  C_27
REMARK    5  A    between atoms: C_27  and  O_28
REMARK    6  A    between atoms: O_28  and  C_30
REMARK    7  A    between atoms: C_30  and  C_31
REMARK    8  A    between atoms: C_31  and  C_32
REMARK    9  A    between atoms: C_32  and  C_34
REMARK   10  A    between atoms: C_34  and  O_35
REMARK                            x       y       z     vdW  Elec       q    Type
REMARK                         _______ _______ _______ _____ _____    ______ ____
ROOT
ATOM      1  O   UNL     1      30.178  -2.733 -24.129  0.00  0.00    -0.291 OA
ATOM      2  C   UNL     1      32.104 -10.673 -21.979  0.00  0.00    +0.031 C 
ATOM      3  C   UNL     1      31.765  -9.494 -21.042  0.00  0.00    +0.003 C 
ATOM      4  C   UNL     1      32.310  -8.143 -21.531  0.00  0.00    +0.003 C 
ATOM      5  C   UNL     1      31.699  -7.831 -22.935  0.00  0.00    +0.030 C 
ATOM      6  C   UNL     1      31.478 -11.837 -21.163  0.00  0.00    +0.143 C 
ATOM      7  C   UNL     1      31.454 -10.380 -23.346  0.00  0.00    +0.032 C 
ATOM      8  C   UNL     1      32.114  -6.405 -23.484  0.00  0.00    +0.018 C 
ATOM      9  C   UNL     1      31.873  -9.015 -23.936  0.00  0.00    +0.111 C 
ATOM     10  C   UNL     1      32.183 -10.004 -19.665  0.00  0.00    +0.003 C 
ATOM     11  C   UNL     1      31.834 -11.506 -19.695  0.00  0.00    +0.034 C 
ATOM     12  C   UNL     1      31.952  -7.031 -20.532  0.00  0.00    +0.004 C 
ATOM     13  C   UNL     1      33.632 -10.911 -22.136  0.00  0.00    +0.003 C 
ATOM     14  C   UNL     1      31.858  -5.352 -22.396  0.00  0.00    -0.042 C 
ATOM     15  C   UNL     1      32.403  -5.664 -21.024  0.00  0.00    +0.022 C 
ATOM     16  C   UNL     1      31.240  -6.098 -24.736  0.00  0.00    +0.012 C 
ATOM     17  C   UNL     1      33.605  -6.302 -23.875  0.00  0.00    +0.004 C 
ATOM     18  C   UNL     1      31.238  -4.630 -25.132  0.00  0.00    +0.069 C 
ATOM     19  C   UNL     1      31.225  -4.186 -22.610  0.00  0.00    +0.029 C 
ATOM     20  C   UNL     1      30.803  -3.778 -23.970  0.00  0.00    +0.173 C 
ENDROOT
BRANCH   6  21
ATOM     21  O   UNL     1      30.061 -11.865 -21.308  0.00  0.00    -0.380 OA
ATOM     22  H   UNL     1      29.658 -11.282 -20.646  0.00  0.00    +0.211 HD
ENDBRANCH   6  21
BRANCH   9  23
ATOM     23  O   UNL     1      33.209  -9.098 -24.413  0.00  0.00    -0.384 OA
ATOM     24  H   UNL     1      33.752  -9.583 -23.771  0.00  0.00    +0.210 HD
ENDBRANCH   9  23
BRANCH   6  26
ATOM     25  O   UNL     1      31.784 -13.584 -22.755  0.00  0.00    -0.290 OA
ATOM     26  C   UNL     1      31.938 -13.197 -21.598  0.00  0.00    +0.218 C 
BRANCH  26  27
ATOM     27  C   UNL     1      32.596 -14.053 -20.536  0.00  0.00    +0.274 C 
BRANCH  27  28
ATOM     28  O   UNL     1      32.965 -15.308 -21.066  0.00  0.00    -0.440 OA
BRANCH  28  30
ATOM     29  O   UNL     1      34.951 -16.004 -20.121  0.00  0.00    -0.250 OA
ATOM     30  C   UNL     1      34.311 -15.591 -21.078  0.00  0.00    +0.318 C 
BRANCH  30  31
ATOM     31  C   UNL     1      34.874 -15.307 -22.454  0.00  0.00    +0.121 C 
BRANCH  31  32
ATOM     32  C   UNL     1      34.890 -16.534 -23.359  0.00  0.00    +0.121 C 
BRANCH  32  34
ATOM     33  O   UNL     1      34.143 -17.043 -25.599  0.00  0.00    -0.250 OA
ATOM     34  C   UNL     1      34.140 -16.278 -24.643  0.00  0.00    +0.314 C 
BRANCH  34  35
ATOM     35  O   UNL     1      33.441 -15.118 -24.619  0.00  0.00    -0.480 OA
ATOM     36  H   UNL     1      33.889 -14.303 -24.499  0.00  0.00    +0.295 HD
ENDBRANCH  34  35
ENDBRANCH  32  34
ENDBRANCH  31  32
ENDBRANCH  30  31
ENDBRANCH  28  30
ENDBRANCH  27  28
ENDBRANCH  26  27
ENDBRANCH   6  26
TORSDOF 10
ENDMDL
MODEL 9
REMARK VINA RESULT:      -7.5     15.082     17.657
REMARK  Name = 16623
REMARK  10 active torsions:
REMARK  status: ('A' for Active; 'I' for Inactive)
REMARK    1  A    between atoms: C_6  and  O_21
REMARK    2  A    between atoms: C_6  and  C_26
REMARK    3  A    between atoms: C_9  and  O_23
REMARK    4  A    between atoms: C_26  and  C_27
REMARK    5  A    between atoms: C_27  and  O_28
REMARK    6  A    between atoms: O_28  and  C_30
REMARK    7  A    between atoms: C_30  and  C_31
REMARK    8  A    between atoms: C_31  and  C_32
REMARK    9  A    between atoms: C_32  and  C_34
REMARK   10  A    between atoms: C_34  and  O_35
REMARK                            x       y       z     vdW  Elec       q    Type
REMARK                         _______ _______ _______ _____ _____    ______ ____
ROOT
ATOM      1  O   UNL     1      34.683 -17.117 -21.128  0.00  0.00    -0.291 OA
ATOM      2  C   UNL     1      33.125  -9.130 -23.396  0.00  0.00    +0.031 C 
ATOM      3  C   UNL     1      32.763  -9.824 -22.066  0.00  0.00    +0.003 C 
ATOM      4  C   UNL     1      32.350 -11.295 -22.232  0.00  0.00    +0.003 C 
ATOM      5  C   UNL     1      33.536 -12.082 -22.877  0.00  0.00    +0.030 C 
ATOM      6  C   UNL     1      33.413  -7.698 -22.868  0.00  0.00    +0.143 C 
ATOM      7  C   UNL     1      34.329  -9.882 -23.999  0.00  0.00    +0.032 C 
ATOM      8  C   UNL     1      33.254 -13.635 -22.994  0.00  0.00    +0.018 C 
ATOM      9  C   UNL     1      34.073 -11.396 -24.172  0.00  0.00    +0.111 C 
ATOM     10  C   UNL     1      31.784  -8.852 -21.414  0.00  0.00    +0.003 C 
ATOM     11  C   UNL     1      32.316  -7.458 -21.805  0.00  0.00    +0.034 C 
ATOM     12  C   UNL     1      31.982 -11.903 -20.869  0.00  0.00    +0.004 C 
ATOM     13  C   UNL     1      31.945  -9.084 -24.405  0.00  0.00    +0.003 C 
ATOM     14  C   UNL     1      32.762 -14.162 -21.637  0.00  0.00    -0.042 C 
ATOM     15  C   UNL     1      31.648 -13.382 -20.982  0.00  0.00    +0.022 C 
ATOM     16  C   UNL     1      34.587 -14.339 -23.385  0.00  0.00    +0.012 C 
ATOM     17  C   UNL     1      32.173 -13.991 -24.038  0.00  0.00    +0.004 C 
ATOM     18  C   UNL     1      34.573 -15.841 -23.151  0.00  0.00    +0.069 C 
ATOM     19  C   UNL     1      33.236 -15.269 -21.043  0.00  0.00    +0.029 C 
ATOM     20  C   UNL     1      34.226 -16.141 -21.717  0.00  0.00    +0.173 C 
ENDROOT
BRANCH   6  21
ATOM     21  O   UNL     1      34.693  -7.625 -22.246  0.00  0.00    -0.380 OA
ATOM     22  H   UNL     1      35.346  -7.308 -22.889  0.00  0.00    +0.211 HD
ENDBRANCH   6  21
BRANCH   9  23
ATOM     23  O   UNL     1      33.193 -11.602 -25.269  0.00  0.00    -0.384 OA
ATOM     24  H   UNL     1      33.207 -12.538 -25.522  0.00  0.00    +0.210 HD
ENDBRANCH   9  23
BRANCH   6  26
ATOM     25  O   UNL     1      34.331  -6.635 -24.794  0.00  0.00    -0.290 OA
ATOM     26  C   UNL     1      33.445  -6.651 -23.941  0.00  0.00    +0.218 C 
BRANCH  26  27
ATOM     27  C   UNL     1      32.330  -5.626 -23.911  0.00  0.00    +0.274 C 
BRANCH  27  28
ATOM     28  O   UNL     1      31.898  -5.321 -25.220  0.00  0.00    -0.440 OA
BRANCH  28  30
ATOM     29  O   UNL     1      30.497  -3.532 -24.822  0.00  0.00    -0.250 OA
ATOM     30  C   UNL     1      31.432  -4.043 -25.423  0.00  0.00    +0.318 C 
BRANCH  30  31
ATOM     31  C   UNL     1      32.251  -3.373 -26.506  0.00  0.00    +0.121 C 
BRANCH  31  32
ATOM     32  C   UNL     1      33.009  -4.363 -27.383  0.00  0.00    +0.121 C 
BRANCH  32  34
ATOM     33  O   UNL     1      34.969  -2.977 -27.649  0.00  0.00    -0.250 OA
ATOM     34  C   UNL     1      34.489  -4.072 -27.386  0.00  0.00    +0.314 C 
BRANCH  34  35
ATOM     35  O   UNL     1      35.235  -5.150 -27.043  0.00  0.00    -0.480 OA
ATOM     36  H   UNL     1      36.057  -5.304 -27.465  0.00  0.00    +0.295 HD
ENDBRANCH  34  35
ENDBRANCH  32  34
ENDBRANCH  31  32
ENDBRANCH  30  31
ENDBRANCH  28  30
ENDBRANCH  27  28
ENDBRANCH  26  27
ENDBRANCH   6  26
TORSDOF 10
ENDMDL
