MODEL 1
REMARK VINA RESULT:     -10.0      0.000      0.000
REMARK  Name = 9820073
REMARK  6 active torsions:
REMARK  status: ('A' for Active; 'I' for Inactive)
REMARK    1  A    between atoms: N_1  and  C_7
REMARK    2  A    between atoms: C_2  and  C_19
REMARK    3  A    between atoms: C_10  and  S_13
REMARK    4  A    between atoms: S_13  and  N_16
REMARK    5  A    between atoms: C_24  and  O_25
REMARK    6  A    between atoms: O_25  and  C_26
REMARK                            x       y       z     vdW  Elec       q    Type
REMARK                         _______ _______ _______ _____ _____    ______ ____
ROOT
ATOM      1  N   UNL     1      34.231 -24.184 -14.645  0.00  0.00    -0.265 N 
ATOM      2  C   UNL     1      33.592 -23.488 -15.641  0.00  0.00    +0.055 C 
ATOM      3  C   UNL     1      32.098 -24.039 -14.043  0.00  0.00    -0.005 C 
ATOM      4  C   UNL     1      33.331 -24.524 -13.668  0.00  0.00    +0.065 C 
ATOM      5  C   UNL     1      32.261 -23.385 -15.288  0.00  0.00    +0.012 C 
ATOM      6  C   UNL     1      30.839 -24.176 -13.285  0.00  0.00    +0.032 C 
ENDROOT
BRANCH   1   7
ATOM      7  C   UNL     1      35.588 -24.511 -14.607  0.00  0.00    +0.056 C 
ATOM      8  C   UNL     1      36.026 -25.685 -15.204  0.00  0.00    +0.017 C 
ATOM      9  C   UNL     1      36.478 -23.657 -13.972  0.00  0.00    +0.017 C 
ATOM     10  C   UNL     1      38.286 -25.158 -14.533  0.00  0.00    +0.122 C 
ATOM     11  C   UNL     1      37.382 -26.010 -15.167  0.00  0.00    +0.021 C 
ATOM     12  C   UNL     1      37.835 -23.982 -13.935  0.00  0.00    +0.021 C 
BRANCH  10  13
ATOM     13  S   UNL     1      39.983 -25.567 -14.485  0.00  0.00    +0.057 S 
ATOM     14  O   UNL     1      40.720 -24.407 -14.004  0.00  0.00    -0.153 OA
ATOM     15  O   UNL     1      40.131 -26.849 -13.811  0.00  0.00    -0.153 OA
BRANCH  13  16
ATOM     16  N   UNL     1      40.313 -25.780 -16.148  0.00  0.00    -0.203 NA
ATOM     17  H   UNL     1      41.178 -26.309 -16.258  0.00  0.00    +0.144 HD
ATOM     18  H   UNL     1      40.413 -24.868 -16.594  0.00  0.00    +0.144 HD
ENDBRANCH  13  16
ENDBRANCH  10  13
ENDBRANCH   1   7
BRANCH   2  19
ATOM     19  C   UNL     1      34.252 -22.983 -16.820  0.00  0.00    +0.014 C 
ATOM     20  C   UNL     1      33.612 -23.043 -18.058  0.00  0.00    +0.004 C 
ATOM     21  C   UNL     1      35.531 -22.433 -16.722  0.00  0.00    +0.004 C 
ATOM     22  C   UNL     1      34.250 -22.554 -19.197  0.00  0.00    +0.037 C 
ATOM     23  C   UNL     1      36.169 -21.943 -17.863  0.00  0.00    +0.037 C 
ATOM     24  C   UNL     1      35.528 -22.004 -19.100  0.00  0.00    +0.139 C 
BRANCH  24  25
ATOM     25  O   UNL     1      36.150 -21.526 -20.212  0.00  0.00    -0.475 OA
BRANCH  25  26
ATOM     26  C   UNL     1      36.399 -20.122 -20.265  0.00  0.00    +0.206 C 
ATOM     27  C   UNL     1      35.272 -19.448 -21.016  0.00  0.00    +0.051 C 
ENDBRANCH  25  26
ENDBRANCH  24  25
ENDBRANCH   2  19
TORSDOF 6
ENDMDL
MODEL 2
REMARK VINA RESULT:      -9.1      4.215      6.329
REMARK  Name = 9820073
REMARK  6 active torsions:
REMARK  status: ('A' for Active; 'I' for Inactive)
REMARK    1  A    between atoms: N_1  and  C_7
REMARK    2  A    between atoms: C_2  and  C_19
REMARK    3  A    between atoms: C_10  and  S_13
REMARK    4  A    between atoms: S_13  and  N_16
REMARK    5  A    between atoms: C_24  and  O_25
REMARK    6  A    between atoms: O_25  and  C_26
REMARK                            x       y       z     vdW  Elec       q    Type
REMARK                         _______ _______ _______ _____ _____    ______ ____
ROOT
ATOM      1  N   UNL     1      33.457 -23.828 -14.110  0.00  0.00    -0.265 N 
ATOM      2  C   UNL     1      34.636 -23.557 -14.759  0.00  0.00    +0.055 C 
ATOM      3  C   UNL     1      35.084 -24.229 -12.652  0.00  0.00    -0.005 C 
ATOM      4  C   UNL     1      33.718 -24.237 -12.828  0.00  0.00    +0.065 C 
ATOM      5  C   UNL     1      35.665 -23.800 -13.870  0.00  0.00    +0.012 C 
ATOM      6  C   UNL     1      35.808 -24.600 -11.420  0.00  0.00    +0.032 C 
ENDROOT
BRANCH   1   7
ATOM      7  C   UNL     1      32.174 -23.712 -14.649  0.00  0.00    +0.056 C 
ATOM      8  C   UNL     1      31.536 -24.840 -15.145  0.00  0.00    +0.017 C 
ATOM      9  C   UNL     1      31.557 -22.470 -14.681  0.00  0.00    +0.017 C 
ATOM     10  C   UNL     1      29.624 -23.480 -15.720  0.00  0.00    +0.122 C 
ATOM     11  C   UNL     1      30.255 -24.724 -15.683  0.00  0.00    +0.021 C 
ATOM     12  C   UNL     1      30.275 -22.353 -15.219  0.00  0.00    +0.021 C 
BRANCH  10  13
ATOM     13  S   UNL     1      28.021 -23.335 -16.394  0.00  0.00    +0.057 S 
ATOM     14  O   UNL     1      27.811 -24.437 -17.322  0.00  0.00    -0.153 OA
ATOM     15  O   UNL     1      27.078 -23.117 -15.305  0.00  0.00    -0.153 OA
BRANCH  13  16
ATOM     16  N   UNL     1      28.172 -21.885 -17.285  0.00  0.00    -0.203 NA
ATOM     17  H   UNL     1      29.106 -21.831 -17.692  0.00  0.00    +0.144 HD
ATOM     18  H   UNL     1      28.025 -21.088 -16.665  0.00  0.00    +0.144 HD
ENDBRANCH  13  16
ENDBRANCH  10  13
ENDBRANCH   1   7
BRANCH   2  19
ATOM     19  C   UNL     1      34.716 -23.103 -16.126  0.00  0.00    +0.014 C 
ATOM     20  C   UNL     1      33.676 -23.380 -17.014  0.00  0.00    +0.004 C 
ATOM     21  C   UNL     1      35.832 -22.387 -16.559  0.00  0.00    +0.004 C 
ATOM     22  C   UNL     1      33.753 -22.940 -18.335  0.00  0.00    +0.037 C 
ATOM     23  C   UNL     1      35.908 -21.947 -17.881  0.00  0.00    +0.037 C 
ATOM     24  C   UNL     1      34.868 -22.224 -18.769  0.00  0.00    +0.139 C 
BRANCH  24  25
ATOM     25  O   UNL     1      34.943 -21.794 -20.058  0.00  0.00    -0.475 OA
BRANCH  25  26
ATOM     26  C   UNL     1      34.812 -20.391 -20.285  0.00  0.00    +0.206 C 
ATOM     27  C   UNL     1      33.376 -20.081 -20.645  0.00  0.00    +0.051 C 
ENDBRANCH  25  26
ENDBRANCH  24  25
ENDBRANCH   2  19
TORSDOF 6
ENDMDL
MODEL 3
REMARK VINA RESULT:      -9.1      4.214      6.463
REMARK  Name = 9820073
REMARK  6 active torsions:
REMARK  status: ('A' for Active; 'I' for Inactive)
REMARK    1  A    between atoms: N_1  and  C_7
REMARK    2  A    between atoms: C_2  and  C_19
REMARK    3  A    between atoms: C_10  and  S_13
REMARK    4  A    between atoms: S_13  and  N_16
REMARK    5  A    between atoms: C_24  and  O_25
REMARK    6  A    between atoms: O_25  and  C_26
REMARK                            x       y       z     vdW  Elec       q    Type
REMARK                         _______ _______ _______ _____ _____    ______ ____
ROOT
ATOM      1  N   UNL     1      33.453 -23.822 -14.116  0.00  0.00    -0.265 N 
ATOM      2  C   UNL     1      34.633 -23.553 -14.764  0.00  0.00    +0.055 C 
ATOM      3  C   UNL     1      35.079 -24.221 -12.656  0.00  0.00    -0.005 C 
ATOM      4  C   UNL     1      33.713 -24.229 -12.833  0.00  0.00    +0.065 C 
ATOM      5  C   UNL     1      35.661 -23.795 -13.873  0.00  0.00    +0.012 C 
ATOM      6  C   UNL     1      35.801 -24.590 -11.423  0.00  0.00    +0.032 C 
ENDROOT
BRANCH   1   7
ATOM      7  C   UNL     1      32.171 -23.706 -14.657  0.00  0.00    +0.056 C 
ATOM      8  C   UNL     1      31.560 -22.461 -14.709  0.00  0.00    +0.017 C 
ATOM      9  C   UNL     1      31.526 -24.839 -15.132  0.00  0.00    +0.017 C 
ATOM     10  C   UNL     1      29.623 -23.478 -15.732  0.00  0.00    +0.122 C 
ATOM     11  C   UNL     1      30.280 -22.346 -15.250  0.00  0.00    +0.021 C 
ATOM     12  C   UNL     1      30.245 -24.725 -15.673  0.00  0.00    +0.021 C 
BRANCH  10  13
ATOM     13  S   UNL     1      28.019 -23.334 -16.408  0.00  0.00    +0.057 S 
ATOM     14  O   UNL     1      27.816 -24.430 -17.344  0.00  0.00    -0.153 OA
ATOM     15  O   UNL     1      27.075 -23.129 -15.318  0.00  0.00    -0.153 OA
BRANCH  13  16
ATOM     16  N   UNL     1      28.166 -21.876 -17.287  0.00  0.00    -0.203 NA
ATOM     17  H   UNL     1      27.309 -21.331 -17.188  0.00  0.00    +0.144 HD
ATOM     18  H   UNL     1      28.321 -22.089 -18.273  0.00  0.00    +0.144 HD
ENDBRANCH  13  16
ENDBRANCH  10  13
ENDBRANCH   1   7
BRANCH   2  19
ATOM     19  C   UNL     1      34.715 -23.101 -16.132  0.00  0.00    +0.014 C 
ATOM     20  C   UNL     1      35.831 -22.384 -16.564  0.00  0.00    +0.004 C 
ATOM     21  C   UNL     1      33.678 -23.382 -17.022  0.00  0.00    +0.004 C 
ATOM     22  C   UNL     1      35.910 -21.948 -17.886  0.00  0.00    +0.037 C 
ATOM     23  C   UNL     1      33.759 -22.945 -18.346  0.00  0.00    +0.037 C 
ATOM     24  C   UNL     1      34.875 -22.228 -18.777  0.00  0.00    +0.139 C 
BRANCH  24  25
ATOM     25  O   UNL     1      34.952 -21.804 -20.068  0.00  0.00    -0.475 OA
BRANCH  25  26
ATOM     26  C   UNL     1      34.858 -20.399 -20.297  0.00  0.00    +0.206 C 
ATOM     27  C   UNL     1      33.428 -20.050 -20.646  0.00  0.00    +0.051 C 
ENDBRANCH  25  26
ENDBRANCH  24  25
ENDBRANCH   2  19
TORSDOF 6
ENDMDL
MODEL 4
REMARK VINA RESULT:      -8.1      2.827      5.423
REMARK  Name = 9820073
REMARK  6 active torsions:
REMARK  status: ('A' for Active; 'I' for Inactive)
REMARK    1  A    between atoms: N_1  and  C_7
REMARK    2  A    between atoms: C_2  and  C_19
REMARK    3  A    between atoms: C_10  and  S_13
REMARK    4  A    between atoms: S_13  and  N_16
REMARK    5  A    between atoms: C_24  and  O_25
REMARK    6  A    between atoms: O_25  and  C_26
REMARK                            x       y       z     vdW  Elec       q    Type
REMARK                         _______ _______ _______ _____ _____    ______ ____
ROOT
ATOM      1  N   UNL     1      35.690 -22.696 -16.938  0.00  0.00    -0.265 N 
ATOM      2  C   UNL     1      34.443 -22.488 -17.474  0.00  0.00    +0.055 C 
ATOM      3  C   UNL     1      36.007 -21.711 -18.903  0.00  0.00    -0.005 C 
ATOM      4  C   UNL     1      36.647 -22.227 -17.799  0.00  0.00    +0.065 C 
ATOM      5  C   UNL     1      34.615 -21.875 -18.700  0.00  0.00    +0.012 C 
ATOM      6  C   UNL     1      36.652 -21.100 -20.082  0.00  0.00    +0.032 C 
ENDROOT
BRANCH   1   7
ATOM      7  C   UNL     1      35.968 -23.292 -15.705  0.00  0.00    +0.056 C 
ATOM      8  C   UNL     1      36.234 -22.491 -14.604  0.00  0.00    +0.017 C 
ATOM      9  C   UNL     1      35.975 -24.675 -15.602  0.00  0.00    +0.017 C 
ATOM     10  C   UNL     1      36.520 -24.475 -13.257  0.00  0.00    +0.122 C 
ATOM     11  C   UNL     1      36.512 -23.085 -13.373  0.00  0.00    +0.021 C 
ATOM     12  C   UNL     1      36.253 -25.271 -14.371  0.00  0.00    +0.021 C 
BRANCH  10  13
ATOM     13  S   UNL     1      36.869 -25.220 -11.717  0.00  0.00    +0.057 S 
ATOM     14  O   UNL     1      37.054 -26.648 -11.929  0.00  0.00    -0.153 OA
ATOM     15  O   UNL     1      37.909 -24.446 -11.054  0.00  0.00    -0.153 OA
BRANCH  13  16
ATOM     16  N   UNL     1      35.393 -24.971 -10.893  0.00  0.00    -0.203 NA
ATOM     17  H   UNL     1      35.100 -24.000 -11.004  0.00  0.00    +0.144 HD
ATOM     18  H   UNL     1      35.518 -25.178  -9.902  0.00  0.00    +0.144 HD
ENDBRANCH  13  16
ENDBRANCH  10  13
ENDBRANCH   1   7
BRANCH   2  19
ATOM     19  C   UNL     1      33.214 -22.867 -16.822  0.00  0.00    +0.014 C 
ATOM     20  C   UNL     1      33.251 -23.537 -15.598  0.00  0.00    +0.004 C 
ATOM     21  C   UNL     1      31.987 -22.562 -17.413  0.00  0.00    +0.004 C 
ATOM     22  C   UNL     1      32.062 -23.901 -14.967  0.00  0.00    +0.037 C 
ATOM     23  C   UNL     1      30.798 -22.927 -16.780  0.00  0.00    +0.037 C 
ATOM     24  C   UNL     1      30.836 -23.597 -15.557  0.00  0.00    +0.139 C 
BRANCH  24  25
ATOM     25  O   UNL     1      29.676 -23.953 -14.941  0.00  0.00    -0.475 OA
BRANCH  25  26
ATOM     26  C   UNL     1      28.507 -24.036 -15.754  0.00  0.00    +0.206 C 
ATOM     27  C   UNL     1      27.727 -22.745 -15.633  0.00  0.00    +0.051 C 
ENDBRANCH  25  26
ENDBRANCH  24  25
ENDBRANCH   2  19
TORSDOF 6
ENDMDL
MODEL 5
REMARK VINA RESULT:      -7.7      9.799     13.423
REMARK  Name = 9820073
REMARK  6 active torsions:
REMARK  status: ('A' for Active; 'I' for Inactive)
REMARK    1  A    between atoms: N_1  and  C_7
REMARK    2  A    between atoms: C_2  and  C_19
REMARK    3  A    between atoms: C_10  and  S_13
REMARK    4  A    between atoms: S_13  and  N_16
REMARK    5  A    between atoms: C_24  and  O_25
REMARK    6  A    between atoms: O_25  and  C_26
REMARK                            x       y       z     vdW  Elec       q    Type
REMARK                         _______ _______ _______ _____ _____    ______ ____
ROOT
ATOM      1  N   UNL     1      32.290 -12.344 -21.601  0.00  0.00    -0.265 N 
ATOM      2  C   UNL     1      32.458 -13.224 -20.561  0.00  0.00    +0.055 C 
ATOM      3  C   UNL     1      31.570 -11.305 -19.775  0.00  0.00    -0.005 C 
ATOM      4  C   UNL     1      31.751 -11.174 -21.134  0.00  0.00    +0.065 C 
ATOM      5  C   UNL     1      32.016 -12.598 -19.412  0.00  0.00    +0.012 C 
ATOM      6  C   UNL     1      31.013 -10.284 -18.865  0.00  0.00    +0.032 C 
ENDROOT
BRANCH   1   7
ATOM      7  C   UNL     1      32.612 -12.579 -22.940  0.00  0.00    +0.056 C 
ATOM      8  C   UNL     1      32.248 -13.781 -23.530  0.00  0.00    +0.017 C 
ATOM      9  C   UNL     1      33.293 -11.607 -23.659  0.00  0.00    +0.017 C 
ATOM     10  C   UNL     1      33.252 -13.044 -25.600  0.00  0.00    +0.122 C 
ATOM     11  C   UNL     1      32.569 -14.015 -24.867  0.00  0.00    +0.021 C 
ATOM     12  C   UNL     1      33.614 -11.840 -24.996  0.00  0.00    +0.021 C 
BRANCH  10  13
ATOM     13  S   UNL     1      33.655 -13.338 -27.273  0.00  0.00    +0.057 S 
ATOM     14  O   UNL     1      34.799 -12.508 -27.622  0.00  0.00    -0.153 OA
ATOM     15  O   UNL     1      33.711 -14.777 -27.489  0.00  0.00    -0.153 OA
BRANCH  13  16
ATOM     16  N   UNL     1      32.267 -12.721 -28.055  0.00  0.00    -0.203 NA
ATOM     17  H   UNL     1      31.604 -13.478 -28.222  0.00  0.00    +0.144 HD
ATOM     18  H   UNL     1      32.537 -12.304 -28.947  0.00  0.00    +0.144 HD
ENDBRANCH  13  16
ENDBRANCH  10  13
ENDBRANCH   1   7
BRANCH   2  19
ATOM     19  C   UNL     1      33.004 -14.551 -20.710  0.00  0.00    +0.014 C 
ATOM     20  C   UNL     1      34.380 -14.725 -20.869  0.00  0.00    +0.004 C 
ATOM     21  C   UNL     1      32.158 -15.660 -20.694  0.00  0.00    +0.004 C 
ATOM     22  C   UNL     1      34.908 -16.007 -21.013  0.00  0.00    +0.037 C 
ATOM     23  C   UNL     1      32.688 -16.943 -20.838  0.00  0.00    +0.037 C 
ATOM     24  C   UNL     1      34.063 -17.116 -20.997  0.00  0.00    +0.139 C 
BRANCH  24  25
ATOM     25  O   UNL     1      34.579 -18.368 -21.136  0.00  0.00    -0.475 OA
BRANCH  25  26
ATOM     26  C   UNL     1      35.570 -18.555 -22.145  0.00  0.00    +0.206 C 
ATOM     27  C   UNL     1      34.890 -18.954 -23.437  0.00  0.00    +0.051 C 
ENDBRANCH  25  26
ENDBRANCH  24  25
ENDBRANCH   2  19
TORSDOF 6
ENDMDL
MODEL 6
REMARK VINA RESULT:      -7.2     13.944     16.447
REMARK  Name = 9820073
REMARK  6 active torsions:
REMARK  status: ('A' for Active; 'I' for Inactive)
REMARK    1  A    between atoms: N_1  and  C_7
REMARK    2  A    between atoms: C_2  and  C_19
REMARK    3  A    between atoms: C_10  and  S_13
REMARK    4  A    between atoms: S_13  and  N_16
REMARK    5  A    between atoms: C_24  and  O_25
REMARK    6  A    between atoms: O_25  and  C_26
REMARK                            x       y       z     vdW  Elec       q    Type
REMARK                         _______ _______ _______ _____ _____    ______ ____
ROOT
ATOM      1  N   UNL     1      32.223 -10.962 -21.749  0.00  0.00    -0.265 N 
ATOM      2  C   UNL     1      32.100  -9.616 -21.508  0.00  0.00    +0.055 C 
ATOM      3  C   UNL     1      31.676 -10.754 -19.607  0.00  0.00    -0.005 C 
ATOM      4  C   UNL     1      31.967 -11.663 -20.600  0.00  0.00    +0.065 C 
ATOM      5  C   UNL     1      31.760  -9.462 -20.179  0.00  0.00    +0.012 C 
ATOM      6  C   UNL     1      31.340 -11.070 -18.205  0.00  0.00    +0.032 C 
ENDROOT
BRANCH   1   7
ATOM      7  C   UNL     1      32.555 -11.554 -22.970  0.00  0.00    +0.056 C 
ATOM      8  C   UNL     1      33.280 -10.830 -23.906  0.00  0.00    +0.017 C 
ATOM      9  C   UNL     1      32.153 -12.857 -23.229  0.00  0.00    +0.017 C 
ATOM     10  C   UNL     1      33.215 -12.731 -25.395  0.00  0.00    +0.122 C 
ATOM     11  C   UNL     1      33.613 -11.422 -25.125  0.00  0.00    +0.021 C 
ATOM     12  C   UNL     1      32.485 -13.449 -24.448  0.00  0.00    +0.021 C 
BRANCH  10  13
ATOM     13  S   UNL     1      33.630 -13.471 -26.921  0.00  0.00    +0.057 S 
ATOM     14  O   UNL     1      34.745 -12.735 -27.500  0.00  0.00    -0.153 OA
ATOM     15  O   UNL     1      33.736 -14.910 -26.724  0.00  0.00    -0.153 OA
BRANCH  13  16
ATOM     16  N   UNL     1      32.222 -13.146 -27.834  0.00  0.00    -0.203 NA
ATOM     17  H   UNL     1      31.671 -12.428 -27.365  0.00  0.00    +0.144 HD
ATOM     18  H   UNL     1      31.668 -13.999 -27.918  0.00  0.00    +0.144 HD
ENDBRANCH  13  16
ENDBRANCH  10  13
ENDBRANCH   1   7
BRANCH   2  19
ATOM     19  C   UNL     1      32.304  -8.598 -22.509  0.00  0.00    +0.014 C 
ATOM     20  C   UNL     1      31.243  -8.197 -23.322  0.00  0.00    +0.004 C 
ATOM     21  C   UNL     1      33.561  -8.013 -22.665  0.00  0.00    +0.004 C 
ATOM     22  C   UNL     1      31.440  -7.212 -24.290  0.00  0.00    +0.037 C 
ATOM     23  C   UNL     1      33.758  -7.027 -23.633  0.00  0.00    +0.037 C 
ATOM     24  C   UNL     1      32.697  -6.627 -24.445  0.00  0.00    +0.139 C 
BRANCH  24  25
ATOM     25  O   UNL     1      32.889  -5.665 -25.389  0.00  0.00    -0.475 OA
BRANCH  25  26
ATOM     26  C   UNL     1      32.020  -4.534 -25.351  0.00  0.00    +0.206 C 
ATOM     27  C   UNL     1      32.266  -3.681 -26.576  0.00  0.00    +0.051 C 
ENDBRANCH  25  26
ENDBRANCH  24  25
ENDBRANCH   2  19
TORSDOF 6
ENDMDL
