MODEL 1
REMARK VINA RESULT:      -7.1      0.000      0.000
REMARK  Name = 8293
REMARK  6 active torsions:
REMARK  status: ('A' for Active; 'I' for Inactive)
REMARK    1  A    between atoms: C_1  and  S_7
REMARK    2  A    between atoms: C_2  and  O_13
REMARK    3  A    between atoms: S_7  and  N_10
REMARK    4  A    between atoms: O_13  and  P_15
REMARK    5  A    between atoms: P_15  and  O_16
REMARK    6  A    between atoms: P_15  and  O_18
REMARK                            x       y       z     vdW  Elec       q    Type
REMARK                         _______ _______ _______ _____ _____    ______ ____
ROOT
ATOM      1  C   UNL     1      34.941 -22.505 -17.653  0.00  0.00    +0.122 C 
ATOM      2  C   UNL     1      36.668 -22.964 -15.520  0.00  0.00    +0.147 C 
ATOM      3  C   UNL     1      34.482 -23.164 -16.513  0.00  0.00    +0.023 C 
ATOM      4  C   UNL     1      36.267 -22.076 -17.724  0.00  0.00    +0.023 C 
ATOM      5  C   UNL     1      35.347 -23.394 -15.443  0.00  0.00    +0.039 C 
ATOM      6  C   UNL     1      37.133 -22.306 -16.655  0.00  0.00    +0.039 C 
ENDROOT
BRANCH   1   7
ATOM      7  S   UNL     1      33.857 -22.216 -18.991  0.00  0.00    +0.057 S 
ATOM      8  O   UNL     1      32.500 -22.125 -18.471  0.00  0.00    -0.153 OA
ATOM      9  O   UNL     1      34.397 -21.131 -19.798  0.00  0.00    -0.153 OA
BRANCH   7  10
ATOM     10  N   UNL     1      34.017 -23.678 -19.860  0.00  0.00    -0.203 NA
ATOM     11  H   UNL     1      33.109 -23.952 -20.236  0.00  0.00    +0.144 HD
ATOM     12  H   UNL     1      34.360 -24.408 -19.236  0.00  0.00    +0.144 HD
ENDBRANCH   7  10
ENDBRANCH   1   7
BRANCH   2  13
ATOM     13  O   UNL     1      37.518 -23.191 -14.471  0.00  0.00    -0.425 OA
BRANCH  13  15
ATOM     14  S   UNL     1      36.710 -25.058 -12.198  0.00  0.00    +0.036 S 
ATOM     15  P   UNL     1      37.803 -24.617 -13.753  0.00  0.00    +0.363 P 
BRANCH  15  16
ATOM     16  O   UNL     1      39.407 -24.519 -13.490  0.00  0.00    -0.286 OA
ATOM     17  C   UNL     1      40.291 -25.364 -14.207  0.00  0.00    +0.185 C 
ENDBRANCH  15  16
BRANCH  15  18
ATOM     18  O   UNL     1      37.758 -25.646 -15.012  0.00  0.00    -0.286 OA
ATOM     19  C   UNL     1      36.881 -26.759 -14.982  0.00  0.00    +0.185 C 
ENDBRANCH  15  18
ENDBRANCH  13  15
ENDBRANCH   2  13
TORSDOF 6
ENDMDL
MODEL 2
REMARK VINA RESULT:      -7.1      1.284      2.144
REMARK  Name = 8293
REMARK  6 active torsions:
REMARK  status: ('A' for Active; 'I' for Inactive)
REMARK    1  A    between atoms: C_1  and  S_7
REMARK    2  A    between atoms: C_2  and  O_13
REMARK    3  A    between atoms: S_7  and  N_10
REMARK    4  A    between atoms: O_13  and  P_15
REMARK    5  A    between atoms: P_15  and  O_16
REMARK    6  A    between atoms: P_15  and  O_18
REMARK                            x       y       z     vdW  Elec       q    Type
REMARK                         _______ _______ _______ _____ _____    ______ ____
ROOT
ATOM      1  C   UNL     1      34.906 -22.545 -17.539  0.00  0.00    +0.122 C 
ATOM      2  C   UNL     1      36.627 -22.977 -15.397  0.00  0.00    +0.147 C 
ATOM      3  C   UNL     1      36.228 -22.106 -17.606  0.00  0.00    +0.023 C 
ATOM      4  C   UNL     1      34.446 -23.201 -16.396  0.00  0.00    +0.023 C 
ATOM      5  C   UNL     1      37.091 -22.323 -16.533  0.00  0.00    +0.039 C 
ATOM      6  C   UNL     1      35.309 -23.418 -15.323  0.00  0.00    +0.039 C 
ENDROOT
BRANCH   1   7
ATOM      7  S   UNL     1      33.826 -22.273 -18.885  0.00  0.00    +0.057 S 
ATOM      8  O   UNL     1      32.464 -22.214 -18.375  0.00  0.00    -0.153 OA
ATOM      9  O   UNL     1      34.349 -21.172 -19.682  0.00  0.00    -0.153 OA
BRANCH   7  10
ATOM     10  N   UNL     1      34.026 -23.726 -19.760  0.00  0.00    -0.203 NA
ATOM     11  H   UNL     1      33.119 -24.045 -20.102  0.00  0.00    +0.144 HD
ATOM     12  H   UNL     1      34.428 -24.438 -19.150  0.00  0.00    +0.144 HD
ENDBRANCH   7  10
ENDBRANCH   1   7
BRANCH   2  13
ATOM     13  O   UNL     1      37.474 -23.189 -14.341  0.00  0.00    -0.425 OA
BRANCH  13  15
ATOM     14  S   UNL     1      37.104 -26.211 -14.529  0.00  0.00    +0.036 S 
ATOM     15  P   UNL     1      37.845 -24.621 -13.676  0.00  0.00    +0.363 P 
BRANCH  15  16
ATOM     16  O   UNL     1      37.400 -24.371 -12.130  0.00  0.00    -0.286 OA
ATOM     17  C   UNL     1      37.140 -23.054 -11.675  0.00  0.00    +0.185 C 
ENDBRANCH  15  16
BRANCH  15  18
ATOM     18  O   UNL     1      39.465 -24.527 -13.552  0.00  0.00    -0.286 OA
ATOM     19  C   UNL     1      40.279 -25.459 -14.242  0.00  0.00    +0.185 C 
ENDBRANCH  15  18
ENDBRANCH  13  15
ENDBRANCH   2  13
TORSDOF 6
ENDMDL
MODEL 3
REMARK VINA RESULT:      -7.0      3.356      4.540
REMARK  Name = 8293
REMARK  6 active torsions:
REMARK  status: ('A' for Active; 'I' for Inactive)
REMARK    1  A    between atoms: C_1  and  S_7
REMARK    2  A    between atoms: C_2  and  O_13
REMARK    3  A    between atoms: S_7  and  N_10
REMARK    4  A    between atoms: O_13  and  P_15
REMARK    5  A    between atoms: P_15  and  O_16
REMARK    6  A    between atoms: P_15  and  O_18
REMARK                            x       y       z     vdW  Elec       q    Type
REMARK                         _______ _______ _______ _____ _____    ______ ____
ROOT
ATOM      1  C   UNL     1      34.774 -20.172 -20.556  0.00  0.00    +0.122 C 
ATOM      2  C   UNL     1      34.650 -22.217 -18.673  0.00  0.00    +0.147 C 
ATOM      3  C   UNL     1      35.949 -20.712 -20.033  0.00  0.00    +0.023 C 
ATOM      4  C   UNL     1      33.536 -20.658 -20.133  0.00  0.00    +0.023 C 
ATOM      5  C   UNL     1      35.887 -21.738 -19.090  0.00  0.00    +0.039 C 
ATOM      6  C   UNL     1      33.474 -21.683 -19.190  0.00  0.00    +0.039 C 
ENDROOT
BRANCH   1   7
ATOM      7  S   UNL     1      34.853 -18.889 -21.737  0.00  0.00    +0.057 S 
ATOM      8  O   UNL     1      34.522 -19.445 -23.041  0.00  0.00    -0.153 OA
ATOM      9  O   UNL     1      34.109 -17.746 -21.228  0.00  0.00    -0.153 OA
BRANCH   7  10
ATOM     10  N   UNL     1      36.520 -18.518 -21.703  0.00  0.00    -0.203 NA
ATOM     11  H   UNL     1      37.051 -19.358 -21.475  0.00  0.00    +0.144 HD
ATOM     12  H   UNL     1      36.694 -17.803 -20.997  0.00  0.00    +0.144 HD
ENDBRANCH   7  10
ENDBRANCH   1   7
BRANCH   2  13
ATOM     13  O   UNL     1      34.588 -23.223 -17.746  0.00  0.00    -0.425 OA
BRANCH  13  15
ATOM     14  S   UNL     1      36.900 -22.180 -16.052  0.00  0.00    +0.036 S 
ATOM     15  P   UNL     1      35.263 -23.217 -16.271  0.00  0.00    +0.363 P 
BRANCH  15  16
ATOM     16  O   UNL     1      35.388 -24.813 -15.979  0.00  0.00    -0.286 OA
ATOM     17  C   UNL     1      36.196 -25.273 -14.908  0.00  0.00    +0.185 C 
ENDBRANCH  15  16
BRANCH  15  18
ATOM     18  O   UNL     1      34.000 -22.826 -15.322  0.00  0.00    -0.286 OA
ATOM     19  C   UNL     1      32.729 -23.403 -15.569  0.00  0.00    +0.185 C 
ENDBRANCH  15  18
ENDBRANCH  13  15
ENDBRANCH   2  13
TORSDOF 6
ENDMDL
MODEL 4
REMARK VINA RESULT:      -7.0      1.237      1.712
REMARK  Name = 8293
REMARK  6 active torsions:
REMARK  status: ('A' for Active; 'I' for Inactive)
REMARK    1  A    between atoms: C_1  and  S_7
REMARK    2  A    between atoms: C_2  and  O_13
REMARK    3  A    between atoms: S_7  and  N_10
REMARK    4  A    between atoms: O_13  and  P_15
REMARK    5  A    between atoms: P_15  and  O_16
REMARK    6  A    between atoms: P_15  and  O_18
REMARK                            x       y       z     vdW  Elec       q    Type
REMARK                         _______ _______ _______ _____ _____    ______ ____
ROOT
ATOM      1  C   UNL     1      34.963 -22.569 -17.569  0.00  0.00    +0.122 C 
ATOM      2  C   UNL     1      36.701 -22.961 -15.432  0.00  0.00    +0.147 C 
ATOM      3  C   UNL     1      34.517 -23.217 -16.417  0.00  0.00    +0.023 C 
ATOM      4  C   UNL     1      36.281 -22.118 -17.650  0.00  0.00    +0.023 C 
ATOM      5  C   UNL     1      35.388 -23.413 -15.345  0.00  0.00    +0.039 C 
ATOM      6  C   UNL     1      37.152 -22.314 -16.578  0.00  0.00    +0.039 C 
ENDROOT
BRANCH   1   7
ATOM      7  S   UNL     1      33.872 -22.324 -18.910  0.00  0.00    +0.057 S 
ATOM      8  O   UNL     1      32.514 -22.254 -18.390  0.00  0.00    -0.153 OA
ATOM      9  O   UNL     1      34.388 -21.239 -19.733  0.00  0.00    -0.153 OA
BRANCH   7  10
ATOM     10  N   UNL     1      34.063 -23.794 -19.758  0.00  0.00    -0.203 NA
ATOM     11  H   UNL     1      34.883 -23.735 -20.362  0.00  0.00    +0.144 HD
ATOM     12  H   UNL     1      33.234 -23.969 -20.326  0.00  0.00    +0.144 HD
ENDBRANCH   7  10
ENDBRANCH   1   7
BRANCH   2  13
ATOM     13  O   UNL     1      37.557 -23.154 -14.380  0.00  0.00    -0.425 OA
BRANCH  13  15
ATOM     14  S   UNL     1      37.042 -26.160 -14.368  0.00  0.00    +0.036 S 
ATOM     15  P   UNL     1      38.008 -24.581 -13.756  0.00  0.00    +0.363 P 
BRANCH  15  16
ATOM     16  O   UNL     1      37.918 -24.266 -12.161  0.00  0.00    -0.286 OA
ATOM     17  C   UNL     1      37.158 -23.160 -11.703  0.00  0.00    +0.185 C 
ENDBRANCH  15  16
BRANCH  15  18
ATOM     18  O   UNL     1      39.619 -24.556 -13.985  0.00  0.00    -0.286 OA
ATOM     19  C   UNL     1      40.205 -25.400 -14.962  0.00  0.00    +0.185 C 
ENDBRANCH  15  18
ENDBRANCH  13  15
ENDBRANCH   2  13
TORSDOF 6
ENDMDL
MODEL 5
REMARK VINA RESULT:      -6.8      3.382      4.365
REMARK  Name = 8293
REMARK  6 active torsions:
REMARK  status: ('A' for Active; 'I' for Inactive)
REMARK    1  A    between atoms: C_1  and  S_7
REMARK    2  A    between atoms: C_2  and  O_13
REMARK    3  A    between atoms: S_7  and  N_10
REMARK    4  A    between atoms: O_13  and  P_15
REMARK    5  A    between atoms: P_15  and  O_16
REMARK    6  A    between atoms: P_15  and  O_18
REMARK                            x       y       z     vdW  Elec       q    Type
REMARK                         _______ _______ _______ _____ _____    ______ ____
ROOT
ATOM      1  C   UNL     1      34.662 -20.135 -20.578  0.00  0.00    +0.122 C 
ATOM      2  C   UNL     1      34.562 -22.288 -18.819  0.00  0.00    +0.147 C 
ATOM      3  C   UNL     1      33.433 -20.585 -20.094  0.00  0.00    +0.023 C 
ATOM      4  C   UNL     1      35.841 -20.766 -20.179  0.00  0.00    +0.023 C 
ATOM      5  C   UNL     1      33.383 -21.664 -19.212  0.00  0.00    +0.039 C 
ATOM      6  C   UNL     1      35.791 -21.845 -19.297  0.00  0.00    +0.039 C 
ENDROOT
BRANCH   1   7
ATOM      7  S   UNL     1      34.724 -18.784 -21.682  0.00  0.00    +0.057 S 
ATOM      8  O   UNL     1      34.314 -19.248 -22.999  0.00  0.00    -0.153 OA
ATOM      9  O   UNL     1      34.041 -17.654 -21.068  0.00  0.00    -0.153 OA
BRANCH   7  10
ATOM     10  N   UNL     1      36.401 -18.462 -21.707  0.00  0.00    -0.203 NA
ATOM     11  H   UNL     1      36.891 -19.165 -21.155  0.00  0.00    +0.144 HD
ATOM     12  H   UNL     1      36.576 -17.538 -21.312  0.00  0.00    +0.144 HD
ENDBRANCH   7  10
ENDBRANCH   1   7
BRANCH   2  13
ATOM     13  O   UNL     1      34.513 -23.349 -17.954  0.00  0.00    -0.425 OA
BRANCH  13  15
ATOM     14  S   UNL     1      32.794 -23.075 -15.449  0.00  0.00    +0.036 S 
ATOM     15  P   UNL     1      34.521 -23.272 -16.334  0.00  0.00    +0.363 P 
BRANCH  15  16
ATOM     16  O   UNL     1      35.590 -22.069 -16.084  0.00  0.00    -0.286 OA
ATOM     17  C   UNL     1      36.972 -22.365 -15.976  0.00  0.00    +0.185 C 
ENDBRANCH  15  16
BRANCH  15  18
ATOM     18  O   UNL     1      35.419 -24.570 -15.938  0.00  0.00    -0.286 OA
ATOM     19  C   UNL     1      35.302 -25.140 -14.645  0.00  0.00    +0.185 C 
ENDBRANCH  15  18
ENDBRANCH  13  15
ENDBRANCH   2  13
TORSDOF 6
ENDMDL
MODEL 6
REMARK VINA RESULT:      -6.7      1.462      2.337
REMARK  Name = 8293
REMARK  6 active torsions:
REMARK  status: ('A' for Active; 'I' for Inactive)
REMARK    1  A    between atoms: C_1  and  S_7
REMARK    2  A    between atoms: C_2  and  O_13
REMARK    3  A    between atoms: S_7  and  N_10
REMARK    4  A    between atoms: O_13  and  P_15
REMARK    5  A    between atoms: P_15  and  O_16
REMARK    6  A    between atoms: P_15  and  O_18
REMARK                            x       y       z     vdW  Elec       q    Type
REMARK                         _______ _______ _______ _____ _____    ______ ____
ROOT
ATOM      1  C   UNL     1      34.927 -22.538 -17.574  0.00  0.00    +0.122 C 
ATOM      2  C   UNL     1      36.662 -22.979 -15.445  0.00  0.00    +0.147 C 
ATOM      3  C   UNL     1      36.255 -22.119 -17.658  0.00  0.00    +0.023 C 
ATOM      4  C   UNL     1      34.469 -23.178 -16.422  0.00  0.00    +0.023 C 
ATOM      5  C   UNL     1      37.125 -22.341 -16.591  0.00  0.00    +0.039 C 
ATOM      6  C   UNL     1      35.339 -23.399 -15.354  0.00  0.00    +0.039 C 
ENDROOT
BRANCH   1   7
ATOM      7  S   UNL     1      33.838 -22.261 -18.911  0.00  0.00    +0.057 S 
ATOM      8  O   UNL     1      32.477 -22.227 -18.396  0.00  0.00    -0.153 OA
ATOM      9  O   UNL     1      34.343 -21.143 -19.695  0.00  0.00    -0.153 OA
BRANCH   7  10
ATOM     10  N   UNL     1      34.052 -23.700 -19.808  0.00  0.00    -0.203 NA
ATOM     11  H   UNL     1      33.241 -24.305 -19.678  0.00  0.00    +0.144 HD
ATOM     12  H   UNL     1      34.891 -24.181 -19.483  0.00  0.00    +0.144 HD
ENDBRANCH   7  10
ENDBRANCH   1   7
BRANCH   2  13
ATOM     13  O   UNL     1      37.516 -23.195 -14.396  0.00  0.00    -0.425 OA
BRANCH  13  15
ATOM     14  S   UNL     1      39.774 -25.210 -14.773  0.00  0.00    +0.036 S 
ATOM     15  P   UNL     1      38.119 -24.624 -13.924  0.00  0.00    +0.363 P 
BRANCH  15  16
ATOM     16  O   UNL     1      36.828 -25.594 -14.137  0.00  0.00    -0.286 OA
ATOM     17  C   UNL     1      36.926 -26.718 -14.995  0.00  0.00    +0.185 C 
ENDBRANCH  15  16
BRANCH  15  18
ATOM     18  O   UNL     1      38.126 -24.470 -12.304  0.00  0.00    -0.286 OA
ATOM     19  C   UNL     1      37.424 -23.400 -11.695  0.00  0.00    +0.185 C 
ENDBRANCH  15  18
ENDBRANCH  13  15
ENDBRANCH   2  13
TORSDOF 6
ENDMDL
MODEL 7
REMARK VINA RESULT:      -6.7      3.366      4.100
REMARK  Name = 8293
REMARK  6 active torsions:
REMARK  status: ('A' for Active; 'I' for Inactive)
REMARK    1  A    between atoms: C_1  and  S_7
REMARK    2  A    between atoms: C_2  and  O_13
REMARK    3  A    between atoms: S_7  and  N_10
REMARK    4  A    between atoms: O_13  and  P_15
REMARK    5  A    between atoms: P_15  and  O_16
REMARK    6  A    between atoms: P_15  and  O_18
REMARK                            x       y       z     vdW  Elec       q    Type
REMARK                         _______ _______ _______ _____ _____    ______ ____
ROOT
ATOM      1  C   UNL     1      30.811 -23.163 -15.863  0.00  0.00    +0.122 C 
ATOM      2  C   UNL     1      33.570 -23.129 -15.504  0.00  0.00    +0.147 C 
ATOM      3  C   UNL     1      31.348 -23.176 -14.575  0.00  0.00    +0.023 C 
ATOM      4  C   UNL     1      31.658 -23.134 -16.971  0.00  0.00    +0.023 C 
ATOM      5  C   UNL     1      32.730 -23.158 -14.395  0.00  0.00    +0.039 C 
ATOM      6  C   UNL     1      33.041 -23.116 -16.791  0.00  0.00    +0.039 C 
ENDROOT
BRANCH   1   7
ATOM      7  S   UNL     1      29.079 -23.185 -16.087  0.00  0.00    +0.057 S 
ATOM      8  O   UNL     1      28.512 -22.041 -15.387  0.00  0.00    -0.153 OA
ATOM      9  O   UNL     1      28.799 -23.378 -17.503  0.00  0.00    -0.153 OA
BRANCH   7  10
ATOM     10  N   UNL     1      28.660 -24.610 -15.245  0.00  0.00    -0.203 NA
ATOM     11  H   UNL     1      27.800 -24.996 -15.635  0.00  0.00    +0.144 HD
ATOM     12  H   UNL     1      28.518 -24.393 -14.259  0.00  0.00    +0.144 HD
ENDBRANCH   7  10
ENDBRANCH   1   7
BRANCH   2  13
ATOM     13  O   UNL     1      34.928 -23.113 -15.328  0.00  0.00    -0.425 OA
BRANCH  13  15
ATOM     14  S   UNL     1      35.413 -24.364 -12.589  0.00  0.00    +0.036 S 
ATOM     15  P   UNL     1      35.803 -24.192 -14.492  0.00  0.00    +0.363 P 
BRANCH  15  16
ATOM     16  O   UNL     1      37.317 -23.723 -14.868  0.00  0.00    -0.286 OA
ATOM     17  C   UNL     1      37.527 -22.792 -15.916  0.00  0.00    +0.185 C 
ENDBRANCH  15  16
BRANCH  15  18
ATOM     18  O   UNL     1      35.657 -25.529 -15.407  0.00  0.00    -0.286 OA
ATOM     19  C   UNL     1      36.608 -26.574 -15.285  0.00  0.00    +0.185 C 
ENDBRANCH  15  18
ENDBRANCH  13  15
ENDBRANCH   2  13
TORSDOF 6
ENDMDL
MODEL 8
REMARK VINA RESULT:      -6.7      3.006      3.475
REMARK  Name = 8293
REMARK  6 active torsions:
REMARK  status: ('A' for Active; 'I' for Inactive)
REMARK    1  A    between atoms: C_1  and  S_7
REMARK    2  A    between atoms: C_2  and  O_13
REMARK    3  A    between atoms: S_7  and  N_10
REMARK    4  A    between atoms: O_13  and  P_15
REMARK    5  A    between atoms: P_15  and  O_16
REMARK    6  A    between atoms: P_15  and  O_18
REMARK                            x       y       z     vdW  Elec       q    Type
REMARK                         _______ _______ _______ _____ _____    ______ ____
ROOT
ATOM      1  C   UNL     1      32.538 -23.625 -15.215  0.00  0.00    +0.122 C 
ATOM      2  C   UNL     1      35.280 -23.664 -14.744  0.00  0.00    +0.147 C 
ATOM      3  C   UNL     1      33.027 -24.019 -13.969  0.00  0.00    +0.023 C 
ATOM      4  C   UNL     1      33.425 -23.251 -16.225  0.00  0.00    +0.023 C 
ATOM      5  C   UNL     1      34.401 -24.038 -13.733  0.00  0.00    +0.039 C 
ATOM      6  C   UNL     1      34.799 -23.271 -15.989  0.00  0.00    +0.039 C 
ENDROOT
BRANCH   1   7
ATOM      7  S   UNL     1      30.817 -23.600 -15.509  0.00  0.00    +0.057 S 
ATOM      8  O   UNL     1      30.386 -24.954 -15.828  0.00  0.00    -0.153 OA
ATOM      9  O   UNL     1      30.173 -22.873 -14.425  0.00  0.00    -0.153 OA
BRANCH   7  10
ATOM     10  N   UNL     1      30.743 -22.650 -16.927  0.00  0.00    -0.203 NA
ATOM     11  H   UNL     1      30.653 -23.259 -17.740  0.00  0.00    +0.144 HD
ATOM     12  H   UNL     1      31.596 -22.096 -17.009  0.00  0.00    +0.144 HD
ENDBRANCH   7  10
ENDBRANCH   1   7
BRANCH   2  13
ATOM     13  O   UNL     1      36.630 -23.685 -14.513  0.00  0.00    -0.425 OA
BRANCH  13  15
ATOM     14  S   UNL     1      36.919 -26.659 -15.125  0.00  0.00    +0.036 S 
ATOM     15  P   UNL     1      37.553 -25.002 -14.313  0.00  0.00    +0.363 P 
BRANCH  15  16
ATOM     16  O   UNL     1      37.720 -25.023 -12.693  0.00  0.00    -0.286 OA
ATOM     17  C   UNL     1      37.959 -23.813 -11.994  0.00  0.00    +0.185 C 
ENDBRANCH  15  16
BRANCH  15  18
ATOM     18  O   UNL     1      39.019 -24.462 -14.768  0.00  0.00    -0.286 OA
ATOM     19  C   UNL     1      40.082 -25.380 -14.954  0.00  0.00    +0.185 C 
ENDBRANCH  15  18
ENDBRANCH  13  15
ENDBRANCH   2  13
TORSDOF 6
ENDMDL
MODEL 9
REMARK VINA RESULT:      -6.6      3.514      4.212
REMARK  Name = 8293
REMARK  6 active torsions:
REMARK  status: ('A' for Active; 'I' for Inactive)
REMARK    1  A    between atoms: C_1  and  S_7
REMARK    2  A    between atoms: C_2  and  O_13
REMARK    3  A    between atoms: S_7  and  N_10
REMARK    4  A    between atoms: O_13  and  P_15
REMARK    5  A    between atoms: P_15  and  O_16
REMARK    6  A    between atoms: P_15  and  O_18
REMARK                            x       y       z     vdW  Elec       q    Type
REMARK                         _______ _______ _______ _____ _____    ______ ____
ROOT
ATOM      1  C   UNL     1      32.201 -24.121 -14.330  0.00  0.00    +0.122 C 
ATOM      2  C   UNL     1      34.911 -23.497 -14.269  0.00  0.00    +0.147 C 
ATOM      3  C   UNL     1      32.982 -24.509 -13.241  0.00  0.00    +0.023 C 
ATOM      4  C   UNL     1      32.780 -23.421 -15.389  0.00  0.00    +0.023 C 
ATOM      5  C   UNL     1      34.341 -24.196 -13.211  0.00  0.00    +0.039 C 
ATOM      6  C   UNL     1      34.138 -23.108 -15.358  0.00  0.00    +0.039 C 
ENDROOT
BRANCH   1   7
ATOM      7  S   UNL     1      30.499 -24.513 -14.367  0.00  0.00    +0.057 S 
ATOM      8  O   UNL     1      29.769 -23.343 -14.835  0.00  0.00    -0.153 OA
ATOM      9  O   UNL     1      30.333 -25.789 -15.048  0.00  0.00    -0.153 OA
BRANCH   7  10
ATOM     10  N   UNL     1      30.180 -24.733 -12.704  0.00  0.00    -0.203 NA
ATOM     11  H   UNL     1      29.511 -25.493 -12.583  0.00  0.00    +0.144 HD
ATOM     12  H   UNL     1      29.791 -23.873 -12.316  0.00  0.00    +0.144 HD
ENDBRANCH   7  10
ENDBRANCH   1   7
BRANCH   2  13
ATOM     13  O   UNL     1      36.246 -23.191 -14.240  0.00  0.00    -0.425 OA
BRANCH  13  15
ATOM     14  S   UNL     1      38.470 -24.870 -13.002  0.00  0.00    +0.036 S 
ATOM     15  P   UNL     1      37.474 -24.207 -14.541  0.00  0.00    +0.363 P 
BRANCH  15  16
ATOM     16  O   UNL     1      38.331 -23.346 -15.626  0.00  0.00    -0.286 OA
ATOM     17  C   UNL     1      37.685 -22.360 -16.413  0.00  0.00    +0.185 C 
ENDBRANCH  15  16
BRANCH  15  18
ATOM     18  O   UNL     1      36.772 -25.311 -15.508  0.00  0.00    -0.286 OA
ATOM     19  C   UNL     1      36.841 -26.686 -15.173  0.00  0.00    +0.185 C 
ENDBRANCH  15  18
ENDBRANCH  13  15
ENDBRANCH   2  13
TORSDOF 6
ENDMDL
