MODEL 1
REMARK VINA RESULT:     -11.5      0.000      0.000
REMARK  Name = 445481
REMARK  5 active torsions:
REMARK  status: ('A' for Active; 'I' for Inactive)
REMARK    1  A    between atoms: N_2  and  C_21
REMARK    2  A    between atoms: C_3  and  N_7
REMARK    3  A    between atoms: N_7  and  S_9
REMARK    4  A    between atoms: S_9  and  C_14
REMARK    5  A    between atoms: C_21  and  C_24
REMARK                            x       y       z     vdW  Elec       q    Type
REMARK                         _______ _______ _______ _____ _____    ______ ____
ROOT
ATOM      1  O   UNL     1      36.771 -20.629 -20.098  0.00  0.00    -0.273 OA
ATOM      2  N   UNL     1      35.256 -19.374 -21.389  0.00  0.00    -0.273 N 
ATOM      3  C   UNL     1      34.398 -21.153 -20.151  0.00  0.00    +0.153 C 
ATOM      4  C   UNL     1      33.268 -20.201 -20.528  0.00  0.00    +0.048 C 
ATOM      5  C   UNL     1      33.843 -19.406 -21.684  0.00  0.00    +0.096 C 
ATOM      6  C   UNL     1      35.645 -20.379 -20.503  0.00  0.00    +0.242 C 
ENDROOT
BRANCH   3   7
ATOM      7  N   UNL     1      34.391 -21.438 -18.712  0.00  0.00    -0.171 NA
ATOM      8  H   UNL     1      35.361 -21.562 -18.423  0.00  0.00    +0.149 HD
BRANCH   7   9
ATOM      9  S   UNL     1      33.518 -22.809 -18.165  0.00  0.00    +0.066 S 
ATOM     10  O   UNL     1      33.887 -23.960 -18.965  0.00  0.00    -0.152 OA
ATOM     11  O   UNL     1      32.129 -22.441 -17.970  0.00  0.00    -0.152 OA
BRANCH   9  14
ATOM     12  S   UNL     1      35.727 -22.798 -16.258  0.00  0.00    -0.066 S 
ATOM     13  N   UNL     1      34.034 -24.279 -13.084  0.00  0.00    -0.243 NA
ATOM     14  C   UNL     1      34.095 -23.174 -16.508  0.00  0.00    +0.153 C 
ATOM     15  C   UNL     1      33.471 -23.692 -15.425  0.00  0.00    +0.046 C 
ATOM     16  C   UNL     1      34.361 -23.796 -14.314  0.00  0.00    +0.089 C 
ATOM     17  C   UNL     1      35.642 -23.340 -14.629  0.00  0.00    +0.048 C 
ATOM     18  C   UNL     1      36.654 -23.365 -13.658  0.00  0.00    +0.010 C 
ATOM     19  C   UNL     1      36.326 -23.856 -12.401  0.00  0.00    +0.021 C 
ATOM     20  C   UNL     1      35.032 -24.288 -12.177  0.00  0.00    +0.099 C 
ENDBRANCH   9  14
ENDBRANCH   7   9
ENDBRANCH   3   7
BRANCH   2  21
ATOM     21  C   UNL     1      36.151 -18.460 -22.064  0.00  0.00    +0.135 C 
BRANCH  21  24
ATOM     22  N   UNL     1      35.065 -17.348 -23.997  0.00  0.00    -0.313 N 
ATOM     23  N   UNL     1      33.175 -14.593 -25.566  0.00  0.00    -0.241 NA
ATOM     24  C   UNL     1      35.380 -17.325 -22.679  0.00  0.00    +0.046 C 
ATOM     25  C   UNL     1      34.904 -16.187 -22.110  0.00  0.00    +0.013 C 
ATOM     26  C   UNL     1      34.249 -15.455 -23.141  0.00  0.00    +0.017 C 
ATOM     27  C   UNL     1      34.365 -16.206 -24.311  0.00  0.00    +0.068 C 
ATOM     28  C   UNL     1      33.570 -14.230 -23.193  0.00  0.00    +0.022 C 
ATOM     29  C   UNL     1      33.831 -15.777 -25.519  0.00  0.00    +0.113 C 
ATOM     30  C   UNL     1      33.062 -13.864 -24.433  0.00  0.00    +0.099 C 
ATOM     31  H   UNL     1      35.299 -18.067 -24.628  0.00  0.00    +0.152 HD
ENDBRANCH  21  24
ENDBRANCH   2  21
TORSDOF 5
ENDMDL
MODEL 2
REMARK VINA RESULT:     -11.5      4.985     11.369
REMARK  Name = 445481
REMARK  5 active torsions:
REMARK  status: ('A' for Active; 'I' for Inactive)
REMARK    1  A    between atoms: N_2  and  C_21
REMARK    2  A    between atoms: C_3  and  N_7
REMARK    3  A    between atoms: N_7  and  S_9
REMARK    4  A    between atoms: S_9  and  C_14
REMARK    5  A    between atoms: C_21  and  C_24
REMARK                            x       y       z     vdW  Elec       q    Type
REMARK                         _______ _______ _______ _____ _____    ______ ____
ROOT
ATOM      1  O   UNL     1      35.094 -15.947 -20.860  0.00  0.00    -0.273 OA
ATOM      2  N   UNL     1      35.639 -17.470 -22.568  0.00  0.00    -0.273 N 
ATOM      3  C   UNL     1      34.056 -15.830 -23.055  0.00  0.00    +0.153 C 
ATOM      4  C   UNL     1      34.615 -16.402 -24.353  0.00  0.00    +0.048 C 
ATOM      5  C   UNL     1      35.224 -17.724 -23.928  0.00  0.00    +0.096 C 
ATOM      6  C   UNL     1      34.984 -16.378 -21.999  0.00  0.00    +0.242 C 
ENDROOT
BRANCH   3   7
ATOM      7  N   UNL     1      34.122 -14.365 -23.050  0.00  0.00    -0.171 NA
ATOM      8  H   UNL     1      34.611 -14.087 -22.199  0.00  0.00    +0.149 HD
BRANCH   7   9
ATOM      9  S   UNL     1      32.649 -13.489 -23.101  0.00  0.00    +0.066 S 
ATOM     10  O   UNL     1      31.985 -13.598 -21.816  0.00  0.00    -0.152 OA
ATOM     11  O   UNL     1      31.955 -13.798 -24.336  0.00  0.00    -0.152 OA
BRANCH   9  14
ATOM     12  S   UNL     1      32.055 -10.717 -22.406  0.00  0.00    -0.066 S 
ATOM     13  N   UNL     1      34.820  -8.806 -24.365  0.00  0.00    -0.243 NA
ATOM     14  C   UNL     1      33.072 -11.756 -23.276  0.00  0.00    +0.153 C 
ATOM     15  C   UNL     1      34.047 -11.128 -23.971  0.00  0.00    +0.046 C 
ATOM     16  C   UNL     1      33.979  -9.712 -23.797  0.00  0.00    +0.089 C 
ATOM     17  C   UNL     1      32.926  -9.342 -22.958  0.00  0.00    +0.048 C 
ATOM     18  C   UNL     1      32.702  -7.988 -22.669  0.00  0.00    +0.010 C 
ATOM     19  C   UNL     1      33.558  -7.058 -23.247  0.00  0.00    +0.021 C 
ATOM     20  C   UNL     1      34.574  -7.514 -24.066  0.00  0.00    +0.099 C 
ENDBRANCH   9  14
ENDBRANCH   7   9
ENDBRANCH   3   7
BRANCH   2  21
ATOM     21  C   UNL     1      36.545 -18.359 -21.874  0.00  0.00    +0.135 C 
BRANCH  21  24
ATOM     22  N   UNL     1      36.427 -20.181 -20.196  0.00  0.00    -0.313 N 
ATOM     23  N   UNL     1      34.601 -22.665 -18.166  0.00  0.00    -0.241 NA
ATOM     24  C   UNL     1      35.778 -19.363 -21.058  0.00  0.00    +0.046 C 
ATOM     25  C   UNL     1      34.445 -19.621 -21.026  0.00  0.00    +0.013 C 
ATOM     26  C   UNL     1      34.252 -20.668 -20.081  0.00  0.00    +0.017 C 
ATOM     27  C   UNL     1      35.511 -20.999 -19.577  0.00  0.00    +0.068 C 
ATOM     28  C   UNL     1      33.133 -21.365 -19.605  0.00  0.00    +0.022 C 
ATOM     29  C   UNL     1      35.684 -21.994 -18.623  0.00  0.00    +0.113 C 
ATOM     30  C   UNL     1      33.381 -22.346 -18.654  0.00  0.00    +0.099 C 
ATOM     31  H   UNL     1      37.399 -20.190 -20.038  0.00  0.00    +0.152 HD
ENDBRANCH  21  24
ENDBRANCH   2  21
TORSDOF 5
ENDMDL
MODEL 3
REMARK VINA RESULT:     -11.5      0.995      1.198
REMARK  Name = 445481
REMARK  5 active torsions:
REMARK  status: ('A' for Active; 'I' for Inactive)
REMARK    1  A    between atoms: N_2  and  C_21
REMARK    2  A    between atoms: C_3  and  N_7
REMARK    3  A    between atoms: N_7  and  S_9
REMARK    4  A    between atoms: S_9  and  C_14
REMARK    5  A    between atoms: C_21  and  C_24
REMARK                            x       y       z     vdW  Elec       q    Type
REMARK                         _______ _______ _______ _____ _____    ______ ____
ROOT
ATOM      1  O   UNL     1      36.819 -20.353 -20.234  0.00  0.00    -0.273 OA
ATOM      2  N   UNL     1      35.028 -19.210 -21.245  0.00  0.00    -0.273 N 
ATOM      3  C   UNL     1      34.544 -21.205 -20.142  0.00  0.00    +0.153 C 
ATOM      4  C   UNL     1      33.265 -20.393 -20.315  0.00  0.00    +0.048 C 
ATOM      5  C   UNL     1      33.610 -19.415 -21.421  0.00  0.00    +0.096 C 
ATOM      6  C   UNL     1      35.635 -20.230 -20.511  0.00  0.00    +0.242 C 
ENDROOT
BRANCH   3   7
ATOM      7  N   UNL     1      34.718 -21.626 -18.748  0.00  0.00    -0.171 NA
ATOM      8  H   UNL     1      35.667 -21.992 -18.658  0.00  0.00    +0.149 HD
BRANCH   7   9
ATOM      9  S   UNL     1      33.654 -22.817 -18.125  0.00  0.00    +0.066 S 
ATOM     10  O   UNL     1      33.829 -24.050 -18.868  0.00  0.00    -0.152 OA
ATOM     11  O   UNL     1      32.341 -22.230 -17.939  0.00  0.00    -0.152 OA
BRANCH   9  14
ATOM     12  S   UNL     1      35.818 -22.807 -16.167  0.00  0.00    -0.066 S 
ATOM     13  N   UNL     1      34.053 -24.294 -13.035  0.00  0.00    -0.243 NA
ATOM     14  C   UNL     1      34.192 -23.184 -16.455  0.00  0.00    +0.153 C 
ATOM     15  C   UNL     1      33.544 -23.704 -15.388  0.00  0.00    +0.046 C 
ATOM     16  C   UNL     1      34.408 -23.810 -14.256  0.00  0.00    +0.089 C 
ATOM     17  C   UNL     1      35.696 -23.351 -14.541  0.00  0.00    +0.048 C 
ATOM     18  C   UNL     1      36.685 -23.377 -13.548  0.00  0.00    +0.010 C 
ATOM     19  C   UNL     1      36.329 -23.870 -12.299  0.00  0.00    +0.021 C 
ATOM     20  C   UNL     1      35.030 -24.304 -12.105  0.00  0.00    +0.099 C 
ENDBRANCH   9  14
ENDBRANCH   7   9
ENDBRANCH   3   7
BRANCH   2  21
ATOM     21  C   UNL     1      35.721 -18.116 -21.890  0.00  0.00    +0.135 C 
BRANCH  21  24
ATOM     22  N   UNL     1      34.491 -16.314 -23.070  0.00  0.00    -0.313 N 
ATOM     23  N   UNL     1      32.390 -13.281 -23.152  0.00  0.00    -0.241 NA
ATOM     24  C   UNL     1      34.864 -16.880 -21.897  0.00  0.00    +0.046 C 
ATOM     25  C   UNL     1      34.356 -16.168 -20.858  0.00  0.00    +0.013 C 
ATOM     26  C   UNL     1      33.617 -15.090 -21.421  0.00  0.00    +0.017 C 
ATOM     27  C   UNL     1      33.719 -15.206 -22.808  0.00  0.00    +0.068 C 
ATOM     28  C   UNL     1      32.873 -14.028 -20.888  0.00  0.00    +0.022 C 
ATOM     29  C   UNL     1      33.108 -14.305 -23.670  0.00  0.00    +0.113 C 
ATOM     30  C   UNL     1      32.291 -13.166 -21.809  0.00  0.00    +0.099 C 
ATOM     31  H   UNL     1      34.734 -16.642 -23.965  0.00  0.00    +0.152 HD
ENDBRANCH  21  24
ENDBRANCH   2  21
TORSDOF 5
ENDMDL
MODEL 4
REMARK VINA RESULT:     -11.2      2.622     10.558
REMARK  Name = 445481
REMARK  5 active torsions:
REMARK  status: ('A' for Active; 'I' for Inactive)
REMARK    1  A    between atoms: N_2  and  C_21
REMARK    2  A    between atoms: C_3  and  N_7
REMARK    3  A    between atoms: N_7  and  S_9
REMARK    4  A    between atoms: S_9  and  C_14
REMARK    5  A    between atoms: C_21  and  C_24
REMARK                            x       y       z     vdW  Elec       q    Type
REMARK                         _______ _______ _______ _____ _____    ______ ____
ROOT
ATOM      1  O   UNL     1      36.138 -21.285 -20.086  0.00  0.00    -0.273 OA
ATOM      2  N   UNL     1      33.964 -21.888 -19.418  0.00  0.00    -0.273 N 
ATOM      3  C   UNL     1      34.245 -19.794 -20.401  0.00  0.00    +0.153 C 
ATOM      4  C   UNL     1      32.775 -20.195 -20.466  0.00  0.00    +0.048 C 
ATOM      5  C   UNL     1      32.655 -21.279 -19.412  0.00  0.00    +0.096 C 
ATOM      6  C   UNL     1      34.941 -21.063 -19.977  0.00  0.00    +0.242 C 
ENDROOT
BRANCH   3   7
ATOM      7  N   UNL     1      34.740 -19.382 -21.719  0.00  0.00    -0.171 NA
ATOM      8  H   UNL     1      35.310 -20.148 -22.081  0.00  0.00    +0.149 HD
BRANCH   7   9
ATOM      9  S   UNL     1      35.684 -17.954 -21.819  0.00  0.00    +0.066 S 
ATOM     10  O   UNL     1      37.000 -18.286 -22.329  0.00  0.00    -0.152 OA
ATOM     11  O   UNL     1      35.520 -17.191 -20.597  0.00  0.00    -0.152 OA
BRANCH   9  14
ATOM     12  S   UNL     1      34.495 -15.378 -22.505  0.00  0.00    -0.066 S 
ATOM     13  N   UNL     1      33.648 -15.880 -26.268  0.00  0.00    -0.243 NA
ATOM     14  C   UNL     1      34.934 -16.913 -23.071  0.00  0.00    +0.153 C 
ATOM     15  C   UNL     1      34.655 -17.126 -24.377  0.00  0.00    +0.046 C 
ATOM     16  C   UNL     1      34.046 -15.979 -24.971  0.00  0.00    +0.089 C 
ATOM     17  C   UNL     1      33.895 -14.937 -24.054  0.00  0.00    +0.048 C 
ATOM     18  C   UNL     1      33.314 -13.726 -24.458  0.00  0.00    +0.010 C 
ATOM     19  C   UNL     1      32.906 -13.619 -25.781  0.00  0.00    +0.021 C 
ATOM     20  C   UNL     1      33.094 -14.702 -26.620  0.00  0.00    +0.099 C 
ENDBRANCH   9  14
ENDBRANCH   7   9
ENDBRANCH   3   7
BRANCH   2  21
ATOM     21  C   UNL     1      34.208 -23.165 -18.785  0.00  0.00    +0.135 C 
BRANCH  21  24
ATOM     22  N   UNL     1      34.186 -23.569 -16.338  0.00  0.00    -0.313 N 
ATOM     23  N   UNL     1      32.507 -23.772 -13.057  0.00  0.00    -0.241 NA
ATOM     24  C   UNL     1      33.501 -23.241 -17.460  0.00  0.00    +0.046 C 
ATOM     25  C   UNL     1      32.195 -23.024 -17.157  0.00  0.00    +0.013 C 
ATOM     26  C   UNL     1      32.058 -23.230 -15.756  0.00  0.00    +0.017 C 
ATOM     27  C   UNL     1      33.321 -23.570 -15.268  0.00  0.00    +0.068 C 
ATOM     28  C   UNL     1      30.987 -23.161 -14.855  0.00  0.00    +0.022 C 
ATOM     29  C   UNL     1      33.544 -23.840 -13.924  0.00  0.00    +0.113 C 
ATOM     30  C   UNL     1      31.283 -23.444 -13.528  0.00  0.00    +0.099 C 
ATOM     31  H   UNL     1      35.148 -23.775 -16.295  0.00  0.00    +0.152 HD
ENDBRANCH  21  24
ENDBRANCH   2  21
TORSDOF 5
ENDMDL
MODEL 5
REMARK VINA RESULT:     -10.9      2.087      2.556
REMARK  Name = 445481
REMARK  5 active torsions:
REMARK  status: ('A' for Active; 'I' for Inactive)
REMARK    1  A    between atoms: N_2  and  C_21
REMARK    2  A    between atoms: C_3  and  N_7
REMARK    3  A    between atoms: N_7  and  S_9
REMARK    4  A    between atoms: S_9  and  C_14
REMARK    5  A    between atoms: C_21  and  C_24
REMARK                            x       y       z     vdW  Elec       q    Type
REMARK                         _______ _______ _______ _____ _____    ______ ____
ROOT
ATOM      1  O   UNL     1      36.427 -19.841 -19.903  0.00  0.00    -0.273 OA
ATOM      2  N   UNL     1      34.968 -18.880 -21.479  0.00  0.00    -0.273 N 
ATOM      3  C   UNL     1      34.266 -20.830 -20.412  0.00  0.00    +0.153 C 
ATOM      4  C   UNL     1      33.061 -20.115 -21.014  0.00  0.00    +0.048 C 
ATOM      5  C   UNL     1      33.675 -19.187 -22.044  0.00  0.00    +0.096 C 
ATOM      6  C   UNL     1      35.374 -19.811 -20.522  0.00  0.00    +0.242 C 
ENDROOT
BRANCH   3   7
ATOM      7  N   UNL     1      34.039 -21.153 -19.000  0.00  0.00    -0.171 NA
ATOM      8  H   UNL     1      34.571 -20.481 -18.446  0.00  0.00    +0.149 HD
BRANCH   7   9
ATOM      9  S   UNL     1      34.468 -22.719 -18.449  0.00  0.00    +0.066 S 
ATOM     10  O   UNL     1      35.762 -22.658 -17.800  0.00  0.00    -0.152 OA
ATOM     11  O   UNL     1      34.195 -23.682 -19.498  0.00  0.00    -0.152 OA
BRANCH   9  14
ATOM     12  S   UNL     1      34.043 -23.738 -15.747  0.00  0.00    -0.066 S 
ATOM     13  N   UNL     1      30.162 -23.662 -15.479  0.00  0.00    -0.243 NA
ATOM     14  C   UNL     1      33.305 -23.161 -17.159  0.00  0.00    +0.153 C 
ATOM     15  C   UNL     1      31.954 -23.119 -17.103  0.00  0.00    +0.046 C 
ATOM     16  C   UNL     1      31.472 -23.582 -15.842  0.00  0.00    +0.089 C 
ATOM     17  C   UNL     1      32.514 -23.958 -14.993  0.00  0.00    +0.048 C 
ATOM     18  C   UNL     1      32.232 -24.439 -13.706  0.00  0.00    +0.010 C 
ATOM     19  C   UNL     1      30.897 -24.522 -13.330  0.00  0.00    +0.021 C 
ATOM     20  C   UNL     1      29.929 -24.129 -14.235  0.00  0.00    +0.099 C 
ENDBRANCH   9  14
ENDBRANCH   7   9
ENDBRANCH   3   7
BRANCH   2  21
ATOM     21  C   UNL     1      35.772 -17.786 -21.976  0.00  0.00    +0.135 C 
BRANCH  21  24
ATOM     22  N   UNL     1      34.964 -15.808 -23.236  0.00  0.00    -0.313 N 
ATOM     23  N   UNL     1      32.959 -12.728 -23.582  0.00  0.00    -0.241 NA
ATOM     24  C   UNL     1      34.946 -16.534 -22.092  0.00  0.00    +0.046 C 
ATOM     25  C   UNL     1      34.119 -15.951 -21.187  0.00  0.00    +0.013 C 
ATOM     26  C   UNL     1      33.586 -14.786 -21.808  0.00  0.00    +0.017 C 
ATOM     27  C   UNL     1      34.133 -14.721 -23.090  0.00  0.00    +0.068 C 
ATOM     28  C   UNL     1      32.695 -13.782 -21.406  0.00  0.00    +0.022 C 
ATOM     29  C   UNL     1      33.821 -13.696 -23.974  0.00  0.00    +0.113 C 
ATOM     30  C   UNL     1      32.430 -12.789 -22.340  0.00  0.00    +0.099 C 
ATOM     31  H   UNL     1      35.488 -16.022 -24.041  0.00  0.00    +0.152 HD
ENDBRANCH  21  24
ENDBRANCH   2  21
TORSDOF 5
ENDMDL
MODEL 6
REMARK VINA RESULT:     -10.7      2.417     10.421
REMARK  Name = 445481
REMARK  5 active torsions:
REMARK  status: ('A' for Active; 'I' for Inactive)
REMARK    1  A    between atoms: N_2  and  C_21
REMARK    2  A    between atoms: C_3  and  N_7
REMARK    3  A    between atoms: N_7  and  S_9
REMARK    4  A    between atoms: S_9  and  C_14
REMARK    5  A    between atoms: C_21  and  C_24
REMARK                            x       y       z     vdW  Elec       q    Type
REMARK                         _______ _______ _______ _____ _____    ______ ____
ROOT
ATOM      1  O   UNL     1      32.649 -20.862 -20.209  0.00  0.00    -0.273 OA
ATOM      2  N   UNL     1      34.197 -22.029 -18.877  0.00  0.00    -0.273 N 
ATOM      3  C   UNL     1      35.046 -20.612 -20.521  0.00  0.00    +0.153 C 
ATOM      4  C   UNL     1      36.130 -20.903 -19.488  0.00  0.00    +0.048 C 
ATOM      5  C   UNL     1      35.633 -22.156 -18.794  0.00  0.00    +0.096 C 
ATOM      6  C   UNL     1      33.790 -21.145 -19.876  0.00  0.00    +0.242 C 
ENDROOT
BRANCH   3   7
ATOM      7  N   UNL     1      34.905 -19.169 -20.746  0.00  0.00    -0.171 NA
ATOM      8  H   UNL     1      33.912 -18.945 -20.662  0.00  0.00    +0.149 HD
BRANCH   7   9
ATOM      9  S   UNL     1      35.446 -18.528 -22.242  0.00  0.00    +0.066 S 
ATOM     10  O   UNL     1      34.908 -19.326 -23.326  0.00  0.00    -0.152 OA
ATOM     11  O   UNL     1      36.864 -18.241 -22.150  0.00  0.00    -0.152 OA
BRANCH   9  14
ATOM     12  S   UNL     1      33.640 -16.505 -21.164  0.00  0.00    -0.066 S 
ATOM     13  N   UNL     1      33.918 -13.695 -23.839  0.00  0.00    -0.243 NA
ATOM     14  C   UNL     1      34.698 -16.909 -22.422  0.00  0.00    +0.153 C 
ATOM     15  C   UNL     1      34.822 -15.956 -23.374  0.00  0.00    +0.046 C 
ATOM     16  C   UNL     1      34.012 -14.818 -23.076  0.00  0.00    +0.089 C 
ATOM     17  C   UNL     1      33.303 -14.981 -21.885  0.00  0.00    +0.048 C 
ATOM     18  C   UNL     1      32.452 -13.964 -21.429  0.00  0.00    +0.010 C 
ATOM     19  C   UNL     1      32.353 -12.815 -22.204  0.00  0.00    +0.021 C 
ATOM     20  C   UNL     1      33.092 -12.738 -23.371  0.00  0.00    +0.099 C 
ENDBRANCH   9  14
ENDBRANCH   7   9
ENDBRANCH   3   7
BRANCH   2  21
ATOM     21  C   UNL     1      33.316 -22.849 -18.075  0.00  0.00    +0.135 C 
BRANCH  21  24
ATOM     22  N   UNL     1      33.144 -23.572 -15.708  0.00  0.00    -0.313 N 
ATOM     23  N   UNL     1      34.547 -24.180 -12.349  0.00  0.00    -0.241 NA
ATOM     24  C   UNL     1      33.912 -23.089 -16.715  0.00  0.00    +0.046 C 
ATOM     25  C   UNL     1      35.181 -22.894 -16.275  0.00  0.00    +0.013 C 
ATOM     26  C   UNL     1      35.206 -23.280 -14.905  0.00  0.00    +0.017 C 
ATOM     27  C   UNL     1      33.916 -23.701 -14.577  0.00  0.00    +0.068 C 
ATOM     28  C   UNL     1      36.196 -23.314 -13.913  0.00  0.00    +0.022 C 
ATOM     29  C   UNL     1      33.588 -24.149 -13.304  0.00  0.00    +0.113 C 
ATOM     30  C   UNL     1      35.796 -23.772 -12.665  0.00  0.00    +0.099 C 
ATOM     31  H   UNL     1      32.187 -23.793 -15.775  0.00  0.00    +0.152 HD
ENDBRANCH  21  24
ENDBRANCH   2  21
TORSDOF 5
ENDMDL
MODEL 7
REMARK VINA RESULT:     -10.5      4.747      7.544
REMARK  Name = 445481
REMARK  5 active torsions:
REMARK  status: ('A' for Active; 'I' for Inactive)
REMARK    1  A    between atoms: N_2  and  C_21
REMARK    2  A    between atoms: C_3  and  N_7
REMARK    3  A    between atoms: N_7  and  S_9
REMARK    4  A    between atoms: S_9  and  C_14
REMARK    5  A    between atoms: C_21  and  C_24
REMARK                            x       y       z     vdW  Elec       q    Type
REMARK                         _______ _______ _______ _____ _____    ______ ____
ROOT
ATOM      1  O   UNL     1      32.501 -14.621 -20.228  0.00  0.00    -0.273 OA
ATOM      2  N   UNL     1      32.202 -12.793 -21.679  0.00  0.00    -0.273 N 
ATOM      3  C   UNL     1      33.559 -14.540 -22.415  0.00  0.00    +0.153 C 
ATOM      4  C   UNL     1      33.109 -13.705 -23.609  0.00  0.00    +0.048 C 
ATOM      5  C   UNL     1      32.675 -12.393 -22.983  0.00  0.00    +0.096 C 
ATOM      6  C   UNL     1      32.692 -14.039 -21.286  0.00  0.00    +0.242 C 
ENDROOT
BRANCH   3   7
ATOM      7  N   UNL     1      33.296 -15.965 -22.637  0.00  0.00    -0.171 NA
ATOM      8  H   UNL     1      32.831 -16.321 -21.801  0.00  0.00    +0.149 HD
BRANCH   7   9
ATOM      9  S   UNL     1      34.630 -16.994 -22.955  0.00  0.00    +0.066 S 
ATOM     10  O   UNL     1      35.853 -16.325 -22.556  0.00  0.00    -0.152 OA
ATOM     11  O   UNL     1      34.482 -17.569 -24.278  0.00  0.00    -0.152 OA
BRANCH   9  14
ATOM     12  S   UNL     1      35.964 -18.984 -21.288  0.00  0.00    -0.066 S 
ATOM     13  N   UNL     1      32.944 -21.030 -19.936  0.00  0.00    -0.243 NA
ATOM     14  C   UNL     1      34.479 -18.406 -21.862  0.00  0.00    +0.153 C 
ATOM     15  C   UNL     1      33.403 -19.093 -21.412  0.00  0.00    +0.046 C 
ATOM     16  C   UNL     1      33.793 -20.159 -20.547  0.00  0.00    +0.089 C 
ATOM     17  C   UNL     1      35.178 -20.219 -20.387  0.00  0.00    +0.048 C 
ATOM     18  C   UNL     1      35.748 -21.206 -19.569  0.00  0.00    +0.010 C 
ATOM     19  C   UNL     1      34.886 -22.097 -18.942  0.00  0.00    +0.021 C 
ATOM     20  C   UNL     1      33.527 -21.964 -19.157  0.00  0.00    +0.099 C 
ENDBRANCH   9  14
ENDBRANCH   7   9
ENDBRANCH   3   7
BRANCH   2  21
ATOM     21  C   UNL     1      31.410 -11.906 -20.856  0.00  0.00    +0.135 C 
BRANCH  21  24
ATOM     22  N   UNL     1      31.149 -10.093 -22.528  0.00  0.00    -0.313 N 
ATOM     23  N   UNL     1      31.534  -6.609 -23.682  0.00  0.00    -0.241 NA
ATOM     24  C   UNL     1      31.579 -10.480 -21.303  0.00  0.00    +0.046 C 
ATOM     25  C   UNL     1      32.129  -9.424 -20.651  0.00  0.00    +0.013 C 
ATOM     26  C   UNL     1      32.035  -8.306 -21.527  0.00  0.00    +0.017 C 
ATOM     27  C   UNL     1      31.416  -8.754 -22.695  0.00  0.00    +0.068 C 
ATOM     28  C   UNL     1      32.414  -6.959 -21.442  0.00  0.00    +0.022 C 
ATOM     29  C   UNL     1      31.168  -7.909 -23.768  0.00  0.00    +0.113 C 
ATOM     30  C   UNL     1      32.134  -6.173 -22.552  0.00  0.00    +0.099 C 
ATOM     31  H   UNL     1      30.715 -10.676 -23.192  0.00  0.00    +0.152 HD
ENDBRANCH  21  24
ENDBRANCH   2  21
TORSDOF 5
ENDMDL
MODEL 8
REMARK VINA RESULT:     -10.5      2.808     10.249
REMARK  Name = 445481
REMARK  5 active torsions:
REMARK  status: ('A' for Active; 'I' for Inactive)
REMARK    1  A    between atoms: N_2  and  C_21
REMARK    2  A    between atoms: C_3  and  N_7
REMARK    3  A    between atoms: N_7  and  S_9
REMARK    4  A    between atoms: S_9  and  C_14
REMARK    5  A    between atoms: C_21  and  C_24
REMARK                            x       y       z     vdW  Elec       q    Type
REMARK                         _______ _______ _______ _____ _____    ______ ____
ROOT
ATOM      1  O   UNL     1      32.356 -20.501 -19.664  0.00  0.00    -0.273 OA
ATOM      2  N   UNL     1      34.015 -22.042 -19.027  0.00  0.00    -0.273 N 
ATOM      3  C   UNL     1      34.547 -20.528 -20.717  0.00  0.00    +0.153 C 
ATOM      4  C   UNL     1      35.829 -21.105 -20.127  0.00  0.00    +0.048 C 
ATOM      5  C   UNL     1      35.363 -22.369 -19.430  0.00  0.00    +0.096 C 
ATOM      6  C   UNL     1      33.479 -20.977 -19.750  0.00  0.00    +0.242 C 
ENDROOT
BRANCH   3   7
ATOM      7  N   UNL     1      34.592 -19.063 -20.748  0.00  0.00    -0.171 NA
ATOM      8  H   UNL     1      33.647 -18.726 -20.559  0.00  0.00    +0.149 HD
BRANCH   7   9
ATOM      9  S   UNL     1      35.124 -18.301 -22.189  0.00  0.00    +0.066 S 
ATOM     10  O   UNL     1      34.588 -19.015 -23.332  0.00  0.00    -0.152 OA
ATOM     11  O   UNL     1      36.540 -18.011 -22.079  0.00  0.00    -0.152 OA
BRANCH   9  14
ATOM     12  S   UNL     1      34.736 -15.797 -23.637  0.00  0.00    -0.066 S 
ATOM     13  N   UNL     1      32.401 -13.842 -21.216  0.00  0.00    -0.243 NA
ATOM     14  C   UNL     1      34.364 -16.679 -22.240  0.00  0.00    +0.153 C 
ATOM     15  C   UNL     1      33.553 -16.031 -21.372  0.00  0.00    +0.046 C 
ATOM     16  C   UNL     1      33.202 -14.735 -21.858  0.00  0.00    +0.089 C 
ATOM     17  C   UNL     1      33.784 -14.470 -23.099  0.00  0.00    +0.048 C 
ATOM     18  C   UNL     1      33.552 -13.242 -23.735  0.00  0.00    +0.010 C 
ATOM     19  C   UNL     1      32.735 -12.326 -23.084  0.00  0.00    +0.021 C 
ATOM     20  C   UNL     1      32.200 -12.672 -21.857  0.00  0.00    +0.099 C 
ENDBRANCH   9  14
ENDBRANCH   7   9
ENDBRANCH   3   7
BRANCH   2  21
ATOM     21  C   UNL     1      33.298 -22.845 -18.061  0.00  0.00    +0.135 C 
BRANCH  21  24
ATOM     22  N   UNL     1      35.435 -22.703 -16.809  0.00  0.00    -0.313 N 
ATOM     23  N   UNL     1      37.506 -23.141 -13.786  0.00  0.00    -0.241 NA
ATOM     24  C   UNL     1      34.120 -23.033 -16.816  0.00  0.00    +0.046 C 
ATOM     25  C   UNL     1      33.758 -23.512 -15.598  0.00  0.00    +0.013 C 
ATOM     26  C   UNL     1      34.922 -23.478 -14.780  0.00  0.00    +0.017 C 
ATOM     27  C   UNL     1      35.957 -22.967 -15.564  0.00  0.00    +0.068 C 
ATOM     28  C   UNL     1      35.198 -23.831 -13.452  0.00  0.00    +0.022 C 
ATOM     29  C   UNL     1      37.244 -22.799 -15.069  0.00  0.00    +0.113 C 
ATOM     30  C   UNL     1      36.505 -23.637 -13.025  0.00  0.00    +0.099 C 
ATOM     31  H   UNL     1      35.935 -22.335 -17.573  0.00  0.00    +0.152 HD
ENDBRANCH  21  24
ENDBRANCH   2  21
TORSDOF 5
ENDMDL
MODEL 9
REMARK VINA RESULT:     -10.5      3.809      6.383
REMARK  Name = 445481
REMARK  5 active torsions:
REMARK  status: ('A' for Active; 'I' for Inactive)
REMARK    1  A    between atoms: N_2  and  C_21
REMARK    2  A    between atoms: C_3  and  N_7
REMARK    3  A    between atoms: N_7  and  S_9
REMARK    4  A    between atoms: S_9  and  C_14
REMARK    5  A    between atoms: C_21  and  C_24
REMARK                            x       y       z     vdW  Elec       q    Type
REMARK                         _______ _______ _______ _____ _____    ______ ____
ROOT
ATOM      1  O   UNL     1      34.868 -15.711 -24.598  0.00  0.00    -0.273 OA
ATOM      2  N   UNL     1      33.516 -14.011 -23.693  0.00  0.00    -0.273 N 
ATOM      3  C   UNL     1      33.748 -15.973 -22.457  0.00  0.00    +0.153 C 
ATOM      4  C   UNL     1      33.256 -14.852 -21.548  0.00  0.00    +0.048 C 
ATOM      5  C   UNL     1      32.700 -13.826 -22.516  0.00  0.00    +0.096 C 
ATOM      6  C   UNL     1      34.150 -15.254 -23.721  0.00  0.00    +0.242 C 
ENDROOT
BRANCH   3   7
ATOM      7  N   UNL     1      34.920 -16.643 -21.883  0.00  0.00    -0.171 NA
ATOM      8  H   UNL     1      35.718 -16.020 -22.011  0.00  0.00    +0.149 HD
BRANCH   7   9
ATOM      9  S   UNL     1      35.365 -18.174 -22.512  0.00  0.00    +0.066 S 
ATOM     10  O   UNL     1      36.810 -18.259 -22.588  0.00  0.00    -0.152 OA
ATOM     11  O   UNL     1      34.531 -18.476 -23.661  0.00  0.00    -0.152 OA
BRANCH   9  14
ATOM     12  S   UNL     1      36.180 -20.101 -20.477  0.00  0.00    -0.066 S 
ATOM     13  N   UNL     1      32.750 -21.528 -19.325  0.00  0.00    -0.243 NA
ATOM     14  C   UNL     1      34.876 -19.403 -21.302  0.00  0.00    +0.153 C 
ATOM     15  C   UNL     1      33.665 -19.875 -20.929  0.00  0.00    +0.046 C 
ATOM     16  C   UNL     1      33.786 -20.866 -19.908  0.00  0.00    +0.089 C 
ATOM     17  C   UNL     1      35.118 -21.093 -19.560  0.00  0.00    +0.048 C 
ATOM     18  C   UNL     1      35.434 -22.036 -18.571  0.00  0.00    +0.010 C 
ATOM     19  C   UNL     1      34.380 -22.715 -17.971  0.00  0.00    +0.021 C 
ATOM     20  C   UNL     1      33.091 -22.427 -18.379  0.00  0.00    +0.099 C 
ENDBRANCH   9  14
ENDBRANCH   7   9
ENDBRANCH   3   7
BRANCH   2  21
ATOM     21  C   UNL     1      33.539 -13.035 -24.760  0.00  0.00    +0.135 C 
BRANCH  21  24
ATOM     22  N   UNL     1      32.641 -11.252 -23.288  0.00  0.00    -0.313 N 
ATOM     23  N   UNL     1      32.656  -7.843 -21.873  0.00  0.00    -0.241 NA
ATOM     24  C   UNL     1      33.567 -11.640 -24.199  0.00  0.00    +0.046 C 
ATOM     25  C   UNL     1      34.417 -10.614 -24.459  0.00  0.00    +0.013 C 
ATOM     26  C   UNL     1      33.995  -9.516 -23.658  0.00  0.00    +0.017 C 
ATOM     27  C   UNL     1      32.881  -9.944 -22.935  0.00  0.00    +0.068 C 
ATOM     28  C   UNL     1      34.449  -8.203 -23.477  0.00  0.00    +0.022 C 
ATOM     29  C   UNL     1      32.214  -9.111 -22.046  0.00  0.00    +0.113 C 
ATOM     30  C   UNL     1      33.735  -7.426 -22.574  0.00  0.00    +0.099 C 
ATOM     31  H   UNL     1      31.915 -11.815 -22.936  0.00  0.00    +0.152 HD
ENDBRANCH  21  24
ENDBRANCH   2  21
TORSDOF 5
ENDMDL
