MODEL 1
REMARK VINA RESULT:     -12.6      0.000      0.000
REMARK  Name = 54755438
REMARK  5 active torsions:
REMARK  status: ('A' for Active; 'I' for Inactive)
REMARK    1  A    between atoms: N_2  and  C_13
REMARK    2  A    between atoms: N_3  and  C_21
REMARK    3  A    between atoms: C_17  and  C_18
REMARK    4  A    between atoms: C_26  and  O_27
REMARK    5  A    between atoms: O_27  and  C_28
REMARK                            x       y       z     vdW  Elec       q    Type
REMARK                         _______ _______ _______ _____ _____    ______ ____
ROOT
ATOM      1  O   UNL     1      34.241 -15.971 -19.876  0.00  0.00    -0.252 OA
ATOM      2  N   UNL     1      34.003 -15.215 -22.097  0.00  0.00    -0.230 N 
ATOM      3  N   UNL     1      34.526 -17.406 -21.779  0.00  0.00    -0.231 N 
ATOM      4  N   UNL     1      33.927 -15.235 -24.551  0.00  0.00    -0.231 NA
ATOM      5  N   UNL     1      34.304 -17.421 -25.526  0.00  0.00    -0.232 NA
ATOM      6  C   UNL     1      34.116 -15.818 -23.359  0.00  0.00    +0.138 C 
ATOM      7  C   UNL     1      34.244 -16.180 -21.082  0.00  0.00    +0.316 C 
ATOM      8  C   UNL     1      34.423 -17.155 -23.165  0.00  0.00    +0.188 C 
ATOM      9  C   UNL     1      34.480 -17.938 -24.288  0.00  0.00    +0.125 C 
ATOM     10  C   UNL     1      34.044 -16.093 -25.584  0.00  0.00    +0.253 C 
ATOM     11  N   UNL     1      34.739 -19.319 -24.168  0.00  0.00    -0.345 N 
ATOM     12  H   UNL     1      34.780 -19.884 -24.974  0.00  0.00    +0.143 HD
ATOM     13  H   UNL     1      34.879 -19.719 -23.279  0.00  0.00    +0.143 HD
ENDROOT
BRANCH   2  16
ATOM     14  O   UNL     1      32.255  -9.798 -23.749  0.00  0.00    -0.260 OA
ATOM     15  N   UNL     1      33.049 -11.861 -23.054  0.00  0.00    -0.268 N 
ATOM     16  C   UNL     1      33.683 -13.822 -21.910  0.00  0.00    +0.104 C 
ATOM     17  C   UNL     1      32.193 -13.571 -21.685  0.00  0.00    +0.044 C 
ATOM     18  C   UNL     1      33.993 -12.972 -23.138  0.00  0.00    +0.115 C 
ATOM     19  C   UNL     1      32.047 -12.096 -22.026  0.00  0.00    +0.096 C 
ATOM     20  C   UNL     1      33.062 -10.717 -23.833  0.00  0.00    +0.292 C 
BRANCH  20  21
ATOM     21  C   UNL     1      34.109 -10.606 -24.824  0.00  0.00    -0.007 C 
ATOM     22  C   UNL     1      34.977 -10.514 -25.647  0.00  0.00    -0.081 C 
ATOM     23  C   UNL     1      36.036 -10.402 -26.650  0.00  0.00    +0.090 C 
ENDBRANCH  20  21
ENDBRANCH   2  16
BRANCH   3  24
ATOM     24  C   UNL     1      34.851 -18.648 -21.183  0.00  0.00    +0.056 C 
ATOM     25  C   UNL     1      33.836 -19.535 -20.821  0.00  0.00    +0.018 C 
ATOM     26  C   UNL     1      36.185 -18.987 -20.957  0.00  0.00    +0.018 C 
ATOM     27  C   UNL     1      34.155 -20.758 -20.233  0.00  0.00    +0.039 C 
ATOM     28  C   UNL     1      36.503 -20.211 -20.369  0.00  0.00    +0.039 C 
ATOM     29  C   UNL     1      35.489 -21.096 -20.007  0.00  0.00    +0.145 C 
BRANCH  29  30
ATOM     30  O   UNL     1      35.800 -22.291 -19.433  0.00  0.00    -0.453 OA
BRANCH  30  31
ATOM     31  C   UNL     1      35.759 -22.372 -18.052  0.00  0.00    +0.145 C 
ATOM     32  C   UNL     1      34.630 -22.887 -17.416  0.00  0.00    +0.037 C 
ATOM     33  C   UNL     1      36.848 -21.940 -17.296  0.00  0.00    +0.037 C 
ATOM     34  C   UNL     1      34.589 -22.968 -16.024  0.00  0.00    +0.003 C 
ATOM     35  C   UNL     1      36.808 -22.022 -15.904  0.00  0.00    +0.003 C 
ATOM     36  C   UNL     1      35.678 -22.535 -15.268  0.00  0.00    +0.000 C 
ENDBRANCH  30  31
ENDBRANCH  29  30
ENDBRANCH   3  24
TORSDOF 5
ENDMDL
MODEL 2
REMARK VINA RESULT:     -12.6      0.101      1.175
REMARK  Name = 54755438
REMARK  5 active torsions:
REMARK  status: ('A' for Active; 'I' for Inactive)
REMARK    1  A    between atoms: N_2  and  C_13
REMARK    2  A    between atoms: N_3  and  C_21
REMARK    3  A    between atoms: C_17  and  C_18
REMARK    4  A    between atoms: C_26  and  O_27
REMARK    5  A    between atoms: O_27  and  C_28
REMARK                            x       y       z     vdW  Elec       q    Type
REMARK                         _______ _______ _______ _____ _____    ______ ____
ROOT
ATOM      1  O   UNL     1      34.107 -15.983 -19.897  0.00  0.00    -0.252 OA
ATOM      2  N   UNL     1      33.938 -15.200 -22.115  0.00  0.00    -0.230 N 
ATOM      3  N   UNL     1      34.433 -17.399 -21.807  0.00  0.00    -0.231 N 
ATOM      4  N   UNL     1      33.932 -15.192 -24.570  0.00  0.00    -0.231 NA
ATOM      5  N   UNL     1      34.317 -17.371 -25.558  0.00  0.00    -0.232 NA
ATOM      6  C   UNL     1      34.082 -15.790 -23.380  0.00  0.00    +0.138 C 
ATOM      7  C   UNL     1      34.142 -16.178 -21.105  0.00  0.00    +0.316 C 
ATOM      8  C   UNL     1      34.371 -17.132 -23.192  0.00  0.00    +0.188 C 
ATOM      9  C   UNL     1      34.454 -17.903 -24.322  0.00  0.00    +0.125 C 
ATOM     10  C   UNL     1      34.071 -16.040 -25.609  0.00  0.00    +0.253 C 
ATOM     11  N   UNL     1      34.697 -19.288 -24.210  0.00  0.00    -0.345 N 
ATOM     12  H   UNL     1      34.757 -19.844 -25.021  0.00  0.00    +0.143 HD
ATOM     13  H   UNL     1      34.808 -19.699 -23.323  0.00  0.00    +0.143 HD
ENDROOT
BRANCH   2  16
ATOM     14  O   UNL     1      32.233  -9.763 -23.746  0.00  0.00    -0.260 OA
ATOM     15  N   UNL     1      33.010 -11.834 -23.058  0.00  0.00    -0.268 N 
ATOM     16  C   UNL     1      33.625 -13.807 -21.922  0.00  0.00    +0.104 C 
ATOM     17  C   UNL     1      32.135 -13.548 -21.705  0.00  0.00    +0.044 C 
ATOM     18  C   UNL     1      33.949 -12.950 -23.142  0.00  0.00    +0.115 C 
ATOM     19  C   UNL     1      32.000 -12.070 -22.038  0.00  0.00    +0.096 C 
ATOM     20  C   UNL     1      33.035 -10.686 -23.829  0.00  0.00    +0.292 C 
BRANCH  20  21
ATOM     21  C   UNL     1      34.089 -10.575 -24.813  0.00  0.00    -0.007 C 
ATOM     22  C   UNL     1      34.964 -10.483 -25.629  0.00  0.00    -0.081 C 
ATOM     23  C   UNL     1      36.031 -10.371 -26.623  0.00  0.00    +0.090 C 
ENDBRANCH  20  21
ENDBRANCH   2  16
BRANCH   3  24
ATOM     24  C   UNL     1      34.730 -18.650 -21.216  0.00  0.00    +0.056 C 
ATOM     25  C   UNL     1      36.058 -19.038 -21.033  0.00  0.00    +0.018 C 
ATOM     26  C   UNL     1      33.696 -19.496 -20.814  0.00  0.00    +0.018 C 
ATOM     27  C   UNL     1      36.352 -20.270 -20.450  0.00  0.00    +0.039 C 
ATOM     28  C   UNL     1      33.990 -20.728 -20.232  0.00  0.00    +0.039 C 
ATOM     29  C   UNL     1      35.317 -21.116 -20.049  0.00  0.00    +0.145 C 
BRANCH  29  30
ATOM     30  O   UNL     1      35.604 -22.319 -19.480  0.00  0.00    -0.453 OA
BRANCH  30  31
ATOM     31  C   UNL     1      35.633 -22.387 -18.098  0.00  0.00    +0.145 C 
ATOM     32  C   UNL     1      36.753 -21.935 -17.400  0.00  0.00    +0.037 C 
ATOM     33  C   UNL     1      34.541 -22.907 -17.403  0.00  0.00    +0.037 C 
ATOM     34  C   UNL     1      36.782 -22.004 -16.007  0.00  0.00    +0.003 C 
ATOM     35  C   UNL     1      34.569 -22.975 -16.010  0.00  0.00    +0.003 C 
ATOM     36  C   UNL     1      35.690 -22.524 -15.312  0.00  0.00    +0.000 C 
ENDBRANCH  30  31
ENDBRANCH  29  30
ENDBRANCH   3  24
TORSDOF 5
ENDMDL
MODEL 3
REMARK VINA RESULT:     -11.0      2.130      9.831
REMARK  Name = 54755438
REMARK  5 active torsions:
REMARK  status: ('A' for Active; 'I' for Inactive)
REMARK    1  A    between atoms: N_2  and  C_13
REMARK    2  A    between atoms: N_3  and  C_21
REMARK    3  A    between atoms: C_17  and  C_18
REMARK    4  A    between atoms: C_26  and  O_27
REMARK    5  A    between atoms: O_27  and  C_28
REMARK                            x       y       z     vdW  Elec       q    Type
REMARK                         _______ _______ _______ _____ _____    ______ ____
ROOT
ATOM      1  O   UNL     1      34.828 -14.761 -20.533  0.00  0.00    -0.252 OA
ATOM      2  N   UNL     1      35.100 -16.523 -22.076  0.00  0.00    -0.230 N 
ATOM      3  N   UNL     1      33.907 -14.707 -22.749  0.00  0.00    -0.231 N 
ATOM      4  N   UNL     1      34.940 -17.825 -24.152  0.00  0.00    -0.231 NA
ATOM      5  N   UNL     1      33.767 -16.680 -25.938  0.00  0.00    -0.232 NA
ATOM      6  C   UNL     1      34.678 -16.750 -23.395  0.00  0.00    +0.138 C 
ATOM      7  C   UNL     1      34.645 -15.250 -21.640  0.00  0.00    +0.316 C 
ATOM      8  C   UNL     1      33.961 -15.638 -23.808  0.00  0.00    +0.188 C 
ATOM      9  C   UNL     1      33.543 -15.632 -25.113  0.00  0.00    +0.125 C 
ATOM     10  C   UNL     1      34.449 -17.722 -25.403  0.00  0.00    +0.253 C 
ATOM     11  N   UNL     1      32.850 -14.514 -25.622  0.00  0.00    -0.345 N 
ATOM     12  H   UNL     1      32.548 -14.507 -26.560  0.00  0.00    +0.143 HD
ATOM     13  H   UNL     1      32.667 -13.741 -25.041  0.00  0.00    +0.143 HD
ENDROOT
BRANCH   2  16
ATOM     14  O   UNL     1      36.685 -21.887 -20.115  0.00  0.00    -0.260 OA
ATOM     15  N   UNL     1      36.055 -19.751 -20.755  0.00  0.00    -0.268 N 
ATOM     16  C   UNL     1      35.883 -17.469 -21.322  0.00  0.00    +0.104 C 
ATOM     17  C   UNL     1      37.011 -18.104 -22.134  0.00  0.00    +0.044 C 
ATOM     18  C   UNL     1      35.072 -18.676 -20.859  0.00  0.00    +0.115 C 
ATOM     19  C   UNL     1      37.328 -19.362 -21.341  0.00  0.00    +0.096 C 
ATOM     20  C   UNL     1      35.846 -20.995 -20.187  0.00  0.00    +0.292 C 
BRANCH  20  21
ATOM     21  C   UNL     1      34.534 -21.261 -19.642  0.00  0.00    -0.007 C 
ATOM     22  C   UNL     1      33.444 -21.482 -19.189  0.00  0.00    -0.081 C 
ATOM     23  C   UNL     1      32.117 -21.750 -18.637  0.00  0.00    +0.090 C 
ENDBRANCH  20  21
ENDBRANCH   2  16
BRANCH   3  24
ATOM     24  C   UNL     1      33.243 -13.457 -22.776  0.00  0.00    +0.056 C 
ATOM     25  C   UNL     1      33.749 -12.414 -23.553  0.00  0.00    +0.018 C 
ATOM     26  C   UNL     1      32.082 -13.267 -22.026  0.00  0.00    +0.018 C 
ATOM     27  C   UNL     1      33.095 -11.183 -23.580  0.00  0.00    +0.039 C 
ATOM     28  C   UNL     1      31.428 -12.035 -22.053  0.00  0.00    +0.039 C 
ATOM     29  C   UNL     1      31.934 -10.994 -22.829  0.00  0.00    +0.145 C 
BRANCH  29  30
ATOM     30  O   UNL     1      31.296  -9.791 -22.856  0.00  0.00    -0.453 OA
BRANCH  30  31
ATOM     31  C   UNL     1      31.722  -8.816 -21.970  0.00  0.00    +0.145 C 
ATOM     32  C   UNL     1      32.005  -9.152 -20.646  0.00  0.00    +0.037 C 
ATOM     33  C   UNL     1      31.869  -7.499 -22.402  0.00  0.00    +0.037 C 
ATOM     34  C   UNL     1      32.433  -8.169 -19.754  0.00  0.00    +0.003 C 
ATOM     35  C   UNL     1      32.298  -6.516 -21.510  0.00  0.00    +0.003 C 
ATOM     36  C   UNL     1      32.580  -6.851 -20.186  0.00  0.00    +0.000 C 
ENDBRANCH  30  31
ENDBRANCH  29  30
ENDBRANCH   3  24
TORSDOF 5
ENDMDL
MODEL 4
REMARK VINA RESULT:     -10.8      3.767     11.932
REMARK  Name = 54755438
REMARK  5 active torsions:
REMARK  status: ('A' for Active; 'I' for Inactive)
REMARK    1  A    between atoms: N_2  and  C_13
REMARK    2  A    between atoms: N_3  and  C_21
REMARK    3  A    between atoms: C_17  and  C_18
REMARK    4  A    between atoms: C_26  and  O_27
REMARK    5  A    between atoms: O_27  and  C_28
REMARK                            x       y       z     vdW  Elec       q    Type
REMARK                         _______ _______ _______ _____ _____    ______ ____
ROOT
ATOM      1  O   UNL     1      33.765 -11.053 -25.606  0.00  0.00    -0.252 OA
ATOM      2  N   UNL     1      33.427 -12.853 -24.121  0.00  0.00    -0.230 N 
ATOM      3  N   UNL     1      32.842 -10.773 -23.408  0.00  0.00    -0.231 N 
ATOM      4  N   UNL     1      32.782 -14.098 -22.105  0.00  0.00    -0.231 NA
ATOM      5  N   UNL     1      31.776 -12.722 -20.383  0.00  0.00    -0.232 NA
ATOM      6  C   UNL     1      32.926 -12.971 -22.816  0.00  0.00    +0.138 C 
ATOM      7  C   UNL     1      33.382 -11.493 -24.530  0.00  0.00    +0.316 C 
ATOM      8  C   UNL     1      32.559 -11.705 -22.386  0.00  0.00    +0.188 C 
ATOM      9  C   UNL     1      31.953 -11.628 -21.159  0.00  0.00    +0.125 C 
ATOM     10  C   UNL     1      32.210 -13.896 -20.902  0.00  0.00    +0.253 C 
ATOM     11  N   UNL     1      31.507 -10.382 -20.674  0.00  0.00    -0.345 N 
ATOM     12  H   UNL     1      31.072 -10.324 -19.792  0.00  0.00    +0.143 HD
ATOM     13  H   UNL     1      31.630  -9.569 -21.215  0.00  0.00    +0.143 HD
ENDROOT
BRANCH   2  16
ATOM     14  O   UNL     1      34.128 -18.584 -25.461  0.00  0.00    -0.260 OA
ATOM     15  N   UNL     1      33.986 -16.330 -24.940  0.00  0.00    -0.268 N 
ATOM     16  C   UNL     1      33.900 -13.975 -24.892  0.00  0.00    +0.104 C 
ATOM     17  C   UNL     1      32.871 -14.494 -25.895  0.00  0.00    +0.044 C 
ATOM     18  C   UNL     1      34.194 -15.202 -24.036  0.00  0.00    +0.115 C 
ATOM     19  C   UNL     1      33.365 -15.903 -26.184  0.00  0.00    +0.096 C 
ATOM     20  C   UNL     1      34.316 -17.650 -24.688  0.00  0.00    +0.292 C 
BRANCH  20  21
ATOM     21  C   UNL     1      34.926 -17.946 -23.411  0.00  0.00    -0.007 C 
ATOM     22  C   UNL     1      35.432 -18.193 -22.352  0.00  0.00    -0.081 C 
ATOM     23  C   UNL     1      36.049 -18.493 -21.060  0.00  0.00    +0.090 C 
ENDBRANCH  20  21
ENDBRANCH   2  16
BRANCH   3  24
ATOM     24  C   UNL     1      32.631  -9.375 -23.338  0.00  0.00    +0.056 C 
ATOM     25  C   UNL     1      31.362  -8.848 -23.581  0.00  0.00    +0.018 C 
ATOM     26  C   UNL     1      33.690  -8.524 -23.026  0.00  0.00    +0.018 C 
ATOM     27  C   UNL     1      31.153  -7.471 -23.512  0.00  0.00    +0.039 C 
ATOM     28  C   UNL     1      33.481  -7.147 -22.957  0.00  0.00    +0.039 C 
ATOM     29  C   UNL     1      32.214  -6.620 -23.200  0.00  0.00    +0.145 C 
BRANCH  29  30
ATOM     30  O   UNL     1      32.009  -5.276 -23.133  0.00  0.00    -0.453 OA
BRANCH  30  31
ATOM     31  C   UNL     1      31.943  -4.574 -24.325  0.00  0.00    +0.145 C 
ATOM     32  C   UNL     1      32.686  -4.998 -25.427  0.00  0.00    +0.037 C 
ATOM     33  C   UNL     1      31.132  -3.444 -24.424  0.00  0.00    +0.037 C 
ATOM     34  C   UNL     1      32.620  -4.290 -26.627  0.00  0.00    +0.003 C 
ATOM     35  C   UNL     1      31.064  -2.737 -25.625  0.00  0.00    +0.003 C 
ATOM     36  C   UNL     1      31.809  -3.160 -26.726  0.00  0.00    +0.000 C 
ENDBRANCH  30  31
ENDBRANCH  29  30
ENDBRANCH   3  24
TORSDOF 5
ENDMDL
MODEL 5
REMARK VINA RESULT:     -10.1      2.016      3.655
REMARK  Name = 54755438
REMARK  5 active torsions:
REMARK  status: ('A' for Active; 'I' for Inactive)
REMARK    1  A    between atoms: N_2  and  C_13
REMARK    2  A    between atoms: N_3  and  C_21
REMARK    3  A    between atoms: C_17  and  C_18
REMARK    4  A    between atoms: C_26  and  O_27
REMARK    5  A    between atoms: O_27  and  C_28
REMARK                            x       y       z     vdW  Elec       q    Type
REMARK                         _______ _______ _______ _____ _____    ______ ____
ROOT
ATOM      1  O   UNL     1      33.371 -14.306 -20.938  0.00  0.00    -0.252 OA
ATOM      2  N   UNL     1      32.857 -13.626 -23.136  0.00  0.00    -0.230 N 
ATOM      3  N   UNL     1      33.868 -15.646 -22.866  0.00  0.00    -0.231 N 
ATOM      4  N   UNL     1      32.661 -13.668 -25.583  0.00  0.00    -0.231 NA
ATOM      5  N   UNL     1      33.462 -15.719 -26.596  0.00  0.00    -0.232 NA
ATOM      6  C   UNL     1      33.035 -14.192 -24.408  0.00  0.00    +0.138 C 
ATOM      7  C   UNL     1      33.358 -14.512 -22.144  0.00  0.00    +0.316 C 
ATOM      8  C   UNL     1      33.641 -15.428 -24.242  0.00  0.00    +0.188 C 
ATOM      9  C   UNL     1      33.812 -16.181 -25.374  0.00  0.00    +0.125 C 
ATOM     10  C   UNL     1      32.912 -14.481 -26.629  0.00  0.00    +0.253 C 
ATOM     11  N   UNL     1      34.376 -17.470 -25.280  0.00  0.00    -0.345 N 
ATOM     12  H   UNL     1      34.500 -18.013 -26.092  0.00  0.00    +0.143 HD
ATOM     13  H   UNL     1      34.647 -17.827 -24.403  0.00  0.00    +0.143 HD
ENDROOT
BRANCH   2  16
ATOM     14  O   UNL     1      31.973  -8.452 -20.384  0.00  0.00    -0.260 OA
ATOM     15  N   UNL     1      32.189 -10.499 -21.447  0.00  0.00    -0.268 N 
ATOM     16  C   UNL     1      32.246 -12.339 -22.921  0.00  0.00    +0.104 C 
ATOM     17  C   UNL     1      33.041 -11.184 -23.529  0.00  0.00    +0.044 C 
ATOM     18  C   UNL     1      32.165 -11.960 -21.446  0.00  0.00    +0.115 C 
ATOM     19  C   UNL     1      32.519  -9.978 -22.765  0.00  0.00    +0.096 C 
ATOM     20  C   UNL     1      31.942  -9.678 -20.362  0.00  0.00    +0.292 C 
BRANCH  20  21
ATOM     21  C   UNL     1      31.629 -10.320 -19.105  0.00  0.00    -0.007 C 
ATOM     22  C   UNL     1      31.369 -10.852 -18.061  0.00  0.00    -0.081 C 
ATOM     23  C   UNL     1      31.052 -11.501 -16.790  0.00  0.00    +0.090 C 
ENDBRANCH  20  21
ENDBRANCH   2  16
BRANCH   3  24
ATOM     24  C   UNL     1      34.490 -16.784 -22.298  0.00  0.00    +0.056 C 
ATOM     25  C   UNL     1      35.816 -17.085 -22.614  0.00  0.00    +0.018 C 
ATOM     26  C   UNL     1      33.780 -17.604 -21.422  0.00  0.00    +0.018 C 
ATOM     27  C   UNL     1      36.430 -18.205 -22.055  0.00  0.00    +0.039 C 
ATOM     28  C   UNL     1      34.394 -18.725 -20.863  0.00  0.00    +0.039 C 
ATOM     29  C   UNL     1      35.718 -19.025 -21.179  0.00  0.00    +0.145 C 
BRANCH  29  30
ATOM     30  O   UNL     1      36.318 -20.119 -20.633  0.00  0.00    -0.453 OA
BRANCH  30  31
ATOM     31  C   UNL     1      35.555 -20.927 -19.808  0.00  0.00    +0.145 C 
ATOM     32  C   UNL     1      34.207 -21.142 -20.093  0.00  0.00    +0.037 C 
ATOM     33  C   UNL     1      36.135 -21.527 -18.690  0.00  0.00    +0.037 C 
ATOM     34  C   UNL     1      33.438 -21.956 -19.261  0.00  0.00    +0.003 C 
ATOM     35  C   UNL     1      35.367 -22.342 -17.858  0.00  0.00    +0.003 C 
ATOM     36  C   UNL     1      34.019 -22.555 -18.143  0.00  0.00    +0.000 C 
ENDBRANCH  30  31
ENDBRANCH  29  30
ENDBRANCH   3  24
TORSDOF 5
ENDMDL
