MODEL 1
REMARK VINA RESULT:      -7.2      0.000      0.000
REMARK  Name = 447568
REMARK  8 active torsions:
REMARK  status: ('A' for Active; 'I' for Inactive)
REMARK    1  A    between atoms: C_2  and  O_6
REMARK    2  A    between atoms: C_3  and  C_12
REMARK    3  A    between atoms: C_4  and  O_8
REMARK    4  A    between atoms: C_5  and  O_10
REMARK    5  A    between atoms: C_12  and  O_13
REMARK    6  A    between atoms: O_13  and  P_14
REMARK    7  A    between atoms: P_14  and  O_16
REMARK    8  A    between atoms: P_14  and  O_18
REMARK                            x       y       z     vdW  Elec       q    Type
REMARK                         _______ _______ _______ _____ _____    ______ ____
ROOT
ATOM      1  O   UNL     1      38.067 -25.228 -12.037  0.00  0.00    -0.326 OA
ATOM      2  C   UNL     1      35.875 -24.707 -12.838  0.00  0.00    +0.172 C 
ATOM      3  C   UNL     1      36.954 -25.791 -12.761  0.00  0.00    +0.177 C 
ATOM      4  C   UNL     1      36.644 -23.431 -12.572  0.00  0.00    +0.196 C 
ATOM      5  C   UNL     1      37.712 -23.909 -11.602  0.00  0.00    +0.262 C 
ENDROOT
BRANCH   2   6
ATOM      6  O   UNL     1      34.937 -24.895 -11.782  0.00  0.00    -0.379 OA
ATOM      7  H   UNL     1      34.544 -25.780 -11.853  0.00  0.00    +0.211 HD
ENDBRANCH   2   6
BRANCH   4   8
ATOM      8  O   UNL     1      37.231 -22.984 -13.789  0.00  0.00    -0.378 OA
ATOM      9  H   UNL     1      38.163 -22.761 -13.637  0.00  0.00    +0.211 HD
ENDBRANCH   4   8
BRANCH   5  10
ATOM     10  O   UNL     1      38.816 -23.023 -11.581  0.00  0.00    -0.358 OA
ATOM     11  H   UNL     1      38.938 -22.637 -12.462  0.00  0.00    +0.213 HD
ENDBRANCH   5  10
BRANCH   3  12
ATOM     12  C   UNL     1      37.461 -26.232 -14.125  0.00  0.00    +0.186 C 
BRANCH  12  13
ATOM     13  O   UNL     1      38.859 -26.452 -14.042  0.00  0.00    -0.271 OA
BRANCH  13  14
ATOM     14  P   UNL     1      39.846 -25.465 -14.864  0.00  0.00    +0.473 P 
ATOM     15  O   UNL     1      40.720 -26.144 -15.877  0.00  0.00    -0.227 OA
BRANCH  14  16
ATOM     16  O   UNL     1      40.630 -24.655 -13.706  0.00  0.00    -0.303 OA
ATOM     17  H   UNL     1      41.455 -25.116 -13.489  0.00  0.00    +0.222 HD
ENDBRANCH  14  16
BRANCH  14  18
ATOM     18  O   UNL     1      38.830 -24.362 -15.469  0.00  0.00    -0.303 OA
ATOM     19  H   UNL     1      39.194 -23.474 -15.327  0.00  0.00    +0.222 HD
ENDBRANCH  14  18
ENDBRANCH  13  14
ENDBRANCH  12  13
ENDBRANCH   3  12
TORSDOF 8
ENDMDL
MODEL 2
REMARK VINA RESULT:      -7.0      1.204      2.040
REMARK  Name = 447568
REMARK  8 active torsions:
REMARK  status: ('A' for Active; 'I' for Inactive)
REMARK    1  A    between atoms: C_2  and  O_6
REMARK    2  A    between atoms: C_3  and  C_12
REMARK    3  A    between atoms: C_4  and  O_8
REMARK    4  A    between atoms: C_5  and  O_10
REMARK    5  A    between atoms: C_12  and  O_13
REMARK    6  A    between atoms: O_13  and  P_14
REMARK    7  A    between atoms: P_14  and  O_16
REMARK    8  A    between atoms: P_14  and  O_18
REMARK                            x       y       z     vdW  Elec       q    Type
REMARK                         _______ _______ _______ _____ _____    ______ ____
ROOT
ATOM      1  O   UNL     1      36.323 -25.579 -11.621  0.00  0.00    -0.326 OA
ATOM      2  C   UNL     1      36.679 -23.829 -13.211  0.00  0.00    +0.172 C 
ATOM      3  C   UNL     1      36.844 -25.327 -12.942  0.00  0.00    +0.177 C 
ATOM      4  C   UNL     1      36.518 -23.242 -11.825  0.00  0.00    +0.196 C 
ATOM      5  C   UNL     1      35.783 -24.357 -11.099  0.00  0.00    +0.262 C 
ENDROOT
BRANCH   2   6
ATOM      6  O   UNL     1      35.472 -23.608 -13.936  0.00  0.00    -0.379 OA
ATOM      7  H   UNL     1      35.627 -22.942 -14.626  0.00  0.00    +0.211 HD
ENDBRANCH   2   6
BRANCH   4   8
ATOM      8  O   UNL     1      37.807 -23.035 -11.260  0.00  0.00    -0.378 OA
ATOM      9  H   UNL     1      38.368 -23.804 -11.443  0.00  0.00    +0.211 HD
ENDBRANCH   4   8
BRANCH   5  10
ATOM     10  O   UNL     1      35.939 -24.243  -9.697  0.00  0.00    -0.358 OA
ATOM     11  H   UNL     1      35.771 -25.103  -9.282  0.00  0.00    +0.213 HD
ENDBRANCH   5  10
BRANCH   3  12
ATOM     12  C   UNL     1      38.294 -25.786 -12.966  0.00  0.00    +0.186 C 
BRANCH  12  13
ATOM     13  O   UNL     1      38.682 -25.995 -14.313  0.00  0.00    -0.271 OA
BRANCH  13  14
ATOM     14  P   UNL     1      39.879 -25.088 -14.922  0.00  0.00    +0.473 P 
ATOM     15  O   UNL     1      40.891 -24.619 -13.919  0.00  0.00    -0.227 OA
BRANCH  14  16
ATOM     16  O   UNL     1      39.103 -23.917 -15.722  0.00  0.00    -0.303 OA
ATOM     17  H   UNL     1      39.102 -24.119 -16.671  0.00  0.00    +0.222 HD
ENDBRANCH  14  16
BRANCH  14  18
ATOM     18  O   UNL     1      40.469 -26.019 -16.105  0.00  0.00    -0.303 OA
ATOM     19  H   UNL     1      41.219 -25.571 -16.527  0.00  0.00    +0.222 HD
ENDBRANCH  14  18
ENDBRANCH  13  14
ENDBRANCH  12  13
ENDBRANCH   3  12
TORSDOF 8
ENDMDL
MODEL 3
REMARK VINA RESULT:      -7.0      1.265      2.788
REMARK  Name = 447568
REMARK  8 active torsions:
REMARK  status: ('A' for Active; 'I' for Inactive)
REMARK    1  A    between atoms: C_2  and  O_6
REMARK    2  A    between atoms: C_3  and  C_12
REMARK    3  A    between atoms: C_4  and  O_8
REMARK    4  A    between atoms: C_5  and  O_10
REMARK    5  A    between atoms: C_12  and  O_13
REMARK    6  A    between atoms: O_13  and  P_14
REMARK    7  A    between atoms: P_14  and  O_16
REMARK    8  A    between atoms: P_14  and  O_18
REMARK                            x       y       z     vdW  Elec       q    Type
REMARK                         _______ _______ _______ _____ _____    ______ ____
ROOT
ATOM      1  O   UNL     1      35.797 -23.618 -13.599  0.00  0.00    -0.326 OA
ATOM      2  C   UNL     1      37.629 -23.861 -12.082  0.00  0.00    +0.172 C 
ATOM      3  C   UNL     1      37.222 -23.423 -13.491  0.00  0.00    +0.177 C 
ATOM      4  C   UNL     1      36.476 -24.737 -11.642  0.00  0.00    +0.196 C 
ATOM      5  C   UNL     1      35.298 -24.069 -12.333  0.00  0.00    +0.262 C 
ENDROOT
BRANCH   2   6
ATOM      6  O   UNL     1      37.679 -22.721 -11.228  0.00  0.00    -0.379 OA
ATOM      7  H   UNL     1      37.219 -21.979 -11.651  0.00  0.00    +0.211 HD
ENDBRANCH   2   6
BRANCH   4   8
ATOM      8  O   UNL     1      36.679 -26.052 -12.148  0.00  0.00    -0.378 OA
ATOM      9  H   UNL     1      36.130 -26.678 -11.650  0.00  0.00    +0.211 HD
ENDBRANCH   4   8
BRANCH   5  10
ATOM     10  O   UNL     1      34.208 -24.962 -12.460  0.00  0.00    -0.358 OA
ATOM     11  H   UNL     1      34.009 -25.099 -13.399  0.00  0.00    +0.213 HD
ENDBRANCH   5  10
BRANCH   3  12
ATOM     12  C   UNL     1      37.888 -24.238 -14.590  0.00  0.00    +0.186 C 
BRANCH  12  13
ATOM     13  O   UNL     1      39.228 -24.502 -14.210  0.00  0.00    -0.271 OA
BRANCH  13  14
ATOM     14  P   UNL     1      39.873 -25.936 -14.600  0.00  0.00    +0.473 P 
ATOM     15  O   UNL     1      41.023 -26.369 -13.739  0.00  0.00    -0.227 OA
BRANCH  14  16
ATOM     16  O   UNL     1      40.204 -25.791 -16.176  0.00  0.00    -0.303 OA
ATOM     17  H   UNL     1      40.956 -25.190 -16.295  0.00  0.00    +0.222 HD
ENDBRANCH  14  16
BRANCH  14  18
ATOM     18  O   UNL     1      38.594 -26.924 -14.578  0.00  0.00    -0.303 OA
ATOM     19  H   UNL     1      38.182 -26.942 -15.456  0.00  0.00    +0.222 HD
ENDBRANCH  14  18
ENDBRANCH  13  14
ENDBRANCH  12  13
ENDBRANCH   3  12
TORSDOF 8
ENDMDL
MODEL 4
REMARK VINA RESULT:      -6.9      1.663      2.667
REMARK  Name = 447568
REMARK  8 active torsions:
REMARK  status: ('A' for Active; 'I' for Inactive)
REMARK    1  A    between atoms: C_2  and  O_6
REMARK    2  A    between atoms: C_3  and  C_12
REMARK    3  A    between atoms: C_4  and  O_8
REMARK    4  A    between atoms: C_5  and  O_10
REMARK    5  A    between atoms: C_12  and  O_13
REMARK    6  A    between atoms: O_13  and  P_14
REMARK    7  A    between atoms: P_14  and  O_16
REMARK    8  A    between atoms: P_14  and  O_18
REMARK                            x       y       z     vdW  Elec       q    Type
REMARK                         _______ _______ _______ _____ _____    ______ ____
ROOT
ATOM      1  O   UNL     1      37.770 -23.115 -14.137  0.00  0.00    -0.326 OA
ATOM      2  C   UNL     1      35.776 -24.335 -13.630  0.00  0.00    +0.172 C 
ATOM      3  C   UNL     1      37.128 -23.865 -13.085  0.00  0.00    +0.177 C 
ATOM      4  C   UNL     1      35.950 -24.232 -15.129  0.00  0.00    +0.196 C 
ATOM      5  C   UNL     1      36.874 -23.031 -15.253  0.00  0.00    +0.262 C 
ENDROOT
BRANCH   2   6
ATOM      6  O   UNL     1      34.760 -23.419 -13.231  0.00  0.00    -0.379 OA
ATOM      7  H   UNL     1      33.890 -23.780 -13.463  0.00  0.00    +0.211 HD
ENDBRANCH   2   6
BRANCH   4   8
ATOM      8  O   UNL     1      36.591 -25.412 -15.601  0.00  0.00    -0.378 OA
ATOM      9  H   UNL     1      36.541 -25.443 -16.569  0.00  0.00    +0.211 HD
ENDBRANCH   4   8
BRANCH   5  10
ATOM     10  O   UNL     1      37.547 -23.031 -16.498  0.00  0.00    -0.358 OA
ATOM     11  H   UNL     1      36.912 -22.856 -17.209  0.00  0.00    +0.213 HD
ENDBRANCH   5  10
BRANCH   3  12
ATOM     12  C   UNL     1      38.051 -25.010 -12.698  0.00  0.00    +0.186 C 
BRANCH  12  13
ATOM     13  O   UNL     1      39.321 -24.790 -13.288  0.00  0.00    -0.271 OA
BRANCH  13  14
ATOM     14  P   UNL     1      39.840 -25.830 -14.416  0.00  0.00    +0.473 P 
ATOM     15  O   UNL     1      41.199 -26.414 -14.162  0.00  0.00    -0.227 OA
BRANCH  14  16
ATOM     16  O   UNL     1      39.689 -25.005 -15.798  0.00  0.00    -0.303 OA
ATOM     17  H   UNL     1      39.531 -24.068 -15.600  0.00  0.00    +0.222 HD
ENDBRANCH  14  16
BRANCH  14  18
ATOM     18  O   UNL     1      38.637 -26.908 -14.492  0.00  0.00    -0.303 OA
ATOM     19  H   UNL     1      38.807 -27.533 -15.214  0.00  0.00    +0.222 HD
ENDBRANCH  14  18
ENDBRANCH  13  14
ENDBRANCH  12  13
ENDBRANCH   3  12
TORSDOF 8
ENDMDL
MODEL 5
REMARK VINA RESULT:      -6.8      2.265      4.432
REMARK  Name = 447568
REMARK  8 active torsions:
REMARK  status: ('A' for Active; 'I' for Inactive)
REMARK    1  A    between atoms: C_2  and  O_6
REMARK    2  A    between atoms: C_3  and  C_12
REMARK    3  A    between atoms: C_4  and  O_8
REMARK    4  A    between atoms: C_5  and  O_10
REMARK    5  A    between atoms: C_12  and  O_13
REMARK    6  A    between atoms: O_13  and  P_14
REMARK    7  A    between atoms: P_14  and  O_16
REMARK    8  A    between atoms: P_14  and  O_18
REMARK                            x       y       z     vdW  Elec       q    Type
REMARK                         _______ _______ _______ _____ _____    ______ ____
ROOT
ATOM      1  O   UNL     1      36.482 -25.734 -14.188  0.00  0.00    -0.326 OA
ATOM      2  C   UNL     1      38.739 -25.026 -14.533  0.00  0.00    +0.172 C 
ATOM      3  C   UNL     1      37.832 -25.969 -13.738  0.00  0.00    +0.177 C 
ATOM      4  C   UNL     1      37.784 -23.967 -15.040  0.00  0.00    +0.196 C 
ATOM      5  C   UNL     1      36.513 -24.773 -15.252  0.00  0.00    +0.262 C 
ENDROOT
BRANCH   2   6
ATOM      6  O   UNL     1      39.278 -25.720 -15.654  0.00  0.00    -0.379 OA
ATOM      7  H   UNL     1      38.630 -25.721 -16.377  0.00  0.00    +0.211 HD
ENDBRANCH   2   6
BRANCH   4   8
ATOM      8  O   UNL     1      37.598 -22.989 -14.023  0.00  0.00    -0.378 OA
ATOM      9  H   UNL     1      36.991 -23.334 -13.349  0.00  0.00    +0.211 HD
ENDBRANCH   4   8
BRANCH   5  10
ATOM     10  O   UNL     1      35.373 -23.934 -15.266  0.00  0.00    -0.358 OA
ATOM     11  H   UNL     1      34.970 -23.920 -14.384  0.00  0.00    +0.213 HD
ENDBRANCH   5  10
BRANCH   3  12
ATOM     12  C   UNL     1      37.873 -25.720 -12.238  0.00  0.00    +0.186 C 
BRANCH  12  13
ATOM     13  O   UNL     1      36.543 -25.649 -11.752  0.00  0.00    -0.271 OA
BRANCH  13  14
ATOM     14  P   UNL     1      36.037 -24.262 -11.086  0.00  0.00    +0.473 P 
ATOM     15  O   UNL     1      35.326 -24.412  -9.774  0.00  0.00    -0.227 OA
BRANCH  14  16
ATOM     16  O   UNL     1      35.177 -23.563 -12.264  0.00  0.00    -0.303 OA
ATOM     17  H   UNL     1      35.418 -22.625 -12.328  0.00  0.00    +0.222 HD
ENDBRANCH  14  16
BRANCH  14  18
ATOM     18  O   UNL     1      37.387 -23.374 -11.034  0.00  0.00    -0.303 OA
ATOM     19  H   UNL     1      37.157 -22.432 -11.039  0.00  0.00    +0.222 HD
ENDBRANCH  14  18
ENDBRANCH  13  14
ENDBRANCH  12  13
ENDBRANCH   3  12
TORSDOF 8
ENDMDL
MODEL 6
REMARK VINA RESULT:      -6.7      1.884      3.266
REMARK  Name = 447568
REMARK  8 active torsions:
REMARK  status: ('A' for Active; 'I' for Inactive)
REMARK    1  A    between atoms: C_2  and  O_6
REMARK    2  A    between atoms: C_3  and  C_12
REMARK    3  A    between atoms: C_4  and  O_8
REMARK    4  A    between atoms: C_5  and  O_10
REMARK    5  A    between atoms: C_12  and  O_13
REMARK    6  A    between atoms: O_13  and  P_14
REMARK    7  A    between atoms: P_14  and  O_16
REMARK    8  A    between atoms: P_14  and  O_18
REMARK                            x       y       z     vdW  Elec       q    Type
REMARK                         _______ _______ _______ _____ _____    ______ ____
ROOT
ATOM      1  O   UNL     1      35.804 -23.603 -13.560  0.00  0.00    -0.326 OA
ATOM      2  C   UNL     1      37.280 -23.567 -11.679  0.00  0.00    +0.172 C 
ATOM      3  C   UNL     1      37.189 -23.422 -13.201  0.00  0.00    +0.177 C 
ATOM      4  C   UNL     1      36.009 -24.307 -11.323  0.00  0.00    +0.196 C 
ATOM      5  C   UNL     1      35.036 -23.770 -12.361  0.00  0.00    +0.262 C 
ENDROOT
BRANCH   2   6
ATOM      6  O   UNL     1      37.233 -22.277 -11.076  0.00  0.00    -0.379 OA
ATOM      7  H   UNL     1      37.943 -21.724 -11.440  0.00  0.00    +0.211 HD
ENDBRANCH   2   6
BRANCH   4   8
ATOM      8  O   UNL     1      36.221 -25.702 -11.504  0.00  0.00    -0.378 OA
ATOM      9  H   UNL     1      35.858 -25.977 -12.361  0.00  0.00    +0.211 HD
ENDBRANCH   4   8
BRANCH   5  10
ATOM     10  O   UNL     1      33.937 -24.645 -12.531  0.00  0.00    -0.358 OA
ATOM     11  H   UNL     1      33.580 -24.547 -13.427  0.00  0.00    +0.213 HD
ENDBRANCH   5  10
BRANCH   3  12
ATOM     12  C   UNL     1      38.005 -24.462 -13.953  0.00  0.00    +0.186 C 
BRANCH  12  13
ATOM     13  O   UNL     1      37.152 -25.142 -14.858  0.00  0.00    -0.271 OA
BRANCH  13  14
ATOM     14  P   UNL     1      37.295 -26.750 -14.993  0.00  0.00    +0.473 P 
ATOM     15  O   UNL     1      36.722 -27.333 -16.252  0.00  0.00    -0.227 OA
BRANCH  14  16
ATOM     16  O   UNL     1      36.654 -27.309 -13.618  0.00  0.00    -0.303 OA
ATOM     17  H   UNL     1      37.166 -26.975 -12.864  0.00  0.00    +0.222 HD
ENDBRANCH  14  16
BRANCH  14  18
ATOM     18  O   UNL     1      38.881 -26.989 -14.790  0.00  0.00    -0.303 OA
ATOM     19  H   UNL     1      39.160 -27.766 -15.299  0.00  0.00    +0.222 HD
ENDBRANCH  14  18
ENDBRANCH  13  14
ENDBRANCH  12  13
ENDBRANCH   3  12
TORSDOF 8
ENDMDL
MODEL 7
REMARK VINA RESULT:      -6.0      2.222      3.408
REMARK  Name = 447568
REMARK  8 active torsions:
REMARK  status: ('A' for Active; 'I' for Inactive)
REMARK    1  A    between atoms: C_2  and  O_6
REMARK    2  A    between atoms: C_3  and  C_12
REMARK    3  A    between atoms: C_4  and  O_8
REMARK    4  A    between atoms: C_5  and  O_10
REMARK    5  A    between atoms: C_12  and  O_13
REMARK    6  A    between atoms: O_13  and  P_14
REMARK    7  A    between atoms: P_14  and  O_16
REMARK    8  A    between atoms: P_14  and  O_18
REMARK                            x       y       z     vdW  Elec       q    Type
REMARK                         _______ _______ _______ _____ _____    ______ ____
ROOT
ATOM      1  O   UNL     1      38.121 -25.948 -14.589  0.00  0.00    -0.326 OA
ATOM      2  C   UNL     1      36.871 -25.451 -12.612  0.00  0.00    +0.172 C 
ATOM      3  C   UNL     1      36.793 -26.019 -14.031  0.00  0.00    +0.177 C 
ATOM      4  C   UNL     1      38.150 -24.641 -12.630  0.00  0.00    +0.196 C 
ATOM      5  C   UNL     1      39.015 -25.450 -13.584  0.00  0.00    +0.262 C 
ENDROOT
BRANCH   2   6
ATOM      6  O   UNL     1      37.028 -26.519 -11.682  0.00  0.00    -0.379 OA
ATOM      7  H   UNL     1      36.657 -27.333 -12.058  0.00  0.00    +0.211 HD
ENDBRANCH   2   6
BRANCH   4   8
ATOM      8  O   UNL     1      37.872 -23.354 -13.169  0.00  0.00    -0.378 OA
ATOM      9  H   UNL     1      36.917 -23.260 -13.309  0.00  0.00    +0.211 HD
ENDBRANCH   4   8
BRANCH   5  10
ATOM     10  O   UNL     1      40.058 -24.660 -14.121  0.00  0.00    -0.358 OA
ATOM     11  H   UNL     1      39.883 -24.487 -15.059  0.00  0.00    +0.213 HD
ENDBRANCH   5  10
BRANCH   3  12
ATOM     12  C   UNL     1      35.862 -25.233 -14.943  0.00  0.00    +0.186 C 
BRANCH  12  13
ATOM     13  O   UNL     1      36.639 -24.345 -15.728  0.00  0.00    -0.271 OA
BRANCH  13  14
ATOM     14  P   UNL     1      36.065 -22.855 -16.004  0.00  0.00    +0.473 P 
ATOM     15  O   UNL     1      35.298 -22.699 -17.284  0.00  0.00    -0.227 OA
BRANCH  14  16
ATOM     16  O   UNL     1      37.369 -21.910 -15.858  0.00  0.00    -0.303 OA
ATOM     17  H   UNL     1      38.169 -22.434 -16.018  0.00  0.00    +0.222 HD
ENDBRANCH  14  16
BRANCH  14  18
ATOM     18  O   UNL     1      35.223 -22.539 -14.661  0.00  0.00    -0.303 OA
ATOM     19  H   UNL     1      35.822 -22.208 -13.973  0.00  0.00    +0.222 HD
ENDBRANCH  14  18
ENDBRANCH  13  14
ENDBRANCH  12  13
ENDBRANCH   3  12
TORSDOF 8
ENDMDL
MODEL 8
REMARK VINA RESULT:      -5.9      2.799      4.765
REMARK  Name = 447568
REMARK  8 active torsions:
REMARK  status: ('A' for Active; 'I' for Inactive)
REMARK    1  A    between atoms: C_2  and  O_6
REMARK    2  A    between atoms: C_3  and  C_12
REMARK    3  A    between atoms: C_4  and  O_8
REMARK    4  A    between atoms: C_5  and  O_10
REMARK    5  A    between atoms: C_12  and  O_13
REMARK    6  A    between atoms: O_13  and  P_14
REMARK    7  A    between atoms: P_14  and  O_16
REMARK    8  A    between atoms: P_14  and  O_18
REMARK                            x       y       z     vdW  Elec       q    Type
REMARK                         _______ _______ _______ _____ _____    ______ ____
ROOT
ATOM      1  O   UNL     1      36.758 -23.450 -12.977  0.00  0.00    -0.326 OA
ATOM      2  C   UNL     1      37.992 -25.275 -13.908  0.00  0.00    +0.172 C 
ATOM      3  C   UNL     1      36.998 -24.152 -14.214  0.00  0.00    +0.177 C 
ATOM      4  C   UNL     1      37.879 -25.441 -12.408  0.00  0.00    +0.196 C 
ATOM      5  C   UNL     1      37.594 -24.017 -11.959  0.00  0.00    +0.262 C 
ENDROOT
BRANCH   2   6
ATOM      6  O   UNL     1      39.313 -24.835 -14.213  0.00  0.00    -0.379 OA
ATOM      7  H   UNL     1      39.291 -23.900 -14.471  0.00  0.00    +0.211 HD
ENDBRANCH   2   6
BRANCH   4   8
ATOM      8  O   UNL     1      36.775 -26.292 -12.121  0.00  0.00    -0.378 OA
ATOM      9  H   UNL     1      36.238 -26.407 -12.921  0.00  0.00    +0.211 HD
ENDBRANCH   4   8
BRANCH   5  10
ATOM     10  O   UNL     1      36.989 -23.997 -10.679  0.00  0.00    -0.358 OA
ATOM     11  H   UNL     1      37.671 -23.881 -10.000  0.00  0.00    +0.213 HD
ENDBRANCH   5  10
BRANCH   3  12
ATOM     12  C   UNL     1      35.659 -24.658 -14.730  0.00  0.00    +0.186 C 
BRANCH  12  13
ATOM     13  O   UNL     1      34.700 -24.544 -13.692  0.00  0.00    -0.271 OA
BRANCH  13  14
ATOM     14  P   UNL     1      33.182 -24.141 -14.085  0.00  0.00    +0.473 P 
ATOM     15  O   UNL     1      33.012 -23.584 -15.468  0.00  0.00    -0.227 OA
BRANCH  14  16
ATOM     16  O   UNL     1      32.722 -23.162 -12.883  0.00  0.00    -0.303 OA
ATOM     17  H   UNL     1      33.484 -22.968 -12.315  0.00  0.00    +0.222 HD
ENDBRANCH  14  16
BRANCH  14  18
ATOM     18  O   UNL     1      32.360 -25.502 -13.792  0.00  0.00    -0.303 OA
ATOM     19  H   UNL     1      32.859 -26.054 -13.169  0.00  0.00    +0.222 HD
ENDBRANCH  14  18
ENDBRANCH  13  14
ENDBRANCH  12  13
ENDBRANCH   3  12
TORSDOF 8
ENDMDL
MODEL 9
REMARK VINA RESULT:      -5.9      7.078      9.032
REMARK  Name = 447568
REMARK  8 active torsions:
REMARK  status: ('A' for Active; 'I' for Inactive)
REMARK    1  A    between atoms: C_2  and  O_6
REMARK    2  A    between atoms: C_3  and  C_12
REMARK    3  A    between atoms: C_4  and  O_8
REMARK    4  A    between atoms: C_5  and  O_10
REMARK    5  A    between atoms: C_12  and  O_13
REMARK    6  A    between atoms: O_13  and  P_14
REMARK    7  A    between atoms: P_14  and  O_16
REMARK    8  A    between atoms: P_14  and  O_18
REMARK                            x       y       z     vdW  Elec       q    Type
REMARK                         _______ _______ _______ _____ _____    ______ ____
ROOT
ATOM      1  O   UNL     1      31.007 -24.682 -16.000  0.00  0.00    -0.326 OA
ATOM      2  C   UNL     1      31.220 -24.390 -13.636  0.00  0.00    +0.172 C 
ATOM      3  C   UNL     1      30.393 -25.044 -14.746  0.00  0.00    +0.177 C 
ATOM      4  C   UNL     1      31.970 -23.294 -14.360  0.00  0.00    +0.196 C 
ATOM      5  C   UNL     1      32.191 -23.920 -15.727  0.00  0.00    +0.262 C 
ENDROOT
BRANCH   2   6
ATOM      6  O   UNL     1      32.167 -25.329 -13.135  0.00  0.00    -0.379 OA
ATOM      7  H   UNL     1      32.782 -25.578 -13.844  0.00  0.00    +0.211 HD
ENDBRANCH   2   6
BRANCH   4   8
ATOM      8  O   UNL     1      31.131 -22.149 -14.459  0.00  0.00    -0.378 OA
ATOM      9  H   UNL     1      31.131 -21.673 -13.613  0.00  0.00    +0.211 HD
ENDBRANCH   4   8
BRANCH   5  10
ATOM     10  O   UNL     1      32.444 -22.931 -16.707  0.00  0.00    -0.358 OA
ATOM     11  H   UNL     1      31.690 -22.322 -16.755  0.00  0.00    +0.213 HD
ENDBRANCH   5  10
BRANCH   3  12
ATOM     12  C   UNL     1      28.949 -24.567 -14.780  0.00  0.00    +0.186 C 
BRANCH  12  13
ATOM     13  O   UNL     1      28.564 -24.380 -16.131  0.00  0.00    -0.271 OA
BRANCH  13  14
ATOM     14  P   UNL     1      28.163 -22.888 -16.620  0.00  0.00    +0.473 P 
ATOM     15  O   UNL     1      27.378 -22.085 -15.625  0.00  0.00    -0.227 OA
BRANCH  14  16
ATOM     16  O   UNL     1      27.432 -23.135 -18.041  0.00  0.00    -0.303 OA
ATOM     17  H   UNL     1      26.704 -22.502 -18.145  0.00  0.00    +0.222 HD
ENDBRANCH  14  16
BRANCH  14  18
ATOM     18  O   UNL     1      29.589 -22.252 -17.040  0.00  0.00    -0.303 OA
ATOM     19  H   UNL     1      30.253 -22.956 -17.101  0.00  0.00    +0.222 HD
ENDBRANCH  14  18
ENDBRANCH  13  14
ENDBRANCH  12  13
ENDBRANCH   3  12
TORSDOF 8
ENDMDL
