MODEL 1
REMARK VINA RESULT:      -6.6      0.000      0.000
REMARK  Name = 79034
REMARK  12 active torsions:
REMARK  status: ('A' for Active; 'I' for Inactive)
REMARK    1  A    between atoms: C_1  and  C_2
REMARK    2  A    between atoms: C_1  and  C_10
REMARK    3  A    between atoms: C_2  and  C_3
REMARK    4  A    between atoms: C_3  and  C_4
REMARK    5  A    between atoms: C_4  and  C_5
REMARK    6  A    between atoms: C_5  and  C_6
REMARK    7  A    between atoms: C_6  and  C_7
REMARK    8  A    between atoms: C_7  and  O_8
REMARK    9  A    between atoms: C_11  and  C_12
REMARK   10  A    between atoms: C_12  and  C_13
REMARK   11  A    between atoms: C_13  and  C_15
REMARK   12  A    between atoms: C_15  and  O_16
REMARK                            x       y       z     vdW  Elec       q    Type
REMARK                         _______ _______ _______ _____ _____    ______ ____
ROOT
ATOM      1  C   UNL     1      33.075 -20.234 -20.184  0.00  0.00    +0.026 C 
ENDROOT
BRANCH   1   2
ATOM      2  C   UNL     1      33.945 -19.806 -21.370  0.00  0.00    -0.031 C 
ATOM      3  C   UNL     1      34.859 -18.601 -21.124  0.00  0.00    -0.030 C 
BRANCH   3   4
ATOM      4  C   UNL     1      35.780 -18.215 -22.287  0.00  0.00    +0.037 C 
BRANCH   4   5
ATOM      5  C   UNL     1      35.232 -18.535 -23.674  0.00  0.00    +0.114 C 
BRANCH   5   7
ATOM      6  O   UNL     1      34.372 -17.271 -25.551  0.00  0.00    -0.250 OA
ATOM      7  C   UNL     1      34.998 -17.299 -24.501  0.00  0.00    +0.314 C 
BRANCH   7   8
ATOM      8  O   UNL     1      35.571 -16.211 -23.930  0.00  0.00    -0.480 OA
ATOM      9  H   UNL     1      36.456 -16.255 -23.624  0.00  0.00    +0.295 HD
ENDBRANCH   7   8
ENDBRANCH   5   7
ENDBRANCH   4   5
ENDBRANCH   3   4
ENDBRANCH   1   2
BRANCH   1  10
ATOM     10  C   UNL     1      33.423 -21.623 -19.645  0.00  0.00    +0.005 C 
BRANCH  10  11
ATOM     11  C   UNL     1      34.938 -21.811 -19.537  0.00  0.00    +0.000 C 
BRANCH  11  12
ATOM     12  C   UNL     1      35.360 -22.105 -18.095  0.00  0.00    +0.000 C 
BRANCH  12  13
ATOM     13  C   UNL     1      36.834 -21.760 -17.869  0.00  0.00    +0.003 C 
BRANCH  13  14
ATOM     14  C   UNL     1      37.212 -21.654 -16.387  0.00  0.00    +0.032 C 
BRANCH  14  15
ATOM     15  C   UNL     1      37.398 -22.994 -15.683  0.00  0.00    +0.137 C 
BRANCH  15  16
ATOM     16  O   UNL     1      38.719 -23.472 -15.890  0.00  0.00    -0.382 OA
ATOM     17  H   UNL     1      38.703 -24.198 -16.534  0.00  0.00    +0.210 HD
ENDBRANCH  15  16
ENDBRANCH  14  15
ENDBRANCH  13  14
ENDBRANCH  12  13
ENDBRANCH  11  12
ENDBRANCH  10  11
ENDBRANCH   1  10
TORSDOF 12
ENDMDL
MODEL 2
REMARK VINA RESULT:      -6.6      5.603      8.142
REMARK  Name = 79034
REMARK  12 active torsions:
REMARK  status: ('A' for Active; 'I' for Inactive)
REMARK    1  A    between atoms: C_1  and  C_2
REMARK    2  A    between atoms: C_1  and  C_10
REMARK    3  A    between atoms: C_2  and  C_3
REMARK    4  A    between atoms: C_3  and  C_4
REMARK    5  A    between atoms: C_4  and  C_5
REMARK    6  A    between atoms: C_5  and  C_6
REMARK    7  A    between atoms: C_6  and  C_7
REMARK    8  A    between atoms: C_7  and  O_8
REMARK    9  A    between atoms: C_11  and  C_12
REMARK   10  A    between atoms: C_12  and  C_13
REMARK   11  A    between atoms: C_13  and  C_15
REMARK   12  A    between atoms: C_15  and  O_16
REMARK                            x       y       z     vdW  Elec       q    Type
REMARK                         _______ _______ _______ _____ _____    ______ ____
ROOT
ATOM      1  C   UNL     1      33.219 -23.477 -15.779  0.00  0.00    +0.026 C 
ENDROOT
BRANCH   1   2
ATOM      2  C   UNL     1      31.719 -23.450 -16.087  0.00  0.00    -0.031 C 
ATOM      3  C   UNL     1      30.832 -24.269 -15.145  0.00  0.00    -0.030 C 
BRANCH   3   4
ATOM      4  C   UNL     1      29.324 -24.187 -15.410  0.00  0.00    +0.037 C 
BRANCH   4   5
ATOM      5  C   UNL     1      28.802 -22.787 -15.720  0.00  0.00    +0.114 C 
BRANCH   5   7
ATOM      6  O   UNL     1      27.634 -23.732 -17.617  0.00  0.00    -0.250 OA
ATOM      7  C   UNL     1      27.906 -22.760 -16.928  0.00  0.00    +0.314 C 
BRANCH   7   8
ATOM      8  O   UNL     1      27.431 -21.511 -17.159  0.00  0.00    -0.480 OA
ATOM      9  H   UNL     1      26.552 -21.392 -17.462  0.00  0.00    +0.295 HD
ENDBRANCH   7   8
ENDBRANCH   5   7
ENDBRANCH   4   5
ENDBRANCH   3   4
ENDBRANCH   1   2
BRANCH   1  10
ATOM     10  C   UNL     1      34.091 -23.051 -16.963  0.00  0.00    +0.005 C 
BRANCH  10  11
ATOM     11  C   UNL     1      33.237 -22.728 -18.191  0.00  0.00    +0.000 C 
BRANCH  11  12
ATOM     12  C   UNL     1      34.021 -21.900 -19.211  0.00  0.00    +0.000 C 
BRANCH  12  13
ATOM     13  C   UNL     1      33.138 -20.822 -19.845  0.00  0.00    +0.003 C 
BRANCH  13  14
ATOM     14  C   UNL     1      33.917 -19.843 -20.730  0.00  0.00    +0.032 C 
BRANCH  14  15
ATOM     15  C   UNL     1      35.429 -20.038 -20.714  0.00  0.00    +0.137 C 
BRANCH  15  16
ATOM     16  O   UNL     1      36.082 -18.780 -20.631  0.00  0.00    -0.382 OA
ATOM     17  H   UNL     1      36.840 -18.770 -21.236  0.00  0.00    +0.210 HD
ENDBRANCH  15  16
ENDBRANCH  14  15
ENDBRANCH  13  14
ENDBRANCH  12  13
ENDBRANCH  11  12
ENDBRANCH  10  11
ENDBRANCH   1  10
TORSDOF 12
ENDMDL
MODEL 3
REMARK VINA RESULT:      -6.6      1.121      8.059
REMARK  Name = 79034
REMARK  12 active torsions:
REMARK  status: ('A' for Active; 'I' for Inactive)
REMARK    1  A    between atoms: C_1  and  C_2
REMARK    2  A    between atoms: C_1  and  C_10
REMARK    3  A    between atoms: C_2  and  C_3
REMARK    4  A    between atoms: C_3  and  C_4
REMARK    5  A    between atoms: C_4  and  C_5
REMARK    6  A    between atoms: C_5  and  C_6
REMARK    7  A    between atoms: C_6  and  C_7
REMARK    8  A    between atoms: C_7  and  O_8
REMARK    9  A    between atoms: C_11  and  C_12
REMARK   10  A    between atoms: C_12  and  C_13
REMARK   11  A    between atoms: C_13  and  C_15
REMARK   12  A    between atoms: C_15  and  O_16
REMARK                            x       y       z     vdW  Elec       q    Type
REMARK                         _______ _______ _______ _____ _____    ______ ____
ROOT
ATOM      1  C   UNL     1      34.774 -21.547 -19.765  0.00  0.00    +0.026 C 
ENDROOT
BRANCH   1   2
ATOM      2  C   UNL     1      35.336 -22.021 -18.421  0.00  0.00    -0.031 C 
ATOM      3  C   UNL     1      36.718 -21.474 -18.048  0.00  0.00    -0.030 C 
BRANCH   3   4
ATOM      4  C   UNL     1      37.252 -21.891 -16.673  0.00  0.00    +0.037 C 
BRANCH   4   5
ATOM      5  C   UNL     1      36.376 -22.889 -15.921  0.00  0.00    +0.114 C 
BRANCH   5   7
ATOM      6  O   UNL     1      37.857 -23.532 -14.118  0.00  0.00    -0.250 OA
ATOM      7  C   UNL     1      37.180 -23.848 -15.086  0.00  0.00    +0.314 C 
BRANCH   7   8
ATOM      8  O   UNL     1      37.060 -25.119 -15.545  0.00  0.00    -0.480 OA
ATOM      9  H   UNL     1      37.592 -25.411 -16.259  0.00  0.00    +0.295 HD
ENDBRANCH   7   8
ENDBRANCH   5   7
ENDBRANCH   4   5
ENDBRANCH   3   4
ENDBRANCH   1   2
BRANCH   1  10
ATOM     10  C   UNL     1      33.308 -21.114 -19.691  0.00  0.00    +0.005 C 
BRANCH  10  11
ATOM     11  C   UNL     1      33.038 -19.918 -20.608  0.00  0.00    +0.000 C 
BRANCH  11  12
ATOM     12  C   UNL     1      34.342 -19.240 -21.036  0.00  0.00    +0.000 C 
BRANCH  12  13
ATOM     13  C   UNL     1      34.560 -19.364 -22.546  0.00  0.00    +0.003 C 
BRANCH  13  14
ATOM     14  C   UNL     1      35.515 -18.306 -23.110  0.00  0.00    +0.032 C 
BRANCH  14  15
ATOM     15  C   UNL     1      35.249 -16.887 -22.619  0.00  0.00    +0.137 C 
BRANCH  15  16
ATOM     16  O   UNL     1      35.586 -15.951 -23.631  0.00  0.00    -0.382 OA
ATOM     17  H   UNL     1      36.540 -15.992 -23.804  0.00  0.00    +0.210 HD
ENDBRANCH  15  16
ENDBRANCH  14  15
ENDBRANCH  13  14
ENDBRANCH  12  13
ENDBRANCH  11  12
ENDBRANCH  10  11
ENDBRANCH   1  10
TORSDOF 12
ENDMDL
MODEL 4
REMARK VINA RESULT:      -6.5      3.196      7.256
REMARK  Name = 79034
REMARK  12 active torsions:
REMARK  status: ('A' for Active; 'I' for Inactive)
REMARK    1  A    between atoms: C_1  and  C_2
REMARK    2  A    between atoms: C_1  and  C_10
REMARK    3  A    between atoms: C_2  and  C_3
REMARK    4  A    between atoms: C_3  and  C_4
REMARK    5  A    between atoms: C_4  and  C_5
REMARK    6  A    between atoms: C_5  and  C_6
REMARK    7  A    between atoms: C_6  and  C_7
REMARK    8  A    between atoms: C_7  and  O_8
REMARK    9  A    between atoms: C_11  and  C_12
REMARK   10  A    between atoms: C_12  and  C_13
REMARK   11  A    between atoms: C_13  and  C_15
REMARK   12  A    between atoms: C_15  and  O_16
REMARK                            x       y       z     vdW  Elec       q    Type
REMARK                         _______ _______ _______ _____ _____    ______ ____
ROOT
ATOM      1  C   UNL     1      34.502 -18.414 -24.946  0.00  0.00    +0.026 C 
ENDROOT
BRANCH   1   2
ATOM      2  C   UNL     1      34.775 -19.297 -23.725  0.00  0.00    -0.031 C 
ATOM      3  C   UNL     1      34.487 -18.658 -22.363  0.00  0.00    -0.030 C 
BRANCH   3   4
ATOM      4  C   UNL     1      34.693 -19.563 -21.144  0.00  0.00    +0.037 C 
BRANCH   4   5
ATOM      5  C   UNL     1      33.415 -20.164 -20.567  0.00  0.00    +0.114 C 
BRANCH   5   7
ATOM      6  O   UNL     1      32.846 -22.130 -19.275  0.00  0.00    -0.250 OA
ATOM      7  C   UNL     1      33.686 -21.323 -19.646  0.00  0.00    +0.314 C 
BRANCH   7   8
ATOM      8  O   UNL     1      34.991 -21.363 -19.278  0.00  0.00    -0.480 OA
ATOM      9  H   UNL     1      35.237 -21.142 -18.401  0.00  0.00    +0.295 HD
ENDBRANCH   7   8
ENDBRANCH   5   7
ENDBRANCH   4   5
ENDBRANCH   3   4
ENDBRANCH   1   2
BRANCH   1  10
ATOM     10  C   UNL     1      34.868 -16.945 -24.728  0.00  0.00    +0.005 C 
BRANCH  10  11
ATOM     11  C   UNL     1      33.849 -16.016 -25.392  0.00  0.00    +0.000 C 
BRANCH  11  12
ATOM     12  C   UNL     1      33.519 -14.820 -24.495  0.00  0.00    +0.000 C 
BRANCH  12  13
ATOM     13  C   UNL     1      34.336 -14.858 -23.201  0.00  0.00    +0.003 C 
BRANCH  13  14
ATOM     14  C   UNL     1      33.474 -15.023 -21.944  0.00  0.00    +0.032 C 
BRANCH  14  15
ATOM     15  C   UNL     1      34.226 -14.837 -20.631  0.00  0.00    +0.137 C 
BRANCH  15  16
ATOM     16  O   UNL     1      35.027 -15.978 -20.362  0.00  0.00    -0.382 OA
ATOM     17  H   UNL     1      34.455 -16.753 -20.245  0.00  0.00    +0.210 HD
ENDBRANCH  15  16
ENDBRANCH  14  15
ENDBRANCH  13  14
ENDBRANCH  12  13
ENDBRANCH  11  12
ENDBRANCH  10  11
ENDBRANCH   1  10
TORSDOF 12
ENDMDL
MODEL 5
REMARK VINA RESULT:      -6.5      2.862      8.216
REMARK  Name = 79034
REMARK  12 active torsions:
REMARK  status: ('A' for Active; 'I' for Inactive)
REMARK    1  A    between atoms: C_1  and  C_2
REMARK    2  A    between atoms: C_1  and  C_10
REMARK    3  A    between atoms: C_2  and  C_3
REMARK    4  A    between atoms: C_3  and  C_4
REMARK    5  A    between atoms: C_4  and  C_5
REMARK    6  A    between atoms: C_5  and  C_6
REMARK    7  A    between atoms: C_6  and  C_7
REMARK    8  A    between atoms: C_7  and  O_8
REMARK    9  A    between atoms: C_11  and  C_12
REMARK   10  A    between atoms: C_12  and  C_13
REMARK   11  A    between atoms: C_13  and  C_15
REMARK   12  A    between atoms: C_15  and  O_16
REMARK                            x       y       z     vdW  Elec       q    Type
REMARK                         _______ _______ _______ _____ _____    ______ ____
ROOT
ATOM      1  C   UNL     1      35.262 -18.565 -22.845  0.00  0.00    +0.026 C 
ENDROOT
BRANCH   1   2
ATOM      2  C   UNL     1      34.869 -19.428 -21.642  0.00  0.00    -0.031 C 
ATOM      3  C   UNL     1      33.376 -19.453 -21.300  0.00  0.00    -0.030 C 
BRANCH   3   4
ATOM      4  C   UNL     1      32.974 -20.371 -20.140  0.00  0.00    +0.037 C 
BRANCH   4   5
ATOM      5  C   UNL     1      34.078 -21.299 -19.642  0.00  0.00    +0.114 C 
BRANCH   5   7
ATOM      6  O   UNL     1      32.413 -22.419 -18.289  0.00  0.00    -0.250 OA
ATOM      7  C   UNL     1      33.573 -22.324 -18.663  0.00  0.00    +0.314 C 
BRANCH   7   8
ATOM      8  O   UNL     1      34.574 -23.136 -18.242  0.00  0.00    -0.480 OA
ATOM      9  H   UNL     1      34.820 -23.881 -18.756  0.00  0.00    +0.295 HD
ENDBRANCH   7   8
ENDBRANCH   5   7
ENDBRANCH   4   5
ENDBRANCH   3   4
ENDBRANCH   1   2
BRANCH   1  10
ATOM     10  C   UNL     1      34.946 -19.219 -24.192  0.00  0.00    +0.005 C 
BRANCH  10  11
ATOM     11  C   UNL     1      34.186 -18.257 -25.109  0.00  0.00    +0.000 C 
BRANCH  11  12
ATOM     12  C   UNL     1      34.838 -16.872 -25.125  0.00  0.00    +0.000 C 
BRANCH  12  13
ATOM     13  C   UNL     1      33.783 -15.764 -25.086  0.00  0.00    +0.003 C 
BRANCH  13  14
ATOM     14  C   UNL     1      33.664 -15.088 -23.715  0.00  0.00    +0.032 C 
BRANCH  14  15
ATOM     15  C   UNL     1      33.112 -13.667 -23.755  0.00  0.00    +0.137 C 
BRANCH  15  16
ATOM     16  O   UNL     1      34.180 -12.732 -23.801  0.00  0.00    -0.382 OA
ATOM     17  H   UNL     1      34.990 -13.151 -23.472  0.00  0.00    +0.210 HD
ENDBRANCH  15  16
ENDBRANCH  14  15
ENDBRANCH  13  14
ENDBRANCH  12  13
ENDBRANCH  11  12
ENDBRANCH  10  11
ENDBRANCH   1  10
TORSDOF 12
ENDMDL
MODEL 6
REMARK VINA RESULT:      -6.4      3.181      3.722
REMARK  Name = 79034
REMARK  12 active torsions:
REMARK  status: ('A' for Active; 'I' for Inactive)
REMARK    1  A    between atoms: C_1  and  C_2
REMARK    2  A    between atoms: C_1  and  C_10
REMARK    3  A    between atoms: C_2  and  C_3
REMARK    4  A    between atoms: C_3  and  C_4
REMARK    5  A    between atoms: C_4  and  C_5
REMARK    6  A    between atoms: C_5  and  C_6
REMARK    7  A    between atoms: C_6  and  C_7
REMARK    8  A    between atoms: C_7  and  O_8
REMARK    9  A    between atoms: C_11  and  C_12
REMARK   10  A    between atoms: C_12  and  C_13
REMARK   11  A    between atoms: C_13  and  C_15
REMARK   12  A    between atoms: C_15  and  O_16
REMARK                            x       y       z     vdW  Elec       q    Type
REMARK                         _______ _______ _______ _____ _____    ______ ____
ROOT
ATOM      1  C   UNL     1      33.111 -20.987 -19.825  0.00  0.00    +0.026 C 
ENDROOT
BRANCH   1   2
ATOM      2  C   UNL     1      33.200 -19.725 -20.689  0.00  0.00    -0.031 C 
ATOM      3  C   UNL     1      34.579 -19.423 -21.285  0.00  0.00    -0.030 C 
BRANCH   3   4
ATOM      4  C   UNL     1      34.653 -18.199 -22.205  0.00  0.00    +0.037 C 
BRANCH   4   5
ATOM      5  C   UNL     1      35.029 -18.507 -23.652  0.00  0.00    +0.114 C 
BRANCH   5   7
ATOM      6  O   UNL     1      34.482 -17.237 -25.639  0.00  0.00    -0.250 OA
ATOM      7  C   UNL     1      34.993 -17.285 -24.530  0.00  0.00    +0.314 C 
BRANCH   7   8
ATOM      8  O   UNL     1      35.604 -16.232 -23.930  0.00  0.00    -0.480 OA
ATOM      9  H   UNL     1      35.777 -16.255 -23.009  0.00  0.00    +0.295 HD
ENDBRANCH   7   8
ENDBRANCH   5   7
ENDBRANCH   4   5
ENDBRANCH   3   4
ENDBRANCH   1   2
BRANCH   1  10
ATOM     10  C   UNL     1      34.477 -21.558 -19.439  0.00  0.00    +0.005 C 
BRANCH  10  11
ATOM     11  C   UNL     1      34.358 -22.538 -18.270  0.00  0.00    +0.000 C 
BRANCH  11  12
ATOM     12  C   UNL     1      32.893 -22.778 -17.893  0.00  0.00    +0.000 C 
BRANCH  12  13
ATOM     13  C   UNL     1      32.773 -23.361 -16.483  0.00  0.00    +0.003 C 
BRANCH  13  14
ATOM     14  C   UNL     1      31.536 -22.868 -15.725  0.00  0.00    +0.032 C 
BRANCH  14  15
ATOM     15  C   UNL     1      30.210 -23.386 -16.272  0.00  0.00    +0.137 C 
BRANCH  15  16
ATOM     16  O   UNL     1      29.552 -22.362 -17.004  0.00  0.00    -0.382 OA
ATOM     17  H   UNL     1      28.604 -22.559 -17.054  0.00  0.00    +0.210 HD
ENDBRANCH  15  16
ENDBRANCH  14  15
ENDBRANCH  13  14
ENDBRANCH  12  13
ENDBRANCH  11  12
ENDBRANCH  10  11
ENDBRANCH   1  10
TORSDOF 12
ENDMDL
MODEL 7
REMARK VINA RESULT:      -6.4      3.434      7.778
REMARK  Name = 79034
REMARK  12 active torsions:
REMARK  status: ('A' for Active; 'I' for Inactive)
REMARK    1  A    between atoms: C_1  and  C_2
REMARK    2  A    between atoms: C_1  and  C_10
REMARK    3  A    between atoms: C_2  and  C_3
REMARK    4  A    between atoms: C_3  and  C_4
REMARK    5  A    between atoms: C_4  and  C_5
REMARK    6  A    between atoms: C_5  and  C_6
REMARK    7  A    between atoms: C_6  and  C_7
REMARK    8  A    between atoms: C_7  and  O_8
REMARK    9  A    between atoms: C_11  and  C_12
REMARK   10  A    between atoms: C_12  and  C_13
REMARK   11  A    between atoms: C_13  and  C_15
REMARK   12  A    between atoms: C_15  and  O_16
REMARK                            x       y       z     vdW  Elec       q    Type
REMARK                         _______ _______ _______ _____ _____    ______ ____
ROOT
ATOM      1  C   UNL     1      34.624 -15.766 -20.692  0.00  0.00    +0.026 C 
ENDROOT
BRANCH   1   2
ATOM      2  C   UNL     1      34.198 -17.184 -21.084  0.00  0.00    -0.031 C 
ATOM      3  C   UNL     1      35.315 -18.233 -21.102  0.00  0.00    -0.030 C 
BRANCH   3   4
ATOM      4  C   UNL     1      34.878 -19.666 -21.426  0.00  0.00    +0.037 C 
BRANCH   4   5
ATOM      5  C   UNL     1      34.751 -20.587 -20.215  0.00  0.00    +0.114 C 
BRANCH   5   7
ATOM      6  O   UNL     1      33.037 -22.102 -19.426  0.00  0.00    -0.250 OA
ATOM      7  C   UNL     1      33.341 -21.068 -20.002  0.00  0.00    +0.314 C 
BRANCH   7   8
ATOM      8  O   UNL     1      32.442 -20.202 -20.532  0.00  0.00    -0.480 OA
ATOM      9  H   UNL     1      32.457 -20.015 -21.450  0.00  0.00    +0.295 HD
ENDBRANCH   7   8
ENDBRANCH   5   7
ENDBRANCH   4   5
ENDBRANCH   3   4
ENDBRANCH   1   2
BRANCH   1  10
ATOM     10  C   UNL     1      33.448 -14.799 -20.537  0.00  0.00    +0.005 C 
BRANCH  10  11
ATOM     11  C   UNL     1      32.603 -14.746 -21.813  0.00  0.00    +0.000 C 
BRANCH  11  12
ATOM     12  C   UNL     1      32.971 -13.533 -22.672  0.00  0.00    +0.000 C 
BRANCH  12  13
ATOM     13  C   UNL     1      33.888 -13.934 -23.831  0.00  0.00    +0.003 C 
BRANCH  13  14
ATOM     14  C   UNL     1      33.559 -15.313 -24.415  0.00  0.00    +0.032 C 
BRANCH  14  15
ATOM     15  C   UNL     1      34.753 -16.255 -24.526  0.00  0.00    +0.137 C 
BRANCH  15  16
ATOM     16  O   UNL     1      34.806 -16.822 -25.827  0.00  0.00    -0.382 OA
ATOM     17  H   UNL     1      35.480 -16.362 -26.352  0.00  0.00    +0.210 HD
ENDBRANCH  15  16
ENDBRANCH  14  15
ENDBRANCH  13  14
ENDBRANCH  12  13
ENDBRANCH  11  12
ENDBRANCH  10  11
ENDBRANCH   1  10
TORSDOF 12
ENDMDL
MODEL 8
REMARK VINA RESULT:      -6.4      3.502      7.844
REMARK  Name = 79034
REMARK  12 active torsions:
REMARK  status: ('A' for Active; 'I' for Inactive)
REMARK    1  A    between atoms: C_1  and  C_2
REMARK    2  A    between atoms: C_1  and  C_10
REMARK    3  A    between atoms: C_2  and  C_3
REMARK    4  A    between atoms: C_3  and  C_4
REMARK    5  A    between atoms: C_4  and  C_5
REMARK    6  A    between atoms: C_5  and  C_6
REMARK    7  A    between atoms: C_6  and  C_7
REMARK    8  A    between atoms: C_7  and  O_8
REMARK    9  A    between atoms: C_11  and  C_12
REMARK   10  A    between atoms: C_12  and  C_13
REMARK   11  A    between atoms: C_13  and  C_15
REMARK   12  A    between atoms: C_15  and  O_16
REMARK                            x       y       z     vdW  Elec       q    Type
REMARK                         _______ _______ _______ _____ _____    ______ ____
ROOT
ATOM      1  C   UNL     1      35.822 -18.304 -22.215  0.00  0.00    +0.026 C 
ENDROOT
BRANCH   1   2
ATOM      2  C   UNL     1      35.232 -19.409 -21.335  0.00  0.00    -0.031 C 
ATOM      3  C   UNL     1      33.717 -19.345 -21.112  0.00  0.00    -0.030 C 
BRANCH   3   4
ATOM      4  C   UNL     1      33.115 -20.489 -20.290  0.00  0.00    +0.037 C 
BRANCH   4   5
ATOM      5  C   UNL     1      34.136 -21.407 -19.623  0.00  0.00    +0.114 C 
BRANCH   5   7
ATOM      6  O   UNL     1      32.326 -22.331 -18.308  0.00  0.00    -0.250 OA
ATOM      7  C   UNL     1      33.506 -22.343 -18.627  0.00  0.00    +0.314 C 
BRANCH   7   8
ATOM      8  O   UNL     1      34.419 -23.210 -18.124  0.00  0.00    -0.480 OA
ATOM      9  H   UNL     1      34.204 -23.736 -17.378  0.00  0.00    +0.295 HD
ENDBRANCH   7   8
ENDBRANCH   5   7
ENDBRANCH   4   5
ENDBRANCH   3   4
ENDBRANCH   1   2
BRANCH   1  10
ATOM     10  C   UNL     1      34.762 -17.418 -22.873  0.00  0.00    +0.005 C 
BRANCH  10  11
ATOM     11  C   UNL     1      34.869 -15.971 -22.386  0.00  0.00    +0.000 C 
BRANCH  11  12
ATOM     12  C   UNL     1      34.355 -15.828 -20.951  0.00  0.00    +0.000 C 
BRANCH  12  13
ATOM     13  C   UNL     1      32.883 -15.411 -20.930  0.00  0.00    +0.003 C 
BRANCH  13  14
ATOM     14  C   UNL     1      32.679 -13.920 -20.635  0.00  0.00    +0.032 C 
BRANCH  14  15
ATOM     15  C   UNL     1      32.114 -13.115 -21.800  0.00  0.00    +0.137 C 
BRANCH  15  16
ATOM     16  O   UNL     1      31.981 -13.944 -22.945  0.00  0.00    -0.382 OA
ATOM     17  H   UNL     1      31.881 -13.390 -23.735  0.00  0.00    +0.210 HD
ENDBRANCH  15  16
ENDBRANCH  14  15
ENDBRANCH  13  14
ENDBRANCH  12  13
ENDBRANCH  11  12
ENDBRANCH  10  11
ENDBRANCH   1  10
TORSDOF 12
ENDMDL
MODEL 9
REMARK VINA RESULT:      -6.4      1.477      2.253
REMARK  Name = 79034
REMARK  12 active torsions:
REMARK  status: ('A' for Active; 'I' for Inactive)
REMARK    1  A    between atoms: C_1  and  C_2
REMARK    2  A    between atoms: C_1  and  C_10
REMARK    3  A    between atoms: C_2  and  C_3
REMARK    4  A    between atoms: C_3  and  C_4
REMARK    5  A    between atoms: C_4  and  C_5
REMARK    6  A    between atoms: C_5  and  C_6
REMARK    7  A    between atoms: C_6  and  C_7
REMARK    8  A    between atoms: C_7  and  O_8
REMARK    9  A    between atoms: C_11  and  C_12
REMARK   10  A    between atoms: C_12  and  C_13
REMARK   11  A    between atoms: C_13  and  C_15
REMARK   12  A    between atoms: C_15  and  O_16
REMARK                            x       y       z     vdW  Elec       q    Type
REMARK                         _______ _______ _______ _____ _____    ______ ____
ROOT
ATOM      1  C   UNL     1      34.695 -19.669 -21.607  0.00  0.00    +0.026 C 
ENDROOT
BRANCH   1   2
ATOM      2  C   UNL     1      34.612 -18.517 -22.614  0.00  0.00    -0.031 C 
ATOM      3  C   UNL     1      34.776 -18.908 -24.086  0.00  0.00    -0.030 C 
BRANCH   3   4
ATOM      4  C   UNL     1      34.624 -17.767 -25.099  0.00  0.00    +0.037 C 
BRANCH   4   5
ATOM      5  C   UNL     1      34.372 -16.393 -24.485  0.00  0.00    +0.114 C 
BRANCH   5   7
ATOM      6  O   UNL     1      33.413 -15.678 -26.590  0.00  0.00    -0.250 OA
ATOM      7  C   UNL     1      33.576 -15.493 -25.392  0.00  0.00    +0.314 C 
BRANCH   7   8
ATOM      8  O   UNL     1      33.056 -14.444 -24.709  0.00  0.00    -0.480 OA
ATOM      9  H   UNL     1      32.164 -14.190 -24.849  0.00  0.00    +0.295 HD
ENDBRANCH   7   8
ENDBRANCH   5   7
ENDBRANCH   4   5
ENDBRANCH   3   4
ENDBRANCH   1   2
BRANCH   1  10
ATOM     10  C   UNL     1      33.430 -19.828 -20.760  0.00  0.00    +0.005 C 
BRANCH  10  11
ATOM     11  C   UNL     1      33.541 -21.032 -19.821  0.00  0.00    +0.000 C 
BRANCH  11  12
ATOM     12  C   UNL     1      34.983 -21.540 -19.737  0.00  0.00    +0.000 C 
BRANCH  12  13
ATOM     13  C   UNL     1      35.304 -22.060 -18.333  0.00  0.00    +0.003 C 
BRANCH  13  14
ATOM     14  C   UNL     1      36.703 -21.666 -17.846  0.00  0.00    +0.032 C 
BRANCH  14  15
ATOM     15  C   UNL     1      37.073 -22.212 -16.471  0.00  0.00    +0.137 C 
BRANCH  15  16
ATOM     16  O   UNL     1      36.308 -23.374 -16.188  0.00  0.00    -0.382 OA
ATOM     17  H   UNL     1      36.636 -23.785 -15.372  0.00  0.00    +0.210 HD
ENDBRANCH  15  16
ENDBRANCH  14  15
ENDBRANCH  13  14
ENDBRANCH  12  13
ENDBRANCH  11  12
ENDBRANCH  10  11
ENDBRANCH   1  10
TORSDOF 12
ENDMDL
