MODEL 1
REMARK VINA RESULT:      -7.0      0.000      0.000
REMARK  Name = 439940
REMARK  5 active torsions:
REMARK  status: ('A' for Active; 'I' for Inactive)
REMARK    1  A    between atoms: C_1  and  C_9
REMARK    2  A    between atoms: C_6  and  O_7
REMARK    3  A    between atoms: C_9  and  O_10
REMARK    4  A    between atoms: C_9  and  C_13
REMARK    5  A    between atoms: C_13  and  O_14
REMARK                            x       y       z     vdW  Elec       q    Type
REMARK                         _______ _______ _______ _____ _____    ______ ____
ROOT
ATOM      1  C   UNL     1      37.426 -23.898 -12.917  0.00  0.00    +0.015 C 
ATOM      2  C   UNL     1      38.383 -24.824 -12.502  0.00  0.00    +0.002 C 
ATOM      3  C   UNL     1      37.287 -23.598 -14.273  0.00  0.00    +0.002 C 
ATOM      4  C   UNL     1      39.200 -25.451 -13.443  0.00  0.00    +0.036 C 
ATOM      5  C   UNL     1      38.104 -24.225 -15.213  0.00  0.00    +0.036 C 
ATOM      6  C   UNL     1      39.061 -25.151 -14.798  0.00  0.00    +0.134 C 
ENDROOT
BRANCH   6   7
ATOM      7  O   UNL     1      39.859 -25.762 -15.715  0.00  0.00    -0.506 OA
ATOM      8  H   UNL     1      40.266 -25.259 -16.392  0.00  0.00    +0.292 HD
ENDBRANCH   6   7
BRANCH   1   9
ATOM      9  C   UNL     1      36.552 -23.228 -11.912  0.00  0.00    +0.232 C 
BRANCH   9  10
ATOM     10  O   UNL     1      37.324 -22.340 -11.108  0.00  0.00    -0.371 OA
ATOM     11  H   UNL     1      36.734 -21.736 -10.633  0.00  0.00    +0.211 HD
ENDBRANCH   9  10
BRANCH   9  13
ATOM     12  O   UNL     1      36.004 -24.300  -9.791  0.00  0.00    -0.247 OA
ATOM     13  C   UNL     1      35.821 -24.208 -10.998  0.00  0.00    +0.345 C 
BRANCH  13  14
ATOM     14  O   UNL     1      34.950 -25.007 -11.668  0.00  0.00    -0.478 OA
ATOM     15  H   UNL     1      34.328 -25.523 -11.195  0.00  0.00    +0.295 HD
ENDBRANCH  13  14
ENDBRANCH   9  13
ENDBRANCH   1   9
TORSDOF 5
ENDMDL
MODEL 2
REMARK VINA RESULT:      -6.8      9.173     10.921
REMARK  Name = 439940
REMARK  5 active torsions:
REMARK  status: ('A' for Active; 'I' for Inactive)
REMARK    1  A    between atoms: C_1  and  C_9
REMARK    2  A    between atoms: C_6  and  O_7
REMARK    3  A    between atoms: C_9  and  O_10
REMARK    4  A    between atoms: C_9  and  C_13
REMARK    5  A    between atoms: C_13  and  O_14
REMARK                            x       y       z     vdW  Elec       q    Type
REMARK                         _______ _______ _______ _____ _____    ______ ____
ROOT
ATOM      1  C   UNL     1      34.932 -19.447 -21.038  0.00  0.00    +0.015 C 
ATOM      2  C   UNL     1      33.540 -19.403 -20.962  0.00  0.00    +0.002 C 
ATOM      3  C   UNL     1      35.634 -20.464 -20.391  0.00  0.00    +0.002 C 
ATOM      4  C   UNL     1      32.850 -20.378 -20.241  0.00  0.00    +0.036 C 
ATOM      5  C   UNL     1      34.945 -21.438 -19.670  0.00  0.00    +0.036 C 
ATOM      6  C   UNL     1      33.552 -21.395 -19.594  0.00  0.00    +0.134 C 
ENDROOT
BRANCH   6   7
ATOM      7  O   UNL     1      32.879 -22.344 -18.890  0.00  0.00    -0.506 OA
ATOM      8  H   UNL     1      31.947 -22.409 -18.962  0.00  0.00    +0.292 HD
ENDBRANCH   6   7
BRANCH   1   9
ATOM      9  C   UNL     1      35.669 -18.405 -21.809  0.00  0.00    +0.232 C 
BRANCH   9  10
ATOM     10  O   UNL     1      35.355 -17.111 -21.305  0.00  0.00    -0.371 OA
ATOM     11  H   UNL     1      34.512 -16.813 -21.680  0.00  0.00    +0.211 HD
ENDBRANCH   9  10
BRANCH   9  13
ATOM     12  O   UNL     1      35.056 -19.442 -23.929  0.00  0.00    -0.247 OA
ATOM     13  C   UNL     1      35.369 -18.437 -23.305  0.00  0.00    +0.345 C 
BRANCH  13  14
ATOM     14  O   UNL     1      35.510 -17.222 -23.898  0.00  0.00    -0.478 OA
ATOM     15  H   UNL     1      35.699 -17.167 -24.814  0.00  0.00    +0.295 HD
ENDBRANCH  13  14
ENDBRANCH   9  13
ENDBRANCH   1   9
TORSDOF 5
ENDMDL
MODEL 3
REMARK VINA RESULT:      -6.8      8.640     10.223
REMARK  Name = 439940
REMARK  5 active torsions:
REMARK  status: ('A' for Active; 'I' for Inactive)
REMARK    1  A    between atoms: C_1  and  C_9
REMARK    2  A    between atoms: C_6  and  O_7
REMARK    3  A    between atoms: C_9  and  O_10
REMARK    4  A    between atoms: C_9  and  C_13
REMARK    5  A    between atoms: C_13  and  O_14
REMARK                            x       y       z     vdW  Elec       q    Type
REMARK                         _______ _______ _______ _____ _____    ______ ____
ROOT
ATOM      1  C   UNL     1      34.439 -19.858 -20.921  0.00  0.00    +0.015 C 
ATOM      2  C   UNL     1      33.289 -20.386 -20.334  0.00  0.00    +0.002 C 
ATOM      3  C   UNL     1      35.694 -20.360 -20.574  0.00  0.00    +0.002 C 
ATOM      4  C   UNL     1      33.394 -21.417 -19.400  0.00  0.00    +0.036 C 
ATOM      5  C   UNL     1      35.798 -21.391 -19.640  0.00  0.00    +0.036 C 
ATOM      6  C   UNL     1      34.648 -21.919 -19.053  0.00  0.00    +0.134 C 
ENDROOT
BRANCH   6   7
ATOM      7  O   UNL     1      34.749 -22.924 -18.141  0.00  0.00    -0.506 OA
ATOM      8  H   UNL     1      34.048 -23.537 -18.040  0.00  0.00    +0.292 HD
ENDBRANCH   6   7
BRANCH   1   9
ATOM      9  C   UNL     1      34.328 -18.756 -21.920  0.00  0.00    +0.232 C 
BRANCH   9  10
ATOM     10  O   UNL     1      34.633 -19.246 -23.223  0.00  0.00    -0.371 OA
ATOM     11  H   UNL     1      33.855 -19.154 -23.794  0.00  0.00    +0.211 HD
ENDBRANCH   9  10
BRANCH   9  13
ATOM     12  O   UNL     1      35.328 -17.027 -20.522  0.00  0.00    -0.247 OA
ATOM     13  C   UNL     1      35.239 -17.570 -21.614  0.00  0.00    +0.345 C 
BRANCH  13  14
ATOM     14  O   UNL     1      35.937 -17.147 -22.701  0.00  0.00    -0.478 OA
ATOM     15  H   UNL     1      36.840 -16.908 -22.614  0.00  0.00    +0.295 HD
ENDBRANCH  13  14
ENDBRANCH   9  13
ENDBRANCH   1   9
TORSDOF 5
ENDMDL
MODEL 4
REMARK VINA RESULT:      -6.8      8.642     10.192
REMARK  Name = 439940
REMARK  5 active torsions:
REMARK  status: ('A' for Active; 'I' for Inactive)
REMARK    1  A    between atoms: C_1  and  C_9
REMARK    2  A    between atoms: C_6  and  O_7
REMARK    3  A    between atoms: C_9  and  O_10
REMARK    4  A    between atoms: C_9  and  C_13
REMARK    5  A    between atoms: C_13  and  O_14
REMARK                            x       y       z     vdW  Elec       q    Type
REMARK                         _______ _______ _______ _____ _____    ______ ____
ROOT
ATOM      1  C   UNL     1      34.440 -19.860 -20.926  0.00  0.00    +0.015 C 
ATOM      2  C   UNL     1      35.694 -20.364 -20.578  0.00  0.00    +0.002 C 
ATOM      3  C   UNL     1      33.289 -20.385 -20.339  0.00  0.00    +0.002 C 
ATOM      4  C   UNL     1      35.796 -21.391 -19.640  0.00  0.00    +0.036 C 
ATOM      5  C   UNL     1      33.392 -21.413 -19.401  0.00  0.00    +0.036 C 
ATOM      6  C   UNL     1      34.645 -21.916 -19.053  0.00  0.00    +0.134 C 
ENDROOT
BRANCH   6   7
ATOM      7  O   UNL     1      34.745 -22.919 -18.139  0.00  0.00    -0.506 OA
ATOM      8  H   UNL     1      34.030 -23.101 -17.561  0.00  0.00    +0.292 HD
ENDBRANCH   6   7
BRANCH   1   9
ATOM      9  C   UNL     1      34.331 -18.761 -21.929  0.00  0.00    +0.232 C 
BRANCH   9  10
ATOM     10  O   UNL     1      34.641 -19.254 -23.229  0.00  0.00    -0.371 OA
ATOM     11  H   UNL     1      35.507 -19.689 -23.213  0.00  0.00    +0.211 HD
ENDBRANCH   9  10
BRANCH   9  13
ATOM     12  O   UNL     1      35.330 -17.031 -20.531  0.00  0.00    -0.247 OA
ATOM     13  C   UNL     1      35.240 -17.574 -21.624  0.00  0.00    +0.345 C 
BRANCH  13  14
ATOM     14  O   UNL     1      35.936 -17.148 -22.710  0.00  0.00    -0.478 OA
ATOM     15  H   UNL     1      35.944 -17.663 -23.493  0.00  0.00    +0.295 HD
ENDBRANCH  13  14
ENDBRANCH   9  13
ENDBRANCH   1   9
TORSDOF 5
ENDMDL
MODEL 5
REMARK VINA RESULT:      -6.5      1.791      2.413
REMARK  Name = 439940
REMARK  5 active torsions:
REMARK  status: ('A' for Active; 'I' for Inactive)
REMARK    1  A    between atoms: C_1  and  C_9
REMARK    2  A    between atoms: C_6  and  O_7
REMARK    3  A    between atoms: C_9  and  O_10
REMARK    4  A    between atoms: C_9  and  C_13
REMARK    5  A    between atoms: C_13  and  O_14
REMARK                            x       y       z     vdW  Elec       q    Type
REMARK                         _______ _______ _______ _____ _____    ______ ____
ROOT
ATOM      1  C   UNL     1      36.759 -24.737 -13.064  0.00  0.00    +0.015 C 
ATOM      2  C   UNL     1      35.890 -24.542 -14.138  0.00  0.00    +0.002 C 
ATOM      3  C   UNL     1      37.657 -25.805 -13.078  0.00  0.00    +0.002 C 
ATOM      4  C   UNL     1      35.920 -25.414 -15.226  0.00  0.00    +0.036 C 
ATOM      5  C   UNL     1      37.686 -26.677 -14.166  0.00  0.00    +0.036 C 
ATOM      6  C   UNL     1      36.817 -26.482 -15.239  0.00  0.00    +0.134 C 
ENDROOT
BRANCH   6   7
ATOM      7  O   UNL     1      36.845 -27.333 -16.301  0.00  0.00    -0.506 OA
ATOM      8  H   UNL     1      37.213 -28.189 -16.205  0.00  0.00    +0.292 HD
ENDBRANCH   6   7
BRANCH   1   9
ATOM      9  C   UNL     1      36.728 -23.804 -11.901  0.00  0.00    +0.232 C 
BRANCH   9  10
ATOM     10  O   UNL     1      38.053 -23.551 -11.442  0.00  0.00    -0.371 OA
ATOM     11  H   UNL     1      38.366 -22.708 -11.803  0.00  0.00    +0.211 HD
ENDBRANCH   9  10
BRANCH   9  13
ATOM     12  O   UNL     1      34.928 -25.066 -10.845  0.00  0.00    -0.247 OA
ATOM     13  C   UNL     1      35.894 -24.324 -10.732  0.00  0.00    +0.345 C 
BRANCH  13  14
ATOM     14  O   UNL     1      36.318 -23.853  -9.530  0.00  0.00    -0.478 OA
ATOM     15  H   UNL     1      37.032 -24.270  -9.089  0.00  0.00    +0.295 HD
ENDBRANCH  13  14
ENDBRANCH   9  13
ENDBRANCH   1   9
TORSDOF 5
ENDMDL
MODEL 6
REMARK VINA RESULT:      -6.4      0.897      2.028
REMARK  Name = 439940
REMARK  5 active torsions:
REMARK  status: ('A' for Active; 'I' for Inactive)
REMARK    1  A    between atoms: C_1  and  C_9
REMARK    2  A    between atoms: C_6  and  O_7
REMARK    3  A    between atoms: C_9  and  O_10
REMARK    4  A    between atoms: C_9  and  C_13
REMARK    5  A    between atoms: C_13  and  O_14
REMARK                            x       y       z     vdW  Elec       q    Type
REMARK                         _______ _______ _______ _____ _____    ______ ____
ROOT
ATOM      1  C   UNL     1      37.310 -24.554 -13.244  0.00  0.00    +0.015 C 
ATOM      2  C   UNL     1      37.438 -23.934 -14.488  0.00  0.00    +0.002 C 
ATOM      3  C   UNL     1      38.222 -25.536 -12.857  0.00  0.00    +0.002 C 
ATOM      4  C   UNL     1      38.479 -24.296 -15.343  0.00  0.00    +0.036 C 
ATOM      5  C   UNL     1      39.263 -25.897 -13.712  0.00  0.00    +0.036 C 
ATOM      6  C   UNL     1      39.391 -25.278 -14.955  0.00  0.00    +0.134 C 
ENDROOT
BRANCH   6   7
ATOM      7  O   UNL     1      40.405 -25.630 -15.790  0.00  0.00    -0.506 OA
ATOM      8  H   UNL     1      41.239 -25.210 -15.719  0.00  0.00    +0.292 HD
ENDBRANCH   6   7
BRANCH   1   9
ATOM      9  C   UNL     1      36.197 -24.167 -12.329  0.00  0.00    +0.232 C 
BRANCH   9  10
ATOM     10  O   UNL     1      35.312 -23.267 -12.991  0.00  0.00    -0.371 OA
ATOM     11  H   UNL     1      34.398 -23.473 -12.745  0.00  0.00    +0.211 HD
ENDBRANCH   9  10
BRANCH   9  13
ATOM     12  O   UNL     1      36.447 -23.951  -9.913  0.00  0.00    -0.247 OA
ATOM     13  C   UNL     1      36.679 -23.518 -11.034  0.00  0.00    +0.345 C 
BRANCH  13  14
ATOM     14  O   UNL     1      37.381 -22.374 -11.245  0.00  0.00    -0.478 OA
ATOM     15  H   UNL     1      37.891 -22.274 -12.025  0.00  0.00    +0.295 HD
ENDBRANCH  13  14
ENDBRANCH   9  13
ENDBRANCH   1   9
TORSDOF 5
ENDMDL
MODEL 7
REMARK VINA RESULT:      -6.3      9.628     10.921
REMARK  Name = 439940
REMARK  5 active torsions:
REMARK  status: ('A' for Active; 'I' for Inactive)
REMARK    1  A    between atoms: C_1  and  C_9
REMARK    2  A    between atoms: C_6  and  O_7
REMARK    3  A    between atoms: C_9  and  O_10
REMARK    4  A    between atoms: C_9  and  C_13
REMARK    5  A    between atoms: C_13  and  O_14
REMARK                            x       y       z     vdW  Elec       q    Type
REMARK                         _______ _______ _______ _____ _____    ______ ____
ROOT
ATOM      1  C   UNL     1      34.908 -18.410 -21.450  0.00  0.00    +0.015 C 
ATOM      2  C   UNL     1      36.208 -18.811 -21.142  0.00  0.00    +0.002 C 
ATOM      3  C   UNL     1      33.824 -19.200 -21.067  0.00  0.00    +0.002 C 
ATOM      4  C   UNL     1      36.424 -20.002 -20.449  0.00  0.00    +0.036 C 
ATOM      5  C   UNL     1      34.041 -20.391 -20.375  0.00  0.00    +0.036 C 
ATOM      6  C   UNL     1      35.340 -20.793 -20.067  0.00  0.00    +0.134 C 
ENDROOT
BRANCH   6   7
ATOM      7  O   UNL     1      35.552 -21.956 -19.392  0.00  0.00    -0.506 OA
ATOM      8  H   UNL     1      36.425 -22.228 -19.190  0.00  0.00    +0.292 HD
ENDBRANCH   6   7
BRANCH   1   9
ATOM      9  C   UNL     1      34.677 -17.135 -22.189  0.00  0.00    +0.232 C 
BRANCH   9  10
ATOM     10  O   UNL     1      35.849 -16.772 -22.913  0.00  0.00    -0.371 OA
ATOM     11  H   UNL     1      36.274 -16.014 -22.483  0.00  0.00    +0.211 HD
ENDBRANCH   9  10
BRANCH   9  13
ATOM     12  O   UNL     1      34.917 -15.610 -20.302  0.00  0.00    -0.247 OA
ATOM     13  C   UNL     1      34.280 -15.974 -21.282  0.00  0.00    +0.345 C 
BRANCH  13  14
ATOM     14  O   UNL     1      33.113 -15.387 -21.655  0.00  0.00    -0.478 OA
ATOM     15  H   UNL     1      32.867 -14.559 -21.290  0.00  0.00    +0.295 HD
ENDBRANCH  13  14
ENDBRANCH   9  13
ENDBRANCH   1   9
TORSDOF 5
ENDMDL
MODEL 8
REMARK VINA RESULT:      -6.2      2.072      2.601
REMARK  Name = 439940
REMARK  5 active torsions:
REMARK  status: ('A' for Active; 'I' for Inactive)
REMARK    1  A    between atoms: C_1  and  C_9
REMARK    2  A    between atoms: C_6  and  O_7
REMARK    3  A    between atoms: C_9  and  O_10
REMARK    4  A    between atoms: C_9  and  C_13
REMARK    5  A    between atoms: C_13  and  O_14
REMARK                            x       y       z     vdW  Elec       q    Type
REMARK                         _______ _______ _______ _____ _____    ______ ____
ROOT
ATOM      1  C   UNL     1      36.475 -25.099 -12.982  0.00  0.00    +0.015 C 
ATOM      2  C   UNL     1      37.286 -26.233 -13.030  0.00  0.00    +0.002 C 
ATOM      3  C   UNL     1      35.740 -24.719 -14.105  0.00  0.00    +0.002 C 
ATOM      4  C   UNL     1      37.360 -26.989 -14.199  0.00  0.00    +0.036 C 
ATOM      5  C   UNL     1      35.813 -25.475 -15.275  0.00  0.00    +0.036 C 
ATOM      6  C   UNL     1      36.624 -26.609 -15.322  0.00  0.00    +0.134 C 
ENDROOT
BRANCH   6   7
ATOM      7  O   UNL     1      36.698 -27.346 -16.464  0.00  0.00    -0.506 OA
ATOM      8  H   UNL     1      37.496 -27.781 -16.690  0.00  0.00    +0.292 HD
ENDBRANCH   6   7
BRANCH   1   9
ATOM      9  C   UNL     1      36.396 -24.291 -11.731  0.00  0.00    +0.232 C 
BRANCH   9  10
ATOM     10  O   UNL     1      35.163 -23.578 -11.688  0.00  0.00    -0.371 OA
ATOM     11  H   UNL     1      34.843 -23.430 -12.591  0.00  0.00    +0.211 HD
ENDBRANCH   9  10
BRANCH   9  13
ATOM     12  O   UNL     1      38.727 -23.578 -11.716  0.00  0.00    -0.247 OA
ATOM     13  C   UNL     1      37.544 -23.297 -11.580  0.00  0.00    +0.345 C 
BRANCH  13  14
ATOM     14  O   UNL     1      37.122 -22.050 -11.245  0.00  0.00    -0.478 OA
ATOM     15  H   UNL     1      37.036 -21.391 -11.906  0.00  0.00    +0.295 HD
ENDBRANCH  13  14
ENDBRANCH   9  13
ENDBRANCH   1   9
TORSDOF 5
ENDMDL
MODEL 9
REMARK VINA RESULT:      -6.1     18.108     18.977
REMARK  Name = 439940
REMARK  5 active torsions:
REMARK  status: ('A' for Active; 'I' for Inactive)
REMARK    1  A    between atoms: C_1  and  C_9
REMARK    2  A    between atoms: C_6  and  O_7
REMARK    3  A    between atoms: C_9  and  O_10
REMARK    4  A    between atoms: C_9  and  C_13
REMARK    5  A    between atoms: C_13  and  O_14
REMARK                            x       y       z     vdW  Elec       q    Type
REMARK                         _______ _______ _______ _____ _____    ______ ____
ROOT
ATOM      1  C   UNL     1      32.955  -8.297 -22.448  0.00  0.00    +0.015 C 
ATOM      2  C   UNL     1      32.707  -9.608 -22.854  0.00  0.00    +0.002 C 
ATOM      3  C   UNL     1      34.069  -7.613 -22.938  0.00  0.00    +0.002 C 
ATOM      4  C   UNL     1      33.572 -10.235 -23.751  0.00  0.00    +0.036 C 
ATOM      5  C   UNL     1      34.933  -8.241 -23.834  0.00  0.00    +0.036 C 
ATOM      6  C   UNL     1      34.685  -9.552 -24.240  0.00  0.00    +0.134 C 
ENDROOT
BRANCH   6   7
ATOM      7  O   UNL     1      35.529 -10.165 -25.114  0.00  0.00    -0.506 OA
ATOM      8  H   UNL     1      35.205 -10.828 -25.691  0.00  0.00    +0.292 HD
ENDBRANCH   6   7
BRANCH   1   9
ATOM      9  C   UNL     1      32.030  -7.625 -21.490  0.00  0.00    +0.232 C 
BRANCH   9  10
ATOM     10  O   UNL     1      32.097  -6.212 -21.657  0.00  0.00    -0.371 OA
ATOM     11  H   UNL     1      31.602  -5.778 -20.945  0.00  0.00    +0.211 HD
ENDBRANCH   9  10
BRANCH   9  13
ATOM     12  O   UNL     1      31.850  -8.917 -19.430  0.00  0.00    -0.247 OA
ATOM     13  C   UNL     1      32.324  -7.962 -20.031  0.00  0.00    +0.345 C 
BRANCH  13  14
ATOM     14  O   UNL     1      33.159  -7.067 -19.440  0.00  0.00    -0.478 OA
ATOM     15  H   UNL     1      32.917  -6.666 -18.628  0.00  0.00    +0.295 HD
ENDBRANCH  13  14
ENDBRANCH   9  13
ENDBRANCH   1   9
TORSDOF 5
ENDMDL
