MODEL 1
REMARK VINA RESULT:      -8.5      0.000      0.000
REMARK  Name = 4197
REMARK  2 active torsions:
REMARK  status: ('A' for Active; 'I' for Inactive)
REMARK    1  A    between atoms: C_3  and  C_11
REMARK    2  A    between atoms: C_6  and  C_17
REMARK                            x       y       z     vdW  Elec       q    Type
REMARK                         _______ _______ _______ _____ _____    ______ ____
ROOT
ATOM      1  O   UNL     1      33.810 -15.477 -26.239  0.00  0.00    -0.269 OA
ATOM      2  N   UNL     1      34.333 -17.554 -25.403  0.00  0.00    -0.283 N 
ATOM      3  C   UNL     1      34.789 -17.891 -23.109  0.00  0.00    +0.010 C 
ATOM      4  C   UNL     1      34.667 -18.396 -24.358  0.00  0.00    +0.028 C 
ATOM      5  C   UNL     1      34.563 -16.466 -22.907  0.00  0.00    +0.016 C 
ATOM      6  C   UNL     1      34.239 -15.634 -23.908  0.00  0.00    +0.122 C 
ATOM      7  C   UNL     1      34.860 -19.833 -24.756  0.00  0.00    +0.047 C 
ATOM      8  C   UNL     1      34.106 -16.195 -25.286  0.00  0.00    +0.259 C 
ATOM      9  H   UNL     1      34.251 -17.953 -26.300  0.00  0.00    +0.155 HD
ENDROOT
BRANCH   3  11
ATOM     10  N   UNL     1      35.811 -20.425 -19.853  0.00  0.00    -0.242 NA
ATOM     11  C   UNL     1      35.140 -18.761 -21.991  0.00  0.00    +0.004 C 
ATOM     12  C   UNL     1      34.167 -19.553 -21.398  0.00  0.00    +0.021 C 
ATOM     13  C   UNL     1      36.446 -18.795 -21.522  0.00  0.00    +0.021 C 
ATOM     14  C   UNL     1      34.551 -20.362 -20.339  0.00  0.00    +0.099 C 
ATOM     15  C   UNL     1      36.728 -19.637 -20.459  0.00  0.00    +0.099 C 
ENDBRANCH   3  11
BRANCH   6  17
ATOM     16  N   UNL     1      33.853 -13.118 -23.478  0.00  0.00    -0.191 NA
ATOM     17  C   UNL     1      34.026 -14.249 -23.671  0.00  0.00    +0.105 C 
ENDBRANCH   6  17
TORSDOF 2
ENDMDL
MODEL 2
REMARK VINA RESULT:      -8.0      2.906      6.121
REMARK  Name = 4197
REMARK  2 active torsions:
REMARK  status: ('A' for Active; 'I' for Inactive)
REMARK    1  A    between atoms: C_3  and  C_11
REMARK    2  A    between atoms: C_6  and  C_17
REMARK                            x       y       z     vdW  Elec       q    Type
REMARK                         _______ _______ _______ _____ _____    ______ ____
ROOT
ATOM      1  O   UNL     1      36.216 -21.789 -18.539  0.00  0.00    -0.269 OA
ATOM      2  N   UNL     1      36.821 -20.282 -20.168  0.00  0.00    -0.283 N 
ATOM      3  C   UNL     1      35.222 -19.285 -21.595  0.00  0.00    +0.010 C 
ATOM      4  C   UNL     1      36.511 -19.425 -21.209  0.00  0.00    +0.028 C 
ATOM      5  C   UNL     1      34.197 -20.049 -20.894  0.00  0.00    +0.016 C 
ATOM      6  C   UNL     1      34.478 -20.884 -19.884  0.00  0.00    +0.122 C 
ATOM      7  C   UNL     1      37.698 -18.724 -21.808  0.00  0.00    +0.047 C 
ATOM      8  C   UNL     1      35.903 -21.037 -19.461  0.00  0.00    +0.259 C 
ATOM      9  H   UNL     1      37.769 -20.361 -19.911  0.00  0.00    +0.155 HD
ENDROOT
BRANCH   3  11
ATOM     10  N   UNL     1      34.203 -16.670 -24.785  0.00  0.00    -0.242 NA
ATOM     11  C   UNL     1      34.872 -18.387 -22.690  0.00  0.00    +0.004 C 
ATOM     12  C   UNL     1      34.642 -17.043 -22.437  0.00  0.00    +0.021 C 
ATOM     13  C   UNL     1      34.769 -18.879 -23.985  0.00  0.00    +0.021 C 
ATOM     14  C   UNL     1      34.313 -16.231 -23.511  0.00  0.00    +0.099 C 
ATOM     15  C   UNL     1      34.434 -17.986 -24.989  0.00  0.00    +0.099 C 
ENDBRANCH   3  11
BRANCH   6  17
ATOM     16  N   UNL     1      32.611 -22.206 -18.688  0.00  0.00    -0.191 NA
ATOM     17  C   UNL     1      33.451 -21.612 -19.226  0.00  0.00    +0.105 C 
ENDBRANCH   6  17
TORSDOF 2
ENDMDL
MODEL 3
REMARK VINA RESULT:      -8.0      1.691      2.240
REMARK  Name = 4197
REMARK  2 active torsions:
REMARK  status: ('A' for Active; 'I' for Inactive)
REMARK    1  A    between atoms: C_3  and  C_11
REMARK    2  A    between atoms: C_6  and  C_17
REMARK                            x       y       z     vdW  Elec       q    Type
REMARK                         _______ _______ _______ _____ _____    ______ ____
ROOT
ATOM      1  O   UNL     1      33.984 -14.639 -23.897  0.00  0.00    -0.269 OA
ATOM      2  N   UNL     1      34.564 -16.860 -23.750  0.00  0.00    -0.283 N 
ATOM      3  C   UNL     1      34.307 -18.080 -21.742  0.00  0.00    +0.010 C 
ATOM      4  C   UNL     1      34.684 -18.041 -23.041  0.00  0.00    +0.028 C 
ATOM      5  C   UNL     1      33.783 -16.865 -21.131  0.00  0.00    +0.016 C 
ATOM      6  C   UNL     1      33.660 -15.711 -21.802  0.00  0.00    +0.122 C 
ATOM      7  C   UNL     1      35.242 -19.188 -23.837  0.00  0.00    +0.047 C 
ATOM      8  C   UNL     1      34.078 -15.671 -23.236  0.00  0.00    +0.259 C 
ATOM      9  H   UNL     1      34.846 -16.865 -24.693  0.00  0.00    +0.155 HD
ENDROOT
BRANCH   3  11
ATOM     10  N   UNL     1      34.650 -21.677 -19.505  0.00  0.00    -0.242 NA
ATOM     11  C   UNL     1      34.425 -19.316 -20.974  0.00  0.00    +0.004 C 
ATOM     12  C   UNL     1      35.678 -19.792 -20.617  0.00  0.00    +0.021 C 
ATOM     13  C   UNL     1      33.283 -20.013 -20.603  0.00  0.00    +0.021 C 
ATOM     14  C   UNL     1      35.737 -20.969 -19.887  0.00  0.00    +0.099 C 
ATOM     15  C   UNL     1      33.448 -21.179 -19.875  0.00  0.00    +0.099 C 
ENDBRANCH   3  11
BRANCH   6  17
ATOM     16  N   UNL     1      32.723 -13.596 -20.655  0.00  0.00    -0.191 NA
ATOM     17  C   UNL     1      33.144 -14.547 -21.170  0.00  0.00    +0.105 C 
ENDBRANCH   6  17
TORSDOF 2
ENDMDL
MODEL 4
REMARK VINA RESULT:      -7.7      2.160      5.921
REMARK  Name = 4197
REMARK  2 active torsions:
REMARK  status: ('A' for Active; 'I' for Inactive)
REMARK    1  A    between atoms: C_3  and  C_11
REMARK    2  A    between atoms: C_6  and  C_17
REMARK                            x       y       z     vdW  Elec       q    Type
REMARK                         _______ _______ _______ _____ _____    ______ ____
ROOT
ATOM      1  O   UNL     1      34.978 -18.514 -24.370  0.00  0.00    -0.269 OA
ATOM      2  N   UNL     1      34.029 -16.546 -25.086  0.00  0.00    -0.283 N 
ATOM      3  C   UNL     1      33.718 -14.713 -23.626  0.00  0.00    +0.010 C 
ATOM      4  C   UNL     1      33.593 -15.253 -24.860  0.00  0.00    +0.028 C 
ATOM      5  C   UNL     1      34.314 -15.521 -22.569  0.00  0.00    +0.016 C 
ATOM      6  C   UNL     1      34.742 -16.775 -22.769  0.00  0.00    +0.122 C 
ATOM      7  C   UNL     1      33.008 -14.576 -26.069  0.00  0.00    +0.047 C 
ATOM      8  C   UNL     1      34.601 -17.369 -24.133  0.00  0.00    +0.259 C 
ATOM      9  H   UNL     1      33.924 -16.909 -25.996  0.00  0.00    +0.155 HD
ENDROOT
BRANCH   3  11
ATOM     10  N   UNL     1      32.401 -10.745 -22.865  0.00  0.00    -0.242 NA
ATOM     11  C   UNL     1      33.266 -13.350 -23.366  0.00  0.00    +0.004 C 
ATOM     12  C   UNL     1      32.236 -13.124 -22.465  0.00  0.00    +0.021 C 
ATOM     13  C   UNL     1      33.867 -12.283 -24.019  0.00  0.00    +0.021 C 
ATOM     14  C   UNL     1      31.842 -11.812 -22.251  0.00  0.00    +0.099 C 
ATOM     15  C   UNL     1      33.401 -11.009 -23.736  0.00  0.00    +0.099 C 
ENDBRANCH   3  11
BRANCH   6  17
ATOM     16  N   UNL     1      35.786 -18.148 -20.848  0.00  0.00    -0.191 NA
ATOM     17  C   UNL     1      35.317 -17.531 -21.712  0.00  0.00    +0.105 C 
ENDBRANCH   6  17
TORSDOF 2
ENDMDL
MODEL 5
REMARK VINA RESULT:      -7.7      1.675      3.024
REMARK  Name = 4197
REMARK  2 active torsions:
REMARK  status: ('A' for Active; 'I' for Inactive)
REMARK    1  A    between atoms: C_3  and  C_11
REMARK    2  A    between atoms: C_6  and  C_17
REMARK                            x       y       z     vdW  Elec       q    Type
REMARK                         _______ _______ _______ _____ _____    ______ ____
ROOT
ATOM      1  O   UNL     1      33.621 -13.121 -23.977  0.00  0.00    -0.269 OA
ATOM      2  N   UNL     1      34.172 -14.376 -22.131  0.00  0.00    -0.283 N 
ATOM      3  C   UNL     1      34.470 -16.717 -22.263  0.00  0.00    +0.010 C 
ATOM      4  C   UNL     1      34.464 -15.584 -21.524  0.00  0.00    +0.028 C 
ATOM      5  C   UNL     1      34.166 -16.623 -23.686  0.00  0.00    +0.016 C 
ATOM      6  C   UNL     1      33.881 -15.461 -24.292  0.00  0.00    +0.122 C 
ATOM      7  C   UNL     1      34.751 -15.485 -20.052  0.00  0.00    +0.047 C 
ATOM      8  C   UNL     1      33.875 -14.212 -23.472  0.00  0.00    +0.259 C 
ATOM      9  H   UNL     1      34.177 -13.570 -21.565  0.00  0.00    +0.155 HD
ENDROOT
BRANCH   3  11
ATOM     10  N   UNL     1      35.357 -20.461 -20.459  0.00  0.00    -0.242 NA
ATOM     11  C   UNL     1      34.774 -18.003 -21.644  0.00  0.00    +0.004 C 
ATOM     12  C   UNL     1      36.093 -18.365 -21.413  0.00  0.00    +0.021 C 
ATOM     13  C   UNL     1      33.744 -18.862 -21.287  0.00  0.00    +0.021 C 
ATOM     14  C   UNL     1      36.331 -19.596 -20.823  0.00  0.00    +0.099 C 
ATOM     15  C   UNL     1      34.086 -20.070 -20.702  0.00  0.00    +0.099 C 
ENDBRANCH   3  11
BRANCH   6  17
ATOM     16  N   UNL     1      33.353 -15.370 -26.817  0.00  0.00    -0.191 NA
ATOM     17  C   UNL     1      33.591 -15.411 -25.681  0.00  0.00    +0.105 C 
ENDBRANCH   6  17
TORSDOF 2
ENDMDL
MODEL 6
REMARK VINA RESULT:      -7.4      9.277     11.759
REMARK  Name = 4197
REMARK  2 active torsions:
REMARK  status: ('A' for Active; 'I' for Inactive)
REMARK    1  A    between atoms: C_3  and  C_11
REMARK    2  A    between atoms: C_6  and  C_17
REMARK                            x       y       z     vdW  Elec       q    Type
REMARK                         _______ _______ _______ _____ _____    ______ ____
ROOT
ATOM      1  O   UNL     1      36.782 -23.889 -14.195  0.00  0.00    -0.269 OA
ATOM      2  N   UNL     1      34.962 -23.579 -15.567  0.00  0.00    -0.283 N 
ATOM      3  C   UNL     1      32.751 -23.857 -14.778  0.00  0.00    +0.010 C 
ATOM      4  C   UNL     1      33.597 -23.561 -15.791  0.00  0.00    +0.028 C 
ATOM      5  C   UNL     1      33.312 -24.188 -13.475  0.00  0.00    +0.016 C 
ATOM      6  C   UNL     1      34.631 -24.211 -13.238  0.00  0.00    +0.122 C 
ATOM      7  C   UNL     1      33.205 -23.197 -17.196  0.00  0.00    +0.047 C 
ATOM      8  C   UNL     1      35.563 -23.884 -14.359  0.00  0.00    +0.259 C 
ATOM      9  H   UNL     1      35.550 -23.357 -16.324  0.00  0.00    +0.155 HD
ENDROOT
BRANCH   3  11
ATOM     10  N   UNL     1      28.547 -23.820 -15.400  0.00  0.00    -0.242 NA
ATOM     11  C   UNL     1      31.307 -23.845 -14.992  0.00  0.00    +0.004 C 
ATOM     12  C   UNL     1      30.597 -25.036 -14.995  0.00  0.00    +0.021 C 
ATOM     13  C   UNL     1      30.647 -22.640 -15.192  0.00  0.00    +0.021 C 
ATOM     14  C   UNL     1      29.228 -24.971 -15.202  0.00  0.00    +0.099 C 
ATOM     15  C   UNL     1      29.276 -22.681 -15.391  0.00  0.00    +0.099 C 
ENDBRANCH   3  11
BRANCH   6  17
ATOM     16  N   UNL     1      35.556 -24.806 -10.902  0.00  0.00    -0.191 NA
ATOM     17  C   UNL     1      35.140 -24.538 -11.952  0.00  0.00    +0.105 C 
ENDBRANCH   6  17
TORSDOF 2
ENDMDL
MODEL 7
REMARK VINA RESULT:      -7.4      9.276     11.778
REMARK  Name = 4197
REMARK  2 active torsions:
REMARK  status: ('A' for Active; 'I' for Inactive)
REMARK    1  A    between atoms: C_3  and  C_11
REMARK    2  A    between atoms: C_6  and  C_17
REMARK                            x       y       z     vdW  Elec       q    Type
REMARK                         _______ _______ _______ _____ _____    ______ ____
ROOT
ATOM      1  O   UNL     1      36.779 -23.886 -14.200  0.00  0.00    -0.269 OA
ATOM      2  N   UNL     1      34.957 -23.576 -15.569  0.00  0.00    -0.283 N 
ATOM      3  C   UNL     1      32.747 -23.855 -14.778  0.00  0.00    +0.010 C 
ATOM      4  C   UNL     1      33.592 -23.559 -15.792  0.00  0.00    +0.028 C 
ATOM      5  C   UNL     1      33.310 -24.185 -13.475  0.00  0.00    +0.016 C 
ATOM      6  C   UNL     1      34.630 -24.208 -13.240  0.00  0.00    +0.122 C 
ATOM      7  C   UNL     1      33.198 -23.195 -17.197  0.00  0.00    +0.047 C 
ATOM      8  C   UNL     1      35.560 -23.881 -14.362  0.00  0.00    +0.259 C 
ATOM      9  H   UNL     1      35.544 -23.355 -16.328  0.00  0.00    +0.155 HD
ENDROOT
BRANCH   3  11
ATOM     10  N   UNL     1      28.543 -23.819 -15.398  0.00  0.00    -0.242 NA
ATOM     11  C   UNL     1      31.303 -23.842 -14.990  0.00  0.00    +0.004 C 
ATOM     12  C   UNL     1      30.647 -22.641 -15.216  0.00  0.00    +0.021 C 
ATOM     13  C   UNL     1      30.588 -25.033 -14.966  0.00  0.00    +0.021 C 
ATOM     14  C   UNL     1      29.275 -22.682 -15.413  0.00  0.00    +0.099 C 
ATOM     15  C   UNL     1      29.220 -24.967 -15.174  0.00  0.00    +0.099 C 
ENDBRANCH   3  11
BRANCH   6  17
ATOM     16  N   UNL     1      35.557 -24.802 -10.905  0.00  0.00    -0.191 NA
ATOM     17  C   UNL     1      35.140 -24.535 -11.955  0.00  0.00    +0.105 C 
ENDBRANCH   6  17
TORSDOF 2
ENDMDL
MODEL 8
REMARK VINA RESULT:      -7.4      9.223     11.350
REMARK  Name = 4197
REMARK  2 active torsions:
REMARK  status: ('A' for Active; 'I' for Inactive)
REMARK    1  A    between atoms: C_3  and  C_11
REMARK    2  A    between atoms: C_6  and  C_17
REMARK                            x       y       z     vdW  Elec       q    Type
REMARK                         _______ _______ _______ _____ _____    ______ ____
ROOT
ATOM      1  O   UNL     1      35.319 -24.482 -13.955  0.00  0.00    -0.269 OA
ATOM      2  N   UNL     1      33.048 -24.697 -13.661  0.00  0.00    -0.283 N 
ATOM      3  C   UNL     1      31.505 -23.789 -15.204  0.00  0.00    +0.010 C 
ATOM      4  C   UNL     1      31.744 -24.475 -14.063  0.00  0.00    +0.028 C 
ATOM      5  C   UNL     1      32.642 -23.304 -15.976  0.00  0.00    +0.016 C 
ATOM      6  C   UNL     1      33.913 -23.508 -15.603  0.00  0.00    +0.122 C 
ATOM      7  C   UNL     1      30.705 -25.051 -13.141  0.00  0.00    +0.047 C 
ATOM      8  C   UNL     1      34.173 -24.266 -14.342  0.00  0.00    +0.259 C 
ATOM      9  H   UNL     1      33.188 -25.201 -12.826  0.00  0.00    +0.155 HD
ENDROOT
BRANCH   3  11
ATOM     10  N   UNL     1      27.519 -23.075 -16.493  0.00  0.00    -0.242 NA
ATOM     11  C   UNL     1      30.137 -23.544 -15.647  0.00  0.00    +0.004 C 
ATOM     12  C   UNL     1      29.508 -24.450 -16.488  0.00  0.00    +0.021 C 
ATOM     13  C   UNL     1      29.465 -22.403 -15.226  0.00  0.00    +0.021 C 
ATOM     14  C   UNL     1      28.208 -24.172 -16.881  0.00  0.00    +0.099 C 
ATOM     15  C   UNL     1      28.168 -22.216 -15.675  0.00  0.00    +0.099 C 
ENDBRANCH   3  11
BRANCH   6  17
ATOM     16  N   UNL     1      35.878 -22.619 -17.022  0.00  0.00    -0.191 NA
ATOM     17  C   UNL     1      34.994 -23.019 -16.384  0.00  0.00    +0.105 C 
ENDBRANCH   6  17
TORSDOF 2
ENDMDL
MODEL 9
REMARK VINA RESULT:      -7.3      2.511      3.985
REMARK  Name = 4197
REMARK  2 active torsions:
REMARK  status: ('A' for Active; 'I' for Inactive)
REMARK    1  A    between atoms: C_3  and  C_11
REMARK    2  A    between atoms: C_6  and  C_17
REMARK                            x       y       z     vdW  Elec       q    Type
REMARK                         _______ _______ _______ _____ _____    ______ ____
ROOT
ATOM      1  O   UNL     1      31.734 -11.453 -22.505  0.00  0.00    -0.269 OA
ATOM      2  N   UNL     1      32.031 -13.567 -21.649  0.00  0.00    -0.283 N 
ATOM      3  C   UNL     1      33.726 -15.005 -22.451  0.00  0.00    +0.010 C 
ATOM      4  C   UNL     1      32.691 -14.782 -21.610  0.00  0.00    +0.028 C 
ATOM      5  C   UNL     1      34.114 -13.948 -23.377  0.00  0.00    +0.016 C 
ATOM      6  C   UNL     1      33.487 -12.764 -23.429  0.00  0.00    +0.122 C 
ATOM      7  C   UNL     1      32.151 -15.747 -20.592  0.00  0.00    +0.047 C 
ATOM      8  C   UNL     1      32.343 -12.521 -22.499  0.00  0.00    +0.259 C 
ATOM      9  H   UNL     1      31.282 -13.436 -21.023  0.00  0.00    +0.155 HD
ENDROOT
BRANCH   3  11
ATOM     10  N   UNL     1      35.797 -18.716 -22.383  0.00  0.00    -0.242 NA
ATOM     11  C   UNL     1      34.437 -16.280 -22.428  0.00  0.00    +0.004 C 
ATOM     12  C   UNL     1      34.610 -16.998 -23.602  0.00  0.00    +0.021 C 
ATOM     13  C   UNL     1      34.939 -16.772 -21.230  0.00  0.00    +0.021 C 
ATOM     14  C   UNL     1      35.292 -18.202 -23.527  0.00  0.00    +0.099 C 
ATOM     15  C   UNL     1      35.606 -17.985 -21.261  0.00  0.00    +0.099 C 
ENDBRANCH   3  11
BRANCH   6  17
ATOM     16  N   UNL     1      34.228 -10.936 -25.094  0.00  0.00    -0.191 NA
ATOM     17  C   UNL     1      33.895 -11.758 -24.346  0.00  0.00    +0.105 C 
ENDBRANCH   6  17
TORSDOF 2
ENDMDL
