MODEL 1
REMARK VINA RESULT:      -4.1      0.000      0.000
REMARK  Name = 760
REMARK  2 active torsions:
REMARK  status: ('A' for Active; 'I' for Inactive)
REMARK    1  A    between atoms: C_2  and  O_3
REMARK    2  A    between atoms: C_2  and  C_6
REMARK                            x       y       z     vdW  Elec       q    Type
REMARK                         _______ _______ _______ _____ _____    ______ ____
ROOT
ATOM      1  O   UNL     1      40.938 -24.691 -14.232  0.00  0.00    -0.241 OA
ATOM      2  C   UNL     1      40.231 -25.432 -14.882  0.00  0.00    +0.381 C 
ENDROOT
BRANCH   2   3
ATOM      3  O   UNL     1      40.470 -25.969 -16.085  0.00  0.00    -0.475 OA
ATOM      4  H   UNL     1      39.772 -26.368 -16.567  0.00  0.00    +0.296 HD
ENDBRANCH   2   3
BRANCH   2   6
ATOM      5  O   UNL     1      38.495 -26.999 -14.703  0.00  0.00    -0.276 OA
ATOM      6  C   UNL     1      38.886 -25.882 -14.411  0.00  0.00    +0.315 C 
ENDBRANCH   2   6
TORSDOF 2
ENDMDL
MODEL 2
REMARK VINA RESULT:      -4.0     12.606     13.445
REMARK  Name = 760
REMARK  2 active torsions:
REMARK  status: ('A' for Active; 'I' for Inactive)
REMARK    1  A    between atoms: C_2  and  O_3
REMARK    2  A    between atoms: C_2  and  C_6
REMARK                            x       y       z     vdW  Elec       q    Type
REMARK                         _______ _______ _______ _____ _____    ______ ____
ROOT
ATOM      1  O   UNL     1      27.451 -23.737 -17.678  0.00  0.00    -0.241 OA
ATOM      2  C   UNL     1      27.571 -22.585 -17.319  0.00  0.00    +0.381 C 
ENDROOT
BRANCH   2   3
ATOM      3  O   UNL     1      28.685 -21.939 -16.952  0.00  0.00    -0.475 OA
ATOM      4  H   UNL     1      29.388 -22.409 -16.549  0.00  0.00    +0.296 HD
ENDBRANCH   2   3
BRANCH   2   6
ATOM      5  O   UNL     1      26.372 -20.666 -17.934  0.00  0.00    -0.276 OA
ATOM      6  C   UNL     1      26.412 -21.648 -17.213  0.00  0.00    +0.315 C 
ENDBRANCH   2   6
TORSDOF 2
ENDMDL
MODEL 3
REMARK VINA RESULT:      -3.9      5.384      6.150
REMARK  Name = 760
REMARK  2 active torsions:
REMARK  status: ('A' for Active; 'I' for Inactive)
REMARK    1  A    between atoms: C_2  and  O_3
REMARK    2  A    between atoms: C_2  and  C_6
REMARK                            x       y       z     vdW  Elec       q    Type
REMARK                         _______ _______ _______ _____ _____    ______ ____
ROOT
ATOM      1  O   UNL     1      35.483 -24.484  -9.773  0.00  0.00    -0.241 OA
ATOM      2  C   UNL     1      35.582 -24.376 -10.978  0.00  0.00    +0.381 C 
ENDROOT
BRANCH   2   3
ATOM      3  O   UNL     1      34.856 -24.975 -11.930  0.00  0.00    -0.475 OA
ATOM      4  H   UNL     1      35.264 -25.250 -12.728  0.00  0.00    +0.296 HD
ENDBRANCH   2   3
BRANCH   2   6
ATOM      5  O   UNL     1      37.327 -22.811 -10.931  0.00  0.00    -0.276 OA
ATOM      6  C   UNL     1      36.608 -23.506 -11.628  0.00  0.00    +0.315 C 
ENDBRANCH   2   6
TORSDOF 2
ENDMDL
MODEL 4
REMARK VINA RESULT:      -3.9     12.107     12.898
REMARK  Name = 760
REMARK  2 active torsions:
REMARK  status: ('A' for Active; 'I' for Inactive)
REMARK    1  A    between atoms: C_2  and  O_3
REMARK    2  A    between atoms: C_2  and  C_6
REMARK                            x       y       z     vdW  Elec       q    Type
REMARK                         _______ _______ _______ _____ _____    ______ ____
ROOT
ATOM      1  O   UNL     1      29.172 -22.305 -17.042  0.00  0.00    -0.241 OA
ATOM      2  C   UNL     1      28.039 -22.734 -16.982  0.00  0.00    +0.381 C 
ENDROOT
BRANCH   2   3
ATOM      3  O   UNL     1      27.461 -23.669 -17.746  0.00  0.00    -0.475 OA
ATOM      4  H   UNL     1      26.539 -23.636 -17.910  0.00  0.00    +0.296 HD
ENDBRANCH   2   3
BRANCH   2   6
ATOM      5  O   UNL     1      25.903 -22.004 -16.347  0.00  0.00    -0.276 OA
ATOM      6  C   UNL     1      27.042 -22.241 -15.984  0.00  0.00    +0.315 C 
ENDBRANCH   2   6
TORSDOF 2
ENDMDL
MODEL 5
REMARK VINA RESULT:      -3.8     13.217     14.072
REMARK  Name = 760
REMARK  2 active torsions:
REMARK  status: ('A' for Active; 'I' for Inactive)
REMARK    1  A    between atoms: C_2  and  O_3
REMARK    2  A    between atoms: C_2  and  C_6
REMARK                            x       y       z     vdW  Elec       q    Type
REMARK                         _______ _______ _______ _____ _____    ______ ____
ROOT
ATOM      1  O   UNL     1      27.869 -22.030 -15.522  0.00  0.00    -0.241 OA
ATOM      2  C   UNL     1      26.779 -21.950 -16.049  0.00  0.00    +0.381 C 
ENDROOT
BRANCH   2   3
ATOM      3  O   UNL     1      25.571 -22.066 -15.485  0.00  0.00    -0.475 OA
ATOM      4  H   UNL     1      25.419 -21.721 -14.626  0.00  0.00    +0.296 HD
ENDBRANCH   2   3
BRANCH   2   6
ATOM      5  O   UNL     1      26.268 -20.598 -17.896  0.00  0.00    -0.276 OA
ATOM      6  C   UNL     1      26.608 -21.704 -17.513  0.00  0.00    +0.315 C 
ENDBRANCH   2   6
TORSDOF 2
ENDMDL
MODEL 6
REMARK VINA RESULT:      -3.8     12.864     13.759
REMARK  Name = 760
REMARK  2 active torsions:
REMARK  status: ('A' for Active; 'I' for Inactive)
REMARK    1  A    between atoms: C_2  and  O_3
REMARK    2  A    between atoms: C_2  and  C_6
REMARK                            x       y       z     vdW  Elec       q    Type
REMARK                         _______ _______ _______ _____ _____    ______ ____
ROOT
ATOM      1  O   UNL     1      26.441 -20.989 -17.927  0.00  0.00    -0.241 OA
ATOM      2  C   UNL     1      26.499 -21.764 -16.996  0.00  0.00    +0.381 C 
ENDROOT
BRANCH   2   3
ATOM      3  O   UNL     1      25.569 -22.020 -16.066  0.00  0.00    -0.475 OA
ATOM      4  H   UNL     1      24.662 -21.882 -16.260  0.00  0.00    +0.296 HD
ENDBRANCH   2   3
BRANCH   2   6
ATOM      5  O   UNL     1      28.708 -22.445 -17.390  0.00  0.00    -0.276 OA
ATOM      6  C   UNL     1      27.704 -22.602 -16.717  0.00  0.00    +0.315 C 
ENDBRANCH   2   6
TORSDOF 2
ENDMDL
MODEL 7
REMARK VINA RESULT:      -3.7     11.279     12.239
REMARK  Name = 760
REMARK  2 active torsions:
REMARK  status: ('A' for Active; 'I' for Inactive)
REMARK    1  A    between atoms: C_2  and  O_3
REMARK    2  A    between atoms: C_2  and  C_6
REMARK                            x       y       z     vdW  Elec       q    Type
REMARK                         _______ _______ _______ _____ _____    ______ ____
ROOT
ATOM      1  O   UNL     1      27.481 -23.848 -17.636  0.00  0.00    -0.241 OA
ATOM      2  C   UNL     1      27.944 -22.838 -17.151  0.00  0.00    +0.381 C 
ENDROOT
BRANCH   2   3
ATOM      3  O   UNL     1      27.399 -21.616 -17.091  0.00  0.00    -0.475 OA
ATOM      4  H   UNL     1      27.462 -21.113 -16.303  0.00  0.00    +0.296 HD
ENDBRANCH   2   3
BRANCH   2   6
ATOM      5  O   UNL     1      30.233 -22.329 -17.132  0.00  0.00    -0.276 OA
ATOM      6  C   UNL     1      29.294 -22.796 -16.512  0.00  0.00    +0.315 C 
ENDBRANCH   2   6
TORSDOF 2
ENDMDL
MODEL 8
REMARK VINA RESULT:      -3.6      9.884     10.683
REMARK  Name = 760
REMARK  2 active torsions:
REMARK  status: ('A' for Active; 'I' for Inactive)
REMARK    1  A    between atoms: C_2  and  O_3
REMARK    2  A    between atoms: C_2  and  C_6
REMARK                            x       y       z     vdW  Elec       q    Type
REMARK                         _______ _______ _______ _____ _____    ______ ____
ROOT
ATOM      1  O   UNL     1      42.267 -16.540 -15.697  0.00  0.00    -0.241 OA
ATOM      2  C   UNL     1      41.282 -15.834 -15.749  0.00  0.00    +0.381 C 
ENDROOT
BRANCH   2   3
ATOM      3  O   UNL     1      40.093 -16.017 -15.161  0.00  0.00    -0.475 OA
ATOM      4  H   UNL     1      40.050 -16.349 -14.285  0.00  0.00    +0.296 HD
ENDBRANCH   2   3
BRANCH   2   6
ATOM      5  O   UNL     1      40.817 -14.595 -17.685  0.00  0.00    -0.276 OA
ATOM      6  C   UNL     1      41.238 -14.567 -16.542  0.00  0.00    +0.315 C 
ENDBRANCH   2   6
TORSDOF 2
ENDMDL
MODEL 9
REMARK VINA RESULT:      -3.6      2.428      3.537
REMARK  Name = 760
REMARK  2 active torsions:
REMARK  status: ('A' for Active; 'I' for Inactive)
REMARK    1  A    between atoms: C_2  and  O_3
REMARK    2  A    between atoms: C_2  and  C_6
REMARK                            x       y       z     vdW  Elec       q    Type
REMARK                         _______ _______ _______ _____ _____    ______ ____
ROOT
ATOM      1  O   UNL     1      35.714 -25.622 -15.426  0.00  0.00    -0.241 OA
ATOM      2  C   UNL     1      36.565 -26.486 -15.447  0.00  0.00    +0.381 C 
ENDROOT
BRANCH   2   3
ATOM      3  O   UNL     1      36.808 -27.392 -16.403  0.00  0.00    -0.475 OA
ATOM      4  H   UNL     1      37.403 -27.191 -17.098  0.00  0.00    +0.296 HD
ENDBRANCH   2   3
BRANCH   2   6
ATOM      5  O   UNL     1      38.662 -27.074 -14.579  0.00  0.00    -0.276 OA
ATOM      6  C   UNL     1      37.532 -26.694 -14.327  0.00  0.00    +0.315 C 
ENDBRANCH   2   6
TORSDOF 2
ENDMDL
