MODEL 1
REMARK VINA RESULT:      -8.3      0.000      0.000
REMARK  Name = 71954
REMARK  7 active torsions:
REMARK  status: ('A' for Active; 'I' for Inactive)
REMARK    1  A    between atoms: C_1  and  C_2
REMARK    2  A    between atoms: C_1  and  O_8
REMARK    3  A    between atoms: C_1  and  C_15
REMARK    4  A    between atoms: O_8  and  C_9
REMARK    5  A    between atoms: C_9  and  C_10
REMARK    6  A    between atoms: C_10  and  N_11
REMARK    7  A    between atoms: C_15  and  C_16
REMARK                            x       y       z     vdW  Elec       q    Type
REMARK                         _______ _______ _______ _____ _____    ______ ____
ROOT
ATOM      1  C   UNL     1      34.720 -22.651 -17.056  0.00  0.00    +0.142 C 
ENDROOT
BRANCH   1   2
ATOM      2  C   UNL     1      34.978 -21.889 -18.336  0.00  0.00    +0.005 C 
ATOM      3  C   UNL     1      36.279 -21.575 -18.688  0.00  0.00    -0.002 C 
ATOM      4  C   UNL     1      33.904 -21.520 -19.130  0.00  0.00    -0.002 C 
ATOM      5  C   UNL     1      36.515 -20.872 -19.868  0.00  0.00    -0.000 C 
ATOM      6  C   UNL     1      34.141 -20.816 -20.312  0.00  0.00    -0.000 C 
ATOM      7  C   UNL     1      35.446 -20.492 -20.680  0.00  0.00    -0.000 C 
ENDBRANCH   1   2
BRANCH   1   8
ATOM      8  O   UNL     1      35.906 -23.352 -16.707  0.00  0.00    -0.354 OA
BRANCH   8   9
ATOM      9  C   UNL     1      36.279 -23.108 -15.356  0.00  0.00    +0.120 C 
BRANCH   9  10
ATOM     10  C   UNL     1      37.573 -23.835 -15.047  0.00  0.00    -0.041 C 
BRANCH  10  11
ATOM     11  N   UNL     1      37.275 -25.033 -14.157  0.00  0.00    +0.387 N 
ATOM     12  C   UNL     1      38.446 -25.270 -13.215  0.00  0.00    -0.096 C 
ATOM     13  C   UNL     1      36.018 -24.759 -13.343  0.00  0.00    -0.096 C 
ATOM     14  C   UNL     1      37.059 -26.267 -15.021  0.00  0.00    -0.096 C 
ENDBRANCH  10  11
ENDBRANCH   9  10
ENDBRANCH   8   9
ENDBRANCH   1   8
BRANCH   1  15
ATOM     15  C   UNL     1      33.560 -23.654 -17.166  0.00  0.00    +0.060 C 
BRANCH  15  16
ATOM     16  C   UNL     1      32.439 -23.387 -16.193  0.00  0.00    -0.019 C 
ATOM     17  C   UNL     1      31.169 -23.110 -16.676  0.00  0.00    -0.004 C 
ATOM     18  C   UNL     1      32.698 -23.423 -14.831  0.00  0.00    -0.004 C 
ATOM     19  C   UNL     1      30.134 -22.863 -15.775  0.00  0.00    -0.000 C 
ATOM     20  C   UNL     1      31.662 -23.178 -13.930  0.00  0.00    -0.000 C 
ATOM     21  C   UNL     1      30.380 -22.896 -14.402  0.00  0.00    -0.000 C 
ENDBRANCH  15  16
ENDBRANCH   1  15
TORSDOF 7
ENDMDL
MODEL 2
REMARK VINA RESULT:      -8.3      2.216      5.944
REMARK  Name = 71954
REMARK  7 active torsions:
REMARK  status: ('A' for Active; 'I' for Inactive)
REMARK    1  A    between atoms: C_1  and  C_2
REMARK    2  A    between atoms: C_1  and  O_8
REMARK    3  A    between atoms: C_1  and  C_15
REMARK    4  A    between atoms: O_8  and  C_9
REMARK    5  A    between atoms: C_9  and  C_10
REMARK    6  A    between atoms: C_10  and  N_11
REMARK    7  A    between atoms: C_15  and  C_16
REMARK                            x       y       z     vdW  Elec       q    Type
REMARK                         _______ _______ _______ _____ _____    ______ ____
ROOT
ATOM      1  C   UNL     1      33.939 -22.779 -17.236  0.00  0.00    +0.142 C 
ENDROOT
BRANCH   1   2
ATOM      2  C   UNL     1      35.191 -23.094 -16.447  0.00  0.00    +0.005 C 
ATOM      3  C   UNL     1      36.340 -22.358 -16.678  0.00  0.00    -0.002 C 
ATOM      4  C   UNL     1      35.160 -24.113 -15.510  0.00  0.00    -0.002 C 
ATOM      5  C   UNL     1      37.493 -22.650 -15.951  0.00  0.00    -0.000 C 
ATOM      6  C   UNL     1      36.314 -24.404 -14.781  0.00  0.00    -0.000 C 
ATOM      7  C   UNL     1      37.480 -23.673 -15.002  0.00  0.00    -0.000 C 
ENDBRANCH   1   2
BRANCH   1   8
ATOM      8  O   UNL     1      32.893 -23.621 -16.769  0.00  0.00    -0.354 OA
BRANCH   8   9
ATOM      9  C   UNL     1      31.729 -22.873 -16.440  0.00  0.00    +0.120 C 
BRANCH   9  10
ATOM     10  C   UNL     1      30.509 -23.769 -16.525  0.00  0.00    -0.041 C 
BRANCH  10  11
ATOM     11  N   UNL     1      29.677 -23.605 -15.262  0.00  0.00    +0.387 N 
ATOM     12  C   UNL     1      30.577 -23.173 -14.113  0.00  0.00    -0.096 C 
ATOM     13  C   UNL     1      28.607 -22.548 -15.493  0.00  0.00    -0.096 C 
ATOM     14  C   UNL     1      29.014 -24.930 -14.915  0.00  0.00    -0.096 C 
ENDBRANCH  10  11
ENDBRANCH   9  10
ENDBRANCH   8   9
ENDBRANCH   1   8
BRANCH   1  15
ATOM     15  C   UNL     1      34.106 -22.982 -18.751  0.00  0.00    +0.060 C 
BRANCH  15  16
ATOM     16  C   UNL     1      34.102 -21.693 -19.534  0.00  0.00    -0.019 C 
ATOM     17  C   UNL     1      32.897 -21.056 -19.790  0.00  0.00    -0.004 C 
ATOM     18  C   UNL     1      35.303 -21.167 -19.986  0.00  0.00    -0.004 C 
ATOM     19  C   UNL     1      32.894 -19.865 -20.515  0.00  0.00    -0.000 C 
ATOM     20  C   UNL     1      35.299 -19.975 -20.710  0.00  0.00    -0.000 C 
ATOM     21  C   UNL     1      34.094 -19.324 -20.975  0.00  0.00    -0.000 C 
ENDBRANCH  15  16
ENDBRANCH   1  15
TORSDOF 7
ENDMDL
MODEL 3
REMARK VINA RESULT:      -8.2      8.221     11.139
REMARK  Name = 71954
REMARK  7 active torsions:
REMARK  status: ('A' for Active; 'I' for Inactive)
REMARK    1  A    between atoms: C_1  and  C_2
REMARK    2  A    between atoms: C_1  and  O_8
REMARK    3  A    between atoms: C_1  and  C_15
REMARK    4  A    between atoms: O_8  and  C_9
REMARK    5  A    between atoms: C_9  and  C_10
REMARK    6  A    between atoms: C_10  and  N_11
REMARK    7  A    between atoms: C_15  and  C_16
REMARK                            x       y       z     vdW  Elec       q    Type
REMARK                         _______ _______ _______ _____ _____    ______ ____
ROOT
ATOM      1  C   UNL     1      33.848 -13.872 -22.899  0.00  0.00    +0.142 C 
ENDROOT
BRANCH   1   2
ATOM      2  C   UNL     1      33.640 -13.650 -24.380  0.00  0.00    +0.005 C 
ATOM      3  C   UNL     1      33.232 -14.708 -25.173  0.00  0.00    -0.002 C 
ATOM      4  C   UNL     1      33.862 -12.390 -24.911  0.00  0.00    -0.002 C 
ATOM      5  C   UNL     1      33.041 -14.502 -26.539  0.00  0.00    -0.000 C 
ATOM      6  C   UNL     1      33.670 -12.183 -26.278  0.00  0.00    -0.000 C 
ATOM      7  C   UNL     1      33.259 -13.239 -27.091  0.00  0.00    -0.000 C 
ENDBRANCH   1   2
BRANCH   1   8
ATOM      8  O   UNL     1      34.643 -15.039 -22.730  0.00  0.00    -0.354 OA
BRANCH   8   9
ATOM      9  C   UNL     1      33.965 -16.025 -21.961  0.00  0.00    +0.120 C 
BRANCH   9  10
ATOM     10  C   UNL     1      34.968 -16.793 -21.123  0.00  0.00    -0.041 C 
BRANCH  10  11
ATOM     11  N   UNL     1      35.031 -18.233 -21.610  0.00  0.00    +0.387 N 
ATOM     12  C   UNL     1      35.054 -18.254 -23.131  0.00  0.00    -0.096 C 
ATOM     13  C   UNL     1      36.293 -18.895 -21.075  0.00  0.00    -0.096 C 
ATOM     14  C   UNL     1      33.810 -18.992 -21.110  0.00  0.00    -0.096 C 
ENDBRANCH  10  11
ENDBRANCH   9  10
ENDBRANCH   8   9
ENDBRANCH   1   8
BRANCH   1  15
ATOM     15  C   UNL     1      32.535 -14.044 -22.117  0.00  0.00    +0.060 C 
BRANCH  15  16
ATOM     16  C   UNL     1      32.059 -12.775 -21.456  0.00  0.00    -0.019 C 
ATOM     17  C   UNL     1      31.602 -11.728 -22.242  0.00  0.00    -0.004 C 
ATOM     18  C   UNL     1      32.085 -12.676 -20.073  0.00  0.00    -0.004 C 
ATOM     19  C   UNL     1      31.162 -10.554 -21.630  0.00  0.00    -0.000 C 
ATOM     20  C   UNL     1      31.644 -11.503 -19.462  0.00  0.00    -0.000 C 
ATOM     21  C   UNL     1      31.183 -10.442 -20.240  0.00  0.00    -0.000 C 
ENDBRANCH  15  16
ENDBRANCH   1  15
TORSDOF 7
ENDMDL
MODEL 4
REMARK VINA RESULT:      -8.2      8.227     11.176
REMARK  Name = 71954
REMARK  7 active torsions:
REMARK  status: ('A' for Active; 'I' for Inactive)
REMARK    1  A    between atoms: C_1  and  C_2
REMARK    2  A    between atoms: C_1  and  O_8
REMARK    3  A    between atoms: C_1  and  C_15
REMARK    4  A    between atoms: O_8  and  C_9
REMARK    5  A    between atoms: C_9  and  C_10
REMARK    6  A    between atoms: C_10  and  N_11
REMARK    7  A    between atoms: C_15  and  C_16
REMARK                            x       y       z     vdW  Elec       q    Type
REMARK                         _______ _______ _______ _____ _____    ______ ____
ROOT
ATOM      1  C   UNL     1      33.848 -13.866 -22.901  0.00  0.00    +0.142 C 
ENDROOT
BRANCH   1   2
ATOM      2  C   UNL     1      33.643 -13.643 -24.383  0.00  0.00    +0.005 C 
ATOM      3  C   UNL     1      33.860 -12.384 -24.915  0.00  0.00    -0.002 C 
ATOM      4  C   UNL     1      33.242 -14.706 -25.177  0.00  0.00    -0.002 C 
ATOM      5  C   UNL     1      33.670 -12.180 -26.281  0.00  0.00    -0.000 C 
ATOM      6  C   UNL     1      33.052 -14.501 -26.544  0.00  0.00    -0.000 C 
ATOM      7  C   UNL     1      33.267 -13.238 -27.096  0.00  0.00    -0.000 C 
ENDBRANCH   1   2
BRANCH   1   8
ATOM      8  O   UNL     1      34.639 -15.035 -22.731  0.00  0.00    -0.354 OA
BRANCH   8   9
ATOM      9  C   UNL     1      33.964 -16.012 -21.949  0.00  0.00    +0.120 C 
BRANCH   9  10
ATOM     10  C   UNL     1      34.972 -16.783 -21.119  0.00  0.00    -0.041 C 
BRANCH  10  11
ATOM     11  N   UNL     1      35.040 -18.219 -21.619  0.00  0.00    +0.387 N 
ATOM     12  C   UNL     1      35.064 -18.227 -23.140  0.00  0.00    -0.096 C 
ATOM     13  C   UNL     1      36.303 -18.881 -21.087  0.00  0.00    -0.096 C 
ATOM     14  C   UNL     1      33.821 -18.985 -21.126  0.00  0.00    -0.096 C 
ENDBRANCH  10  11
ENDBRANCH   9  10
ENDBRANCH   8   9
ENDBRANCH   1   8
BRANCH   1  15
ATOM     15  C   UNL     1      32.532 -14.034 -22.123  0.00  0.00    +0.060 C 
BRANCH  15  16
ATOM     16  C   UNL     1      32.062 -12.767 -21.455  0.00  0.00    -0.019 C 
ATOM     17  C   UNL     1      32.080 -12.679 -20.071  0.00  0.00    -0.004 C 
ATOM     18  C   UNL     1      31.621 -11.710 -22.236  0.00  0.00    -0.004 C 
ATOM     19  C   UNL     1      31.645 -11.506 -19.454  0.00  0.00    -0.000 C 
ATOM     20  C   UNL     1      31.187 -10.536 -21.619  0.00  0.00    -0.000 C 
ATOM     21  C   UNL     1      31.198 -10.435 -20.228  0.00  0.00    -0.000 C 
ENDBRANCH  15  16
ENDBRANCH   1  15
TORSDOF 7
ENDMDL
MODEL 5
REMARK VINA RESULT:      -8.2      2.081      5.182
REMARK  Name = 71954
REMARK  7 active torsions:
REMARK  status: ('A' for Active; 'I' for Inactive)
REMARK    1  A    between atoms: C_1  and  C_2
REMARK    2  A    between atoms: C_1  and  O_8
REMARK    3  A    between atoms: C_1  and  C_15
REMARK    4  A    between atoms: O_8  and  C_9
REMARK    5  A    between atoms: C_9  and  C_10
REMARK    6  A    between atoms: C_10  and  N_11
REMARK    7  A    between atoms: C_15  and  C_16
REMARK                            x       y       z     vdW  Elec       q    Type
REMARK                         _______ _______ _______ _____ _____    ______ ____
ROOT
ATOM      1  C   UNL     1      34.106 -23.200 -17.709  0.00  0.00    +0.142 C 
ENDROOT
BRANCH   1   2
ATOM      2  C   UNL     1      34.419 -22.130 -18.731  0.00  0.00    +0.005 C 
ATOM      3  C   UNL     1      35.741 -21.833 -19.019  0.00  0.00    -0.002 C 
ATOM      4  C   UNL     1      33.376 -21.467 -19.356  0.00  0.00    -0.002 C 
ATOM      5  C   UNL     1      36.028 -20.846 -19.960  0.00  0.00    -0.000 C 
ATOM      6  C   UNL     1      33.664 -20.479 -20.299  0.00  0.00    -0.000 C 
ATOM      7  C   UNL     1      34.989 -20.169 -20.601  0.00  0.00    -0.000 C 
ENDBRANCH   1   2
BRANCH   1   8
ATOM      8  O   UNL     1      32.711 -23.470 -17.758  0.00  0.00    -0.354 OA
BRANCH   8   9
ATOM      9  C   UNL     1      32.110 -23.340 -16.476  0.00  0.00    +0.120 C 
BRANCH   9  10
ATOM     10  C   UNL     1      30.721 -22.751 -16.625  0.00  0.00    -0.041 C 
BRANCH  10  11
ATOM     11  N   UNL     1      29.822 -23.303 -15.528  0.00  0.00    +0.387 N 
ATOM     12  C   UNL     1      28.543 -22.481 -15.457  0.00  0.00    -0.096 C 
ATOM     13  C   UNL     1      29.477 -24.753 -15.836  0.00  0.00    -0.096 C 
ATOM     14  C   UNL     1      30.548 -23.228 -14.192  0.00  0.00    -0.096 C 
ENDBRANCH  10  11
ENDBRANCH   9  10
ENDBRANCH   8   9
ENDBRANCH   1   8
BRANCH   1  15
ATOM     15  C   UNL     1      34.490 -22.803 -16.274  0.00  0.00    +0.060 C 
BRANCH  15  16
ATOM     16  C   UNL     1      35.635 -23.608 -15.713  0.00  0.00    -0.019 C 
ATOM     17  C   UNL     1      36.914 -23.073 -15.728  0.00  0.00    -0.004 C 
ATOM     18  C   UNL     1      35.390 -24.869 -15.192  0.00  0.00    -0.004 C 
ATOM     19  C   UNL     1      37.974 -23.818 -15.209  0.00  0.00    -0.000 C 
ATOM     20  C   UNL     1      36.449 -25.614 -14.673  0.00  0.00    -0.000 C 
ATOM     21  C   UNL     1      37.741 -25.088 -14.683  0.00  0.00    -0.000 C 
ENDBRANCH  15  16
ENDBRANCH   1  15
TORSDOF 7
ENDMDL
MODEL 6
REMARK VINA RESULT:      -8.0      8.054     11.634
REMARK  Name = 71954
REMARK  7 active torsions:
REMARK  status: ('A' for Active; 'I' for Inactive)
REMARK    1  A    between atoms: C_1  and  C_2
REMARK    2  A    between atoms: C_1  and  O_8
REMARK    3  A    between atoms: C_1  and  C_15
REMARK    4  A    between atoms: O_8  and  C_9
REMARK    5  A    between atoms: C_9  and  C_10
REMARK    6  A    between atoms: C_10  and  N_11
REMARK    7  A    between atoms: C_15  and  C_16
REMARK                            x       y       z     vdW  Elec       q    Type
REMARK                         _______ _______ _______ _____ _____    ______ ____
ROOT
ATOM      1  C   UNL     1      32.919 -14.182 -21.958  0.00  0.00    +0.142 C 
ENDROOT
BRANCH   1   2
ATOM      2  C   UNL     1      32.223 -12.960 -21.401  0.00  0.00    +0.005 C 
ATOM      3  C   UNL     1      31.587 -12.089 -22.269  0.00  0.00    -0.002 C 
ATOM      4  C   UNL     1      32.237 -12.738 -20.034  0.00  0.00    -0.002 C 
ATOM      5  C   UNL     1      30.945 -10.962 -21.755  0.00  0.00    -0.000 C 
ATOM      6  C   UNL     1      31.595 -11.611 -19.520  0.00  0.00    -0.000 C 
ATOM      7  C   UNL     1      30.950 -10.724 -20.381  0.00  0.00    -0.000 C 
ENDBRANCH   1   2
BRANCH   1   8
ATOM      8  O   UNL     1      33.373 -14.973 -20.867  0.00  0.00    -0.354 OA
BRANCH   8   9
ATOM      9  C   UNL     1      33.476 -16.345 -21.225  0.00  0.00    +0.120 C 
BRANCH   9  10
ATOM     10  C   UNL     1      34.905 -16.814 -21.030  0.00  0.00    -0.041 C 
BRANCH  10  11
ATOM     11  N   UNL     1      35.067 -18.197 -21.643  0.00  0.00    +0.387 N 
ATOM     12  C   UNL     1      36.352 -18.831 -21.133  0.00  0.00    -0.096 C 
ATOM     13  C   UNL     1      33.881 -19.067 -21.249  0.00  0.00    -0.096 C 
ATOM     14  C   UNL     1      35.126 -18.078 -23.159  0.00  0.00    -0.096 C 
ENDBRANCH  10  11
ENDBRANCH   9  10
ENDBRANCH   8   9
ENDBRANCH   1   8
BRANCH   1  15
ATOM     15  C   UNL     1      34.116 -13.842 -22.862  0.00  0.00    +0.060 C 
BRANCH  15  16
ATOM     16  C   UNL     1      33.749 -13.704 -24.318  0.00  0.00    -0.019 C 
ATOM     17  C   UNL     1      33.890 -12.473 -24.941  0.00  0.00    -0.004 C 
ATOM     18  C   UNL     1      33.277 -14.809 -25.009  0.00  0.00    -0.004 C 
ATOM     19  C   UNL     1      33.549 -12.345 -26.288  0.00  0.00    -0.000 C 
ATOM     20  C   UNL     1      32.939 -14.682 -26.356  0.00  0.00    -0.000 C 
ATOM     21  C   UNL     1      33.074 -13.449 -26.995  0.00  0.00    -0.000 C 
ENDBRANCH  15  16
ENDBRANCH   1  15
TORSDOF 7
ENDMDL
MODEL 7
REMARK VINA RESULT:      -7.9      0.948      4.776
REMARK  Name = 71954
REMARK  7 active torsions:
REMARK  status: ('A' for Active; 'I' for Inactive)
REMARK    1  A    between atoms: C_1  and  C_2
REMARK    2  A    between atoms: C_1  and  O_8
REMARK    3  A    between atoms: C_1  and  C_15
REMARK    4  A    between atoms: O_8  and  C_9
REMARK    5  A    between atoms: C_9  and  C_10
REMARK    6  A    between atoms: C_10  and  N_11
REMARK    7  A    between atoms: C_15  and  C_16
REMARK                            x       y       z     vdW  Elec       q    Type
REMARK                         _______ _______ _______ _____ _____    ______ ____
ROOT
ATOM      1  C   UNL     1      34.438 -23.779 -16.468  0.00  0.00    +0.142 C 
ENDROOT
BRANCH   1   2
ATOM      2  C   UNL     1      33.109 -23.477 -15.814  0.00  0.00    +0.005 C 
ATOM      3  C   UNL     1      33.028 -23.429 -14.433  0.00  0.00    -0.002 C 
ATOM      4  C   UNL     1      31.999 -23.255 -16.612  0.00  0.00    -0.002 C 
ATOM      5  C   UNL     1      31.802 -23.151 -13.831  0.00  0.00    -0.000 C 
ATOM      6  C   UNL     1      30.771 -22.976 -16.009  0.00  0.00    -0.000 C 
ATOM      7  C   UNL     1      30.673 -22.925 -14.619  0.00  0.00    -0.000 C 
ENDBRANCH   1   2
BRANCH   1   8
ATOM      8  O   UNL     1      35.091 -24.788 -15.709  0.00  0.00    -0.354 OA
BRANCH   8   9
ATOM      9  C   UNL     1      36.406 -24.394 -15.339  0.00  0.00    +0.120 C 
BRANCH   9  10
ATOM     10  C   UNL     1      37.175 -25.600 -14.837  0.00  0.00    -0.041 C 
BRANCH  10  11
ATOM     11  N   UNL     1      37.835 -25.257 -13.509  0.00  0.00    +0.387 N 
ATOM     12  C   UNL     1      39.343 -25.406 -13.637  0.00  0.00    -0.096 C 
ATOM     13  C   UNL     1      37.497 -23.822 -13.131  0.00  0.00    -0.096 C 
ATOM     14  C   UNL     1      37.321 -26.199 -12.430  0.00  0.00    -0.096 C 
ENDBRANCH  10  11
ENDBRANCH   9  10
ENDBRANCH   8   9
ENDBRANCH   1   8
BRANCH   1  15
ATOM     15  C   UNL     1      35.361 -22.553 -16.569  0.00  0.00    +0.060 C 
BRANCH  15  16
ATOM     16  C   UNL     1      35.421 -21.957 -17.953  0.00  0.00    -0.019 C 
ATOM     17  C   UNL     1      34.265 -21.891 -18.717  0.00  0.00    -0.004 C 
ATOM     18  C   UNL     1      36.631 -21.485 -18.439  0.00  0.00    -0.004 C 
ATOM     19  C   UNL     1      34.322 -21.341 -19.997  0.00  0.00    -0.000 C 
ATOM     20  C   UNL     1      36.686 -20.933 -19.718  0.00  0.00    -0.000 C 
ATOM     21  C   UNL     1      35.532 -20.862 -20.498  0.00  0.00    -0.000 C 
ENDBRANCH  15  16
ENDBRANCH   1  15
TORSDOF 7
ENDMDL
MODEL 8
REMARK VINA RESULT:      -7.6     10.953     13.926
REMARK  Name = 71954
REMARK  7 active torsions:
REMARK  status: ('A' for Active; 'I' for Inactive)
REMARK    1  A    between atoms: C_1  and  C_2
REMARK    2  A    between atoms: C_1  and  O_8
REMARK    3  A    between atoms: C_1  and  C_15
REMARK    4  A    between atoms: O_8  and  C_9
REMARK    5  A    between atoms: C_9  and  C_10
REMARK    6  A    between atoms: C_10  and  N_11
REMARK    7  A    between atoms: C_15  and  C_16
REMARK                            x       y       z     vdW  Elec       q    Type
REMARK                         _______ _______ _______ _____ _____    ______ ____
ROOT
ATOM      1  C   UNL     1      32.582 -11.203 -22.708  0.00  0.00    +0.142 C 
ENDROOT
BRANCH   1   2
ATOM      2  C   UNL     1      33.534 -10.970 -23.859  0.00  0.00    +0.005 C 
ATOM      3  C   UNL     1      34.350  -9.851 -23.848  0.00  0.00    -0.002 C 
ATOM      4  C   UNL     1      33.570 -11.881 -24.902  0.00  0.00    -0.002 C 
ATOM      5  C   UNL     1      35.227  -9.637 -24.910  0.00  0.00    -0.000 C 
ATOM      6  C   UNL     1      34.449 -11.667 -25.965  0.00  0.00    -0.000 C 
ATOM      7  C   UNL     1      35.277 -10.545 -25.969  0.00  0.00    -0.000 C 
ENDBRANCH   1   2
BRANCH   1   8
ATOM      8  O   UNL     1      32.123 -12.547 -22.773  0.00  0.00    -0.354 OA
BRANCH   8   9
ATOM      9  C   UNL     1      32.483 -13.278 -21.608  0.00  0.00    +0.120 C 
BRANCH   9  10
ATOM     10  C   UNL     1      32.462 -14.763 -21.914  0.00  0.00    -0.041 C 
BRANCH  10  11
ATOM     11  N   UNL     1      33.879 -15.311 -21.835  0.00  0.00    +0.387 N 
ATOM     12  C   UNL     1      33.831 -16.807 -21.559  0.00  0.00    -0.096 C 
ATOM     13  C   UNL     1      34.592 -15.063 -23.157  0.00  0.00    -0.096 C 
ATOM     14  C   UNL     1      34.633 -14.611 -20.714  0.00  0.00    -0.096 C 
ENDBRANCH  10  11
ENDBRANCH   9  10
ENDBRANCH   8   9
ENDBRANCH   1   8
BRANCH   1  15
ATOM     15  C   UNL     1      31.369 -10.258 -22.720  0.00  0.00    +0.060 C 
BRANCH  15  16
ATOM     16  C   UNL     1      31.651  -8.909 -22.108  0.00  0.00    -0.019 C 
ATOM     17  C   UNL     1      31.328  -7.760 -22.814  0.00  0.00    -0.004 C 
ATOM     18  C   UNL     1      32.228  -8.841 -20.849  0.00  0.00    -0.004 C 
ATOM     19  C   UNL     1      31.590  -6.513 -22.247  0.00  0.00    -0.000 C 
ATOM     20  C   UNL     1      32.488  -7.593 -20.282  0.00  0.00    -0.000 C 
ATOM     21  C   UNL     1      32.170  -6.429 -20.982  0.00  0.00    -0.000 C 
ENDBRANCH  15  16
ENDBRANCH   1  15
TORSDOF 7
ENDMDL
MODEL 9
REMARK VINA RESULT:      -7.6      1.987      5.241
REMARK  Name = 71954
REMARK  7 active torsions:
REMARK  status: ('A' for Active; 'I' for Inactive)
REMARK    1  A    between atoms: C_1  and  C_2
REMARK    2  A    between atoms: C_1  and  O_8
REMARK    3  A    between atoms: C_1  and  C_15
REMARK    4  A    between atoms: O_8  and  C_9
REMARK    5  A    between atoms: C_9  and  C_10
REMARK    6  A    between atoms: C_10  and  N_11
REMARK    7  A    between atoms: C_15  and  C_16
REMARK                            x       y       z     vdW  Elec       q    Type
REMARK                         _______ _______ _______ _____ _____    ______ ____
ROOT
ATOM      1  C   UNL     1      34.805 -23.184 -15.965  0.00  0.00    +0.142 C 
ENDROOT
BRANCH   1   2
ATOM      2  C   UNL     1      35.047 -22.545 -17.315  0.00  0.00    +0.005 C 
ATOM      3  C   UNL     1      36.279 -21.976 -17.584  0.00  0.00    -0.002 C 
ATOM      4  C   UNL     1      34.027 -22.542 -18.252  0.00  0.00    -0.002 C 
ATOM      5  C   UNL     1      36.501 -21.387 -18.828  0.00  0.00    -0.000 C 
ATOM      6  C   UNL     1      34.249 -21.952 -19.498  0.00  0.00    -0.000 C 
ATOM      7  C   UNL     1      35.485 -21.375 -19.785  0.00  0.00    -0.000 C 
ENDBRANCH   1   2
BRANCH   1   8
ATOM      8  O   UNL     1      33.526 -22.775 -15.500  0.00  0.00    -0.354 OA
BRANCH   8   9
ATOM      9  C   UNL     1      32.750 -23.885 -15.065  0.00  0.00    +0.120 C 
BRANCH   9  10
ATOM     10  C   UNL     1      31.447 -23.927 -15.838  0.00  0.00    -0.041 C 
BRANCH  10  11
ATOM     11  N   UNL     1      30.282 -23.882 -14.860  0.00  0.00    +0.387 N 
ATOM     12  C   UNL     1      29.365 -22.721 -15.215  0.00  0.00    -0.096 C 
ATOM     13  C   UNL     1      29.501 -25.187 -14.942  0.00  0.00    -0.096 C 
ATOM     14  C   UNL     1      30.813 -23.697 -13.446  0.00  0.00    -0.096 C 
ENDBRANCH  10  11
ENDBRANCH   9  10
ENDBRANCH   8   9
ENDBRANCH   1   8
BRANCH   1  15
ATOM     15  C   UNL     1      35.864 -22.809 -14.915  0.00  0.00    +0.060 C 
BRANCH  15  16
ATOM     16  C   UNL     1      36.594 -23.999 -14.345  0.00  0.00    -0.019 C 
ATOM     17  C   UNL     1      36.397 -25.251 -14.907  0.00  0.00    -0.004 C 
ATOM     18  C   UNL     1      37.450 -23.820 -13.270  0.00  0.00    -0.004 C 
ATOM     19  C   UNL     1      37.073 -26.352 -14.379  0.00  0.00    -0.000 C 
ATOM     20  C   UNL     1      38.127 -24.921 -12.743  0.00  0.00    -0.000 C 
ATOM     21  C   UNL     1      37.937 -26.187 -13.297  0.00  0.00    -0.000 C 
ENDBRANCH  15  16
ENDBRANCH   1  15
TORSDOF 7
ENDMDL
