MODEL 1
REMARK VINA RESULT:      -7.5      0.000      0.000
REMARK  Name = 5276507
REMARK  14 active torsions:
REMARK  status: ('A' for Active; 'I' for Inactive)
REMARK    1  A    between atoms: C_1  and  P_2
REMARK    2  A    between atoms: C_1  and  P_8
REMARK    3  A    between atoms: C_1  and  O_14
REMARK    4  A    between atoms: C_1  and  C_16
REMARK    5  A    between atoms: P_2  and  O_4
REMARK    6  A    between atoms: P_2  and  O_6
REMARK    7  A    between atoms: P_8  and  O_10
REMARK    8  A    between atoms: P_8  and  O_12
REMARK    9  A    between atoms: C_16  and  C_17
REMARK   10  A    between atoms: C_17  and  C_18
REMARK   11  A    between atoms: C_18  and  C_19
REMARK   12  A    between atoms: C_19  and  C_20
REMARK   13  A    between atoms: C_20  and  C_21
REMARK   14  A    between atoms: C_21  and  C_22
REMARK                            x       y       z     vdW  Elec       q    Type
REMARK                         _______ _______ _______ _____ _____    ______ ____
ROOT
ATOM      1  C   UNL     1      37.039 -24.473 -13.795  0.00  0.00    +0.275 C 
ENDROOT
BRANCH   1   2
ATOM      2  P   UNL     1      38.433 -25.373 -14.562  0.00  0.00    +0.372 P 
ATOM      3  O   UNL     1      39.325 -26.116 -13.613  0.00  0.00    -0.255 OA
BRANCH   2   4
ATOM      4  O   UNL     1      37.724 -26.302 -15.677  0.00  0.00    -0.322 OA
ATOM      5  H   UNL     1      38.101 -26.105 -16.549  0.00  0.00    +0.220 HD
ENDBRANCH   2   4
BRANCH   2   6
ATOM      6  O   UNL     1      39.166 -24.235 -15.447  0.00  0.00    -0.322 OA
ATOM      7  H   UNL     1      40.084 -24.500 -15.619  0.00  0.00    +0.220 HD
ENDBRANCH   2   6
ENDBRANCH   1   2
BRANCH   1   8
ATOM      8  P   UNL     1      36.459 -24.880 -12.094  0.00  0.00    +0.372 P 
ATOM      9  O   UNL     1      35.030 -24.524 -11.815  0.00  0.00    -0.255 OA
BRANCH   8  10
ATOM     10  O   UNL     1      36.816 -26.451 -11.959  0.00  0.00    -0.322 OA
ATOM     11  H   UNL     1      36.357 -26.822 -11.189  0.00  0.00    +0.220 HD
ENDBRANCH   8  10
BRANCH   8  12
ATOM     12  O   UNL     1      37.541 -24.166 -11.130  0.00  0.00    -0.322 OA
ATOM     13  H   UNL     1      37.347 -23.217 -11.072  0.00  0.00    +0.220 HD
ENDBRANCH   8  12
ENDBRANCH   1   8
BRANCH   1  14
ATOM     14  O   UNL     1      37.575 -23.159 -13.627  0.00  0.00    -0.367 OA
ATOM     15  H   UNL     1      36.850 -22.530 -13.487  0.00  0.00    +0.212 HD
ENDBRANCH   1  14
BRANCH   1  16
ATOM     16  C   UNL     1      35.803 -24.406 -14.725  0.00  0.00    +0.051 C 
BRANCH  16  17
ATOM     17  C   UNL     1      35.355 -22.996 -15.116  0.00  0.00    +0.004 C 
BRANCH  17  18
ATOM     18  C   UNL     1      35.411 -22.743 -16.627  0.00  0.00    +0.000 C 
BRANCH  18  19
ATOM     19  C   UNL     1      36.662 -22.017 -17.135  0.00  0.00    +0.000 C 
BRANCH  19  20
ATOM     20  C   UNL     1      36.541 -21.531 -18.582  0.00  0.00    +0.000 C 
BRANCH  20  21
ATOM     21  C   UNL     1      35.128 -21.756 -19.125  0.00  0.00    +0.000 C 
BRANCH  21  22
ATOM     22  C   UNL     1      34.696 -20.698 -20.144  0.00  0.00    +0.000 C 
ATOM     23  C   UNL     1      33.189 -20.512 -20.225  0.00  0.00    +0.000 C 
ENDBRANCH  21  22
ENDBRANCH  20  21
ENDBRANCH  19  20
ENDBRANCH  18  19
ENDBRANCH  17  18
ENDBRANCH  16  17
ENDBRANCH   1  16
TORSDOF 14
ENDMDL
MODEL 2
REMARK VINA RESULT:      -7.5      1.209      1.834
REMARK  Name = 5276507
REMARK  14 active torsions:
REMARK  status: ('A' for Active; 'I' for Inactive)
REMARK    1  A    between atoms: C_1  and  P_2
REMARK    2  A    between atoms: C_1  and  P_8
REMARK    3  A    between atoms: C_1  and  O_14
REMARK    4  A    between atoms: C_1  and  C_16
REMARK    5  A    between atoms: P_2  and  O_4
REMARK    6  A    between atoms: P_2  and  O_6
REMARK    7  A    between atoms: P_8  and  O_10
REMARK    8  A    between atoms: P_8  and  O_12
REMARK    9  A    between atoms: C_16  and  C_17
REMARK   10  A    between atoms: C_17  and  C_18
REMARK   11  A    between atoms: C_18  and  C_19
REMARK   12  A    between atoms: C_19  and  C_20
REMARK   13  A    between atoms: C_20  and  C_21
REMARK   14  A    between atoms: C_21  and  C_22
REMARK                            x       y       z     vdW  Elec       q    Type
REMARK                         _______ _______ _______ _____ _____    ______ ____
ROOT
ATOM      1  C   UNL     1      37.468 -24.474 -13.919  0.00  0.00    +0.275 C 
ENDROOT
BRANCH   1   2
ATOM      2  P   UNL     1      37.266 -26.267 -14.205  0.00  0.00    +0.372 P 
ATOM      3  O   UNL     1      38.458 -26.970 -14.783  0.00  0.00    -0.255 OA
BRANCH   2   4
ATOM      4  O   UNL     1      36.788 -26.834 -12.770  0.00  0.00    -0.322 OA
ATOM      5  H   UNL     1      36.599 -26.091 -12.176  0.00  0.00    +0.220 HD
ENDBRANCH   2   4
BRANCH   2   6
ATOM      6  O   UNL     1      35.919 -26.350 -15.097  0.00  0.00    -0.322 OA
ATOM      7  H   UNL     1      36.157 -26.413 -16.036  0.00  0.00    +0.220 HD
ENDBRANCH   2   6
ENDBRANCH   1   2
BRANCH   1   8
ATOM      8  P   UNL     1      37.145 -23.727 -12.266  0.00  0.00    +0.372 P 
ATOM      9  O   UNL     1      35.705 -23.410 -11.990  0.00  0.00    -0.255 OA
BRANCH   8  10
ATOM     10  O   UNL     1      37.823 -24.789 -11.254  0.00  0.00    -0.322 OA
ATOM     11  H   UNL     1      37.856 -24.409 -10.362  0.00  0.00    +0.220 HD
ENDBRANCH   8  10
BRANCH   8  12
ATOM     12  O   UNL     1      38.146 -22.460 -12.206  0.00  0.00    -0.322 OA
ATOM     13  H   UNL     1      37.646 -21.645 -12.370  0.00  0.00    +0.220 HD
ENDBRANCH   8  12
ENDBRANCH   1   8
BRANCH   1  14
ATOM     14  O   UNL     1      38.878 -24.295 -14.064  0.00  0.00    -0.367 OA
ATOM     15  H   UNL     1      39.295 -25.151 -14.247  0.00  0.00    +0.212 HD
ENDBRANCH   1  14
BRANCH   1  16
ATOM     16  C   UNL     1      36.733 -23.624 -14.986  0.00  0.00    +0.051 C 
BRANCH  16  17
ATOM     17  C   UNL     1      37.642 -22.846 -15.941  0.00  0.00    +0.004 C 
BRANCH  17  18
ATOM     18  C   UNL     1      36.940 -21.655 -16.605  0.00  0.00    +0.000 C 
BRANCH  18  19
ATOM     19  C   UNL     1      36.136 -21.977 -17.868  0.00  0.00    +0.000 C 
BRANCH  19  20
ATOM     20  C   UNL     1      36.704 -21.331 -19.136  0.00  0.00    +0.000 C 
BRANCH  20  21
ATOM     21  C   UNL     1      35.583 -20.888 -20.080  0.00  0.00    +0.000 C 
BRANCH  21  22
ATOM     22  C   UNL     1      34.191 -21.311 -19.607  0.00  0.00    +0.000 C 
ATOM     23  C   UNL     1      33.068 -20.468 -20.192  0.00  0.00    +0.000 C 
ENDBRANCH  21  22
ENDBRANCH  20  21
ENDBRANCH  19  20
ENDBRANCH  18  19
ENDBRANCH  17  18
ENDBRANCH  16  17
ENDBRANCH   1  16
TORSDOF 14
ENDMDL
MODEL 3
REMARK VINA RESULT:      -7.3      0.705      2.916
REMARK  Name = 5276507
REMARK  14 active torsions:
REMARK  status: ('A' for Active; 'I' for Inactive)
REMARK    1  A    between atoms: C_1  and  P_2
REMARK    2  A    between atoms: C_1  and  P_8
REMARK    3  A    between atoms: C_1  and  O_14
REMARK    4  A    between atoms: C_1  and  C_16
REMARK    5  A    between atoms: P_2  and  O_4
REMARK    6  A    between atoms: P_2  and  O_6
REMARK    7  A    between atoms: P_8  and  O_10
REMARK    8  A    between atoms: P_8  and  O_12
REMARK    9  A    between atoms: C_16  and  C_17
REMARK   10  A    between atoms: C_17  and  C_18
REMARK   11  A    between atoms: C_18  and  C_19
REMARK   12  A    between atoms: C_19  and  C_20
REMARK   13  A    between atoms: C_20  and  C_21
REMARK   14  A    between atoms: C_21  and  C_22
REMARK                            x       y       z     vdW  Elec       q    Type
REMARK                         _______ _______ _______ _____ _____    ______ ____
ROOT
ATOM      1  C   UNL     1      36.720 -24.755 -13.821  0.00  0.00    +0.275 C 
ENDROOT
BRANCH   1   2
ATOM      2  P   UNL     1      36.489 -25.083 -12.038  0.00  0.00    +0.372 P 
ATOM      3  O   UNL     1      35.136 -24.746 -11.486  0.00  0.00    -0.255 OA
BRANCH   2   4
ATOM      4  O   UNL     1      36.908 -26.634 -11.875  0.00  0.00    -0.322 OA
ATOM      5  H   UNL     1      37.524 -26.726 -11.129  0.00  0.00    +0.220 HD
ENDBRANCH   2   4
BRANCH   2   6
ATOM      6  O   UNL     1      37.727 -24.297 -11.354  0.00  0.00    -0.322 OA
ATOM      7  H   UNL     1      37.440 -23.915 -10.509  0.00  0.00    +0.220 HD
ENDBRANCH   2   6
ENDBRANCH   1   2
BRANCH   1   8
ATOM      8  P   UNL     1      38.277 -25.225 -14.685  0.00  0.00    +0.372 P 
ATOM      9  O   UNL     1      39.029 -24.080 -15.295  0.00  0.00    -0.255 OA
BRANCH   8  10
ATOM     10  O   UNL     1      39.082 -26.051 -13.553  0.00  0.00    -0.322 OA
ATOM     11  H   UNL     1      39.036 -25.574 -12.710  0.00  0.00    +0.220 HD
ENDBRANCH   8  10
BRANCH   8  12
ATOM     12  O   UNL     1      37.816 -26.370 -15.728  0.00  0.00    -0.322 OA
ATOM     13  H   UNL     1      37.915 -26.040 -16.635  0.00  0.00    +0.220 HD
ENDBRANCH   8  12
ENDBRANCH   1   8
BRANCH   1  14
ATOM     14  O   UNL     1      35.762 -25.628 -14.422  0.00  0.00    -0.367 OA
ATOM     15  H   UNL     1      36.199 -26.452 -14.688  0.00  0.00    +0.212 HD
ENDBRANCH   1  14
BRANCH   1  16
ATOM     16  C   UNL     1      36.382 -23.290 -14.194  0.00  0.00    +0.051 C 
BRANCH  16  17
ATOM     17  C   UNL     1      35.069 -23.097 -14.957  0.00  0.00    +0.004 C 
BRANCH  17  18
ATOM     18  C   UNL     1      35.269 -22.927 -16.468  0.00  0.00    +0.000 C 
BRANCH  18  19
ATOM     19  C   UNL     1      36.494 -22.109 -16.890  0.00  0.00    +0.000 C 
BRANCH  19  20
ATOM     20  C   UNL     1      36.488 -21.718 -18.370  0.00  0.00    +0.000 C 
BRANCH  20  21
ATOM     21  C   UNL     1      35.087 -21.851 -18.971  0.00  0.00    +0.000 C 
BRANCH  21  22
ATOM     22  C   UNL     1      34.790 -20.807 -20.051  0.00  0.00    +0.000 C 
ATOM     23  C   UNL     1      33.307 -20.516 -20.224  0.00  0.00    +0.000 C 
ENDBRANCH  21  22
ENDBRANCH  20  21
ENDBRANCH  19  20
ENDBRANCH  18  19
ENDBRANCH  17  18
ENDBRANCH  16  17
ENDBRANCH   1  16
TORSDOF 14
ENDMDL
MODEL 4
REMARK VINA RESULT:      -7.2      1.344      2.732
REMARK  Name = 5276507
REMARK  14 active torsions:
REMARK  status: ('A' for Active; 'I' for Inactive)
REMARK    1  A    between atoms: C_1  and  P_2
REMARK    2  A    between atoms: C_1  and  P_8
REMARK    3  A    between atoms: C_1  and  O_14
REMARK    4  A    between atoms: C_1  and  C_16
REMARK    5  A    between atoms: P_2  and  O_4
REMARK    6  A    between atoms: P_2  and  O_6
REMARK    7  A    between atoms: P_8  and  O_10
REMARK    8  A    between atoms: P_8  and  O_12
REMARK    9  A    between atoms: C_16  and  C_17
REMARK   10  A    between atoms: C_17  and  C_18
REMARK   11  A    between atoms: C_18  and  C_19
REMARK   12  A    between atoms: C_19  and  C_20
REMARK   13  A    between atoms: C_20  and  C_21
REMARK   14  A    between atoms: C_21  and  C_22
REMARK                            x       y       z     vdW  Elec       q    Type
REMARK                         _______ _______ _______ _____ _____    ______ ____
ROOT
ATOM      1  C   UNL     1      36.955 -24.682 -14.186  0.00  0.00    +0.275 C 
ENDROOT
BRANCH   1   2
ATOM      2  P   UNL     1      37.522 -24.019 -12.581  0.00  0.00    +0.372 P 
ATOM      3  O   UNL     1      37.061 -22.630 -12.254  0.00  0.00    -0.255 OA
BRANCH   2   4
ATOM      4  O   UNL     1      37.062 -25.142 -11.515  0.00  0.00    -0.322 OA
ATOM      5  H   UNL     1      36.416 -24.759 -10.900  0.00  0.00    +0.220 HD
ENDBRANCH   2   4
BRANCH   2   6
ATOM      6  O   UNL     1      39.127 -24.214 -12.646  0.00  0.00    -0.322 OA
ATOM      7  H   UNL     1      39.531 -23.434 -13.059  0.00  0.00    +0.220 HD
ENDBRANCH   2   6
ENDBRANCH   1   2
BRANCH   1   8
ATOM      8  P   UNL     1      37.244 -26.442 -14.649  0.00  0.00    +0.372 P 
ATOM      9  O   UNL     1      36.526 -26.894 -15.886  0.00  0.00    -0.255 OA
BRANCH   8  10
ATOM     10  O   UNL     1      38.856 -26.536 -14.716  0.00  0.00    -0.322 OA
ATOM     11  H   UNL     1      39.128 -27.466 -14.678  0.00  0.00    +0.220 HD
ENDBRANCH   8  10
BRANCH   8  12
ATOM     12  O   UNL     1      36.876 -27.265 -13.309  0.00  0.00    -0.322 OA
ATOM     13  H   UNL     1      36.340 -26.707 -12.723  0.00  0.00    +0.220 HD
ENDBRANCH   8  12
ENDBRANCH   1   8
BRANCH   1  14
ATOM     14  O   UNL     1      35.533 -24.632 -14.056  0.00  0.00    -0.367 OA
ATOM     15  H   UNL     1      35.252 -23.712 -13.933  0.00  0.00    +0.212 HD
ENDBRANCH   1  14
BRANCH   1  16
ATOM     16  C   UNL     1      37.392 -23.791 -15.375  0.00  0.00    +0.051 C 
BRANCH  16  17
ATOM     17  C   UNL     1      36.371 -22.736 -15.809  0.00  0.00    +0.004 C 
BRANCH  17  18
ATOM     18  C   UNL     1      36.821 -21.931 -17.035  0.00  0.00    +0.000 C 
BRANCH  18  19
ATOM     19  C   UNL     1      35.862 -21.948 -18.230  0.00  0.00    +0.000 C 
BRANCH  19  20
ATOM     20  C   UNL     1      36.448 -21.308 -19.493  0.00  0.00    +0.000 C 
BRANCH  20  21
ATOM     21  C   UNL     1      35.379 -20.530 -20.265  0.00  0.00    +0.000 C 
BRANCH  21  22
ATOM     22  C   UNL     1      33.950 -20.936 -19.895  0.00  0.00    +0.000 C 
ATOM     23  C   UNL     1      32.884 -20.078 -20.559  0.00  0.00    +0.000 C 
ENDBRANCH  21  22
ENDBRANCH  20  21
ENDBRANCH  19  20
ENDBRANCH  18  19
ENDBRANCH  17  18
ENDBRANCH  16  17
ENDBRANCH   1  16
TORSDOF 14
ENDMDL
MODEL 5
REMARK VINA RESULT:      -7.0      1.333      3.219
REMARK  Name = 5276507
REMARK  14 active torsions:
REMARK  status: ('A' for Active; 'I' for Inactive)
REMARK    1  A    between atoms: C_1  and  P_2
REMARK    2  A    between atoms: C_1  and  P_8
REMARK    3  A    between atoms: C_1  and  O_14
REMARK    4  A    between atoms: C_1  and  C_16
REMARK    5  A    between atoms: P_2  and  O_4
REMARK    6  A    between atoms: P_2  and  O_6
REMARK    7  A    between atoms: P_8  and  O_10
REMARK    8  A    between atoms: P_8  and  O_12
REMARK    9  A    between atoms: C_16  and  C_17
REMARK   10  A    between atoms: C_17  and  C_18
REMARK   11  A    between atoms: C_18  and  C_19
REMARK   12  A    between atoms: C_19  and  C_20
REMARK   13  A    between atoms: C_20  and  C_21
REMARK   14  A    between atoms: C_21  and  C_22
REMARK                            x       y       z     vdW  Elec       q    Type
REMARK                         _______ _______ _______ _____ _____    ______ ____
ROOT
ATOM      1  C   UNL     1      35.846 -24.634 -13.924  0.00  0.00    +0.275 C 
ENDROOT
BRANCH   1   2
ATOM      2  P   UNL     1      35.894 -24.395 -12.113  0.00  0.00    +0.372 P 
ATOM      3  O   UNL     1      36.171 -25.626 -11.303  0.00  0.00    -0.255 OA
BRANCH   2   4
ATOM      4  O   UNL     1      36.970 -23.207 -11.909  0.00  0.00    -0.322 OA
ATOM      5  H   UNL     1      37.859 -23.538 -12.115  0.00  0.00    +0.220 HD
ENDBRANCH   2   4
BRANCH   2   6
ATOM      6  O   UNL     1      34.484 -23.667 -11.798  0.00  0.00    -0.322 OA
ATOM      7  H   UNL     1      33.899 -23.748 -12.569  0.00  0.00    +0.220 HD
ENDBRANCH   2   6
ENDBRANCH   1   2
BRANCH   1   8
ATOM      8  P   UNL     1      36.930 -25.872 -14.752  0.00  0.00    +0.372 P 
ATOM      9  O   UNL     1      36.245 -26.719 -15.783  0.00  0.00    -0.255 OA
BRANCH   8  10
ATOM     10  O   UNL     1      38.151 -24.969 -15.305  0.00  0.00    -0.322 OA
ATOM     11  H   UNL     1      38.381 -24.296 -14.645  0.00  0.00    +0.220 HD
ENDBRANCH   8  10
BRANCH   8  12
ATOM     12  O   UNL     1      37.595 -26.692 -13.529  0.00  0.00    -0.322 OA
ATOM     13  H   UNL     1      37.839 -26.075 -12.821  0.00  0.00    +0.220 HD
ENDBRANCH   8  12
ENDBRANCH   1   8
BRANCH   1  14
ATOM     14  O   UNL     1      34.544 -25.184 -14.129  0.00  0.00    -0.367 OA
ATOM     15  H   UNL     1      34.625 -26.096 -14.450  0.00  0.00    +0.212 HD
ENDBRANCH   1  14
BRANCH   1  16
ATOM     16  C   UNL     1      35.964 -23.296 -14.694  0.00  0.00    +0.051 C 
BRANCH  16  17
ATOM     17  C   UNL     1      34.704 -22.865 -15.450  0.00  0.00    +0.004 C 
BRANCH  17  18
ATOM     18  C   UNL     1      34.851 -22.966 -16.974  0.00  0.00    +0.000 C 
BRANCH  18  19
ATOM     19  C   UNL     1      33.549 -23.166 -17.756  0.00  0.00    +0.000 C 
BRANCH  19  20
ATOM     20  C   UNL     1      33.372 -22.175 -18.911  0.00  0.00    +0.000 C 
BRANCH  20  21
ATOM     21  C   UNL     1      34.723 -21.645 -19.397  0.00  0.00    +0.000 C 
BRANCH  21  22
ATOM     22  C   UNL     1      34.599 -20.444 -20.337  0.00  0.00    +0.000 C 
ATOM     23  C   UNL     1      33.161 -20.021 -20.596  0.00  0.00    +0.000 C 
ENDBRANCH  21  22
ENDBRANCH  20  21
ENDBRANCH  19  20
ENDBRANCH  18  19
ENDBRANCH  17  18
ENDBRANCH  16  17
ENDBRANCH   1  16
TORSDOF 14
ENDMDL
MODEL 6
REMARK VINA RESULT:      -6.9      2.445      3.562
REMARK  Name = 5276507
REMARK  14 active torsions:
REMARK  status: ('A' for Active; 'I' for Inactive)
REMARK    1  A    between atoms: C_1  and  P_2
REMARK    2  A    between atoms: C_1  and  P_8
REMARK    3  A    between atoms: C_1  and  O_14
REMARK    4  A    between atoms: C_1  and  C_16
REMARK    5  A    between atoms: P_2  and  O_4
REMARK    6  A    between atoms: P_2  and  O_6
REMARK    7  A    between atoms: P_8  and  O_10
REMARK    8  A    between atoms: P_8  and  O_12
REMARK    9  A    between atoms: C_16  and  C_17
REMARK   10  A    between atoms: C_17  and  C_18
REMARK   11  A    between atoms: C_18  and  C_19
REMARK   12  A    between atoms: C_19  and  C_20
REMARK   13  A    between atoms: C_20  and  C_21
REMARK   14  A    between atoms: C_21  and  C_22
REMARK                            x       y       z     vdW  Elec       q    Type
REMARK                         _______ _______ _______ _____ _____    ______ ____
ROOT
ATOM      1  C   UNL     1      37.102 -24.504 -13.832  0.00  0.00    +0.275 C 
ENDROOT
BRANCH   1   2
ATOM      2  P   UNL     1      38.622 -25.256 -14.515  0.00  0.00    +0.372 P 
ATOM      3  O   UNL     1      39.565 -24.309 -15.195  0.00  0.00    -0.255 OA
BRANCH   2   4
ATOM      4  O   UNL     1      39.259 -26.045 -13.258  0.00  0.00    -0.322 OA
ATOM      5  H   UNL     1      40.199 -26.217 -13.428  0.00  0.00    +0.220 HD
ENDBRANCH   2   4
BRANCH   2   6
ATOM      6  O   UNL     1      38.056 -26.451 -15.448  0.00  0.00    -0.322 OA
ATOM      7  H   UNL     1      37.351 -26.109 -16.020  0.00  0.00    +0.220 HD
ENDBRANCH   2   6
ENDBRANCH   1   2
BRANCH   1   8
ATOM      8  P   UNL     1      36.519 -24.905 -12.131  0.00  0.00    +0.372 P 
ATOM      9  O   UNL     1      35.119 -24.464 -11.826  0.00  0.00    -0.255 OA
BRANCH   8  10
ATOM     10  O   UNL     1      36.777 -26.497 -12.029  0.00  0.00    -0.322 OA
ATOM     11  H   UNL     1      36.128 -26.892 -11.426  0.00  0.00    +0.220 HD
ENDBRANCH   8  10
BRANCH   8  12
ATOM     12  O   UNL     1      37.656 -24.278 -11.170  0.00  0.00    -0.322 OA
ATOM     13  H   UNL     1      37.252 -23.986 -10.338  0.00  0.00    +0.220 HD
ENDBRANCH   8  12
ENDBRANCH   1   8
BRANCH   1  14
ATOM     14  O   UNL     1      37.466 -23.128 -13.713  0.00  0.00    -0.367 OA
ATOM     15  H   UNL     1      38.256 -22.954 -14.248  0.00  0.00    +0.212 HD
ENDBRANCH   1  14
BRANCH   1  16
ATOM     16  C   UNL     1      35.900 -24.633 -14.799  0.00  0.00    +0.051 C 
BRANCH  16  17
ATOM     17  C   UNL     1      35.617 -23.398 -15.658  0.00  0.00    +0.004 C 
BRANCH  17  18
ATOM     18  C   UNL     1      34.121 -23.094 -15.802  0.00  0.00    +0.000 C 
BRANCH  18  19
ATOM     19  C   UNL     1      33.205 -23.749 -14.762  0.00  0.00    +0.000 C 
BRANCH  19  20
ATOM     20  C   UNL     1      31.829 -23.086 -14.656  0.00  0.00    +0.000 C 
BRANCH  20  21
ATOM     21  C   UNL     1      31.056 -23.202 -15.972  0.00  0.00    +0.000 C 
BRANCH  21  22
ATOM     22  C   UNL     1      29.804 -24.075 -15.864  0.00  0.00    +0.000 C 
ATOM     23  C   UNL     1      29.879 -25.108 -14.750  0.00  0.00    +0.000 C 
ENDBRANCH  21  22
ENDBRANCH  20  21
ENDBRANCH  19  20
ENDBRANCH  18  19
ENDBRANCH  17  18
ENDBRANCH  16  17
ENDBRANCH   1  16
TORSDOF 14
ENDMDL
MODEL 7
REMARK VINA RESULT:      -6.8      1.210      2.315
REMARK  Name = 5276507
REMARK  14 active torsions:
REMARK  status: ('A' for Active; 'I' for Inactive)
REMARK    1  A    between atoms: C_1  and  P_2
REMARK    2  A    between atoms: C_1  and  P_8
REMARK    3  A    between atoms: C_1  and  O_14
REMARK    4  A    between atoms: C_1  and  C_16
REMARK    5  A    between atoms: P_2  and  O_4
REMARK    6  A    between atoms: P_2  and  O_6
REMARK    7  A    between atoms: P_8  and  O_10
REMARK    8  A    between atoms: P_8  and  O_12
REMARK    9  A    between atoms: C_16  and  C_17
REMARK   10  A    between atoms: C_17  and  C_18
REMARK   11  A    between atoms: C_18  and  C_19
REMARK   12  A    between atoms: C_19  and  C_20
REMARK   13  A    between atoms: C_20  and  C_21
REMARK   14  A    between atoms: C_21  and  C_22
REMARK                            x       y       z     vdW  Elec       q    Type
REMARK                         _______ _______ _______ _____ _____    ______ ____
ROOT
ATOM      1  C   UNL     1      36.315 -24.253 -13.730  0.00  0.00    +0.275 C 
ENDROOT
BRANCH   1   2
ATOM      2  P   UNL     1      37.835 -24.267 -14.746  0.00  0.00    +0.372 P 
ATOM      3  O   UNL     1      38.085 -23.028 -15.554  0.00  0.00    -0.255 OA
BRANCH   2   4
ATOM      4  O   UNL     1      39.003 -24.620 -13.688  0.00  0.00    -0.322 OA
ATOM      5  H   UNL     1      39.564 -25.324 -14.049  0.00  0.00    +0.220 HD
ENDBRANCH   2   4
BRANCH   2   6
ATOM      6  O   UNL     1      37.694 -25.631 -15.604  0.00  0.00    -0.322 OA
ATOM      7  H   UNL     1      38.111 -26.362 -15.119  0.00  0.00    +0.220 HD
ENDBRANCH   2   6
ENDBRANCH   1   2
BRANCH   1   8
ATOM      8  P   UNL     1      36.318 -24.884 -11.999  0.00  0.00    +0.372 P 
ATOM      9  O   UNL     1      37.085 -24.041 -11.023  0.00  0.00    -0.255 OA
BRANCH   8  10
ATOM     10  O   UNL     1      34.744 -25.052 -11.675  0.00  0.00    -0.322 OA
ATOM     11  H   UNL     1      34.488 -24.426 -10.980  0.00  0.00    +0.220 HD
ENDBRANCH   8  10
BRANCH   8  12
ATOM     12  O   UNL     1      36.837 -26.407 -12.138  0.00  0.00    -0.322 OA
ATOM     13  H   UNL     1      36.827 -26.669 -13.073  0.00  0.00    +0.220 HD
ENDBRANCH   8  12
ENDBRANCH   1   8
BRANCH   1  14
ATOM     14  O   UNL     1      36.080 -22.856 -13.544  0.00  0.00    -0.367 OA
ATOM     15  H   UNL     1      35.138 -22.667 -13.675  0.00  0.00    +0.212 HD
ENDBRANCH   1  14
BRANCH   1  16
ATOM     16  C   UNL     1      35.110 -24.881 -14.472  0.00  0.00    +0.051 C 
BRANCH  16  17
ATOM     17  C   UNL     1      34.080 -23.882 -15.005  0.00  0.00    +0.004 C 
BRANCH  17  18
ATOM     18  C   UNL     1      34.420 -23.354 -16.404  0.00  0.00    +0.000 C 
BRANCH  18  19
ATOM     19  C   UNL     1      33.268 -23.353 -17.414  0.00  0.00    +0.000 C 
BRANCH  19  20
ATOM     20  C   UNL     1      33.380 -22.249 -18.469  0.00  0.00    +0.000 C 
BRANCH  20  21
ATOM     21  C   UNL     1      34.449 -22.586 -19.512  0.00  0.00    +0.000 C 
BRANCH  21  22
ATOM     22  C   UNL     1      35.527 -21.508 -19.644  0.00  0.00    +0.000 C 
ATOM     23  C   UNL     1      36.535 -21.515 -18.506  0.00  0.00    +0.000 C 
ENDBRANCH  21  22
ENDBRANCH  20  21
ENDBRANCH  19  20
ENDBRANCH  18  19
ENDBRANCH  17  18
ENDBRANCH  16  17
ENDBRANCH   1  16
TORSDOF 14
ENDMDL
MODEL 8
REMARK VINA RESULT:      -6.8      8.156     10.235
REMARK  Name = 5276507
REMARK  14 active torsions:
REMARK  status: ('A' for Active; 'I' for Inactive)
REMARK    1  A    between atoms: C_1  and  P_2
REMARK    2  A    between atoms: C_1  and  P_8
REMARK    3  A    between atoms: C_1  and  O_14
REMARK    4  A    between atoms: C_1  and  C_16
REMARK    5  A    between atoms: P_2  and  O_4
REMARK    6  A    between atoms: P_2  and  O_6
REMARK    7  A    between atoms: P_8  and  O_10
REMARK    8  A    between atoms: P_8  and  O_12
REMARK    9  A    between atoms: C_16  and  C_17
REMARK   10  A    between atoms: C_17  and  C_18
REMARK   11  A    between atoms: C_18  and  C_19
REMARK   12  A    between atoms: C_19  and  C_20
REMARK   13  A    between atoms: C_20  and  C_21
REMARK   14  A    between atoms: C_21  and  C_22
REMARK                            x       y       z     vdW  Elec       q    Type
REMARK                         _______ _______ _______ _____ _____    ______ ____
ROOT
ATOM      1  C   UNL     1      34.382 -17.374 -21.573  0.00  0.00    +0.275 C 
ENDROOT
BRANCH   1   2
ATOM      2  P   UNL     1      33.584 -15.771 -21.206  0.00  0.00    +0.372 P 
ATOM      3  O   UNL     1      32.390 -15.835 -20.301  0.00  0.00    -0.255 OA
BRANCH   2   4
ATOM      4  O   UNL     1      34.794 -14.857 -20.650  0.00  0.00    -0.322 OA
ATOM      5  H   UNL     1      34.978 -14.145 -21.283  0.00  0.00    +0.220 HD
ENDBRANCH   2   4
BRANCH   2   6
ATOM      6  O   UNL     1      33.303 -15.152 -22.673  0.00  0.00    -0.322 OA
ATOM      7  H   UNL     1      34.101 -14.700 -22.991  0.00  0.00    +0.220 HD
ENDBRANCH   2   6
ENDBRANCH   1   2
BRANCH   1   8
ATOM      8  P   UNL     1      35.302 -17.644 -23.146  0.00  0.00    +0.372 P 
ATOM      9  O   UNL     1      34.560 -18.437 -24.181  0.00  0.00    -0.255 OA
BRANCH   8  10
ATOM     10  O   UNL     1      35.707 -16.144 -23.589  0.00  0.00    -0.322 OA
ATOM     11  H   UNL     1      35.504 -16.018 -24.529  0.00  0.00    +0.220 HD
ENDBRANCH   8  10
BRANCH   8  12
ATOM     12  O   UNL     1      36.706 -18.288 -22.673  0.00  0.00    -0.322 OA
ATOM     13  H   UNL     1      37.309 -17.580 -22.393  0.00  0.00    +0.220 HD
ENDBRANCH   8  12
ENDBRANCH   1   8
BRANCH   1  14
ATOM     14  O   UNL     1      35.423 -17.432 -20.598  0.00  0.00    -0.367 OA
ATOM     15  H   UNL     1      35.149 -18.005 -19.865  0.00  0.00    +0.212 HD
ENDBRANCH   1  14
BRANCH   1  16
ATOM     16  C   UNL     1      33.419 -18.569 -21.365  0.00  0.00    +0.051 C 
BRANCH  16  17
ATOM     17  C   UNL     1      34.087 -19.880 -20.944  0.00  0.00    +0.004 C 
BRANCH  17  18
ATOM     18  C   UNL     1      33.268 -20.672 -19.917  0.00  0.00    +0.000 C 
BRANCH  18  19
ATOM     19  C   UNL     1      34.014 -21.803 -19.201  0.00  0.00    +0.000 C 
BRANCH  19  20
ATOM     20  C   UNL     1      35.456 -21.985 -19.682  0.00  0.00    +0.000 C 
BRANCH  20  21
ATOM     21  C   UNL     1      36.456 -21.501 -18.629  0.00  0.00    +0.000 C 
BRANCH  21  22
ATOM     22  C   UNL     1      36.253 -22.152 -17.259  0.00  0.00    +0.000 C 
ATOM     23  C   UNL     1      37.386 -21.877 -16.282  0.00  0.00    +0.000 C 
ENDBRANCH  21  22
ENDBRANCH  20  21
ENDBRANCH  19  20
ENDBRANCH  18  19
ENDBRANCH  17  18
ENDBRANCH  16  17
ENDBRANCH   1  16
TORSDOF 14
ENDMDL
MODEL 9
REMARK VINA RESULT:      -6.7      1.587      2.578
REMARK  Name = 5276507
REMARK  14 active torsions:
REMARK  status: ('A' for Active; 'I' for Inactive)
REMARK    1  A    between atoms: C_1  and  P_2
REMARK    2  A    between atoms: C_1  and  P_8
REMARK    3  A    between atoms: C_1  and  O_14
REMARK    4  A    between atoms: C_1  and  C_16
REMARK    5  A    between atoms: P_2  and  O_4
REMARK    6  A    between atoms: P_2  and  O_6
REMARK    7  A    between atoms: P_8  and  O_10
REMARK    8  A    between atoms: P_8  and  O_12
REMARK    9  A    between atoms: C_16  and  C_17
REMARK   10  A    between atoms: C_17  and  C_18
REMARK   11  A    between atoms: C_18  and  C_19
REMARK   12  A    between atoms: C_19  and  C_20
REMARK   13  A    between atoms: C_20  and  C_21
REMARK   14  A    between atoms: C_21  and  C_22
REMARK                            x       y       z     vdW  Elec       q    Type
REMARK                         _______ _______ _______ _____ _____    ______ ____
ROOT
ATOM      1  C   UNL     1      36.341 -23.805 -13.248  0.00  0.00    +0.275 C 
ENDROOT
BRANCH   1   2
ATOM      2  P   UNL     1      37.530 -25.033 -12.602  0.00  0.00    +0.372 P 
ATOM      3  O   UNL     1      38.591 -25.476 -13.565  0.00  0.00    -0.255 OA
BRANCH   2   4
ATOM      4  O   UNL     1      38.097 -24.349 -11.254  0.00  0.00    -0.322 OA
ATOM      5  H   UNL     1      37.401 -23.808 -10.848  0.00  0.00    +0.220 HD
ENDBRANCH   2   4
BRANCH   2   6
ATOM      6  O   UNL     1      36.576 -26.212 -12.039  0.00  0.00    -0.322 OA
ATOM      7  H   UNL     1      35.911 -26.438 -12.710  0.00  0.00    +0.220 HD
ENDBRANCH   2   6
ENDBRANCH   1   2
BRANCH   1   8
ATOM      8  P   UNL     1      34.762 -24.328 -14.040  0.00  0.00    +0.372 P 
ATOM      9  O   UNL     1      34.120 -23.289 -14.910  0.00  0.00    -0.255 OA
BRANCH   8  10
ATOM     10  O   UNL     1      35.175 -25.697 -14.794  0.00  0.00    -0.322 OA
ATOM     11  H   UNL     1      34.815 -26.455 -14.308  0.00  0.00    +0.220 HD
ENDBRANCH   8  10
BRANCH   8  12
ATOM     12  O   UNL     1      33.854 -24.839 -12.806  0.00  0.00    -0.322 OA
ATOM     13  H   UNL     1      34.248 -24.542 -11.970  0.00  0.00    +0.220 HD
ENDBRANCH   8  12
ENDBRANCH   1   8
BRANCH   1  14
ATOM     14  O   UNL     1      35.885 -23.161 -12.057  0.00  0.00    -0.367 OA
ATOM     15  H   UNL     1      36.281 -22.278 -11.994  0.00  0.00    +0.212 HD
ENDBRANCH   1  14
BRANCH   1  16
ATOM     16  C   UNL     1      37.020 -22.759 -14.166  0.00  0.00    +0.051 C 
BRANCH  16  17
ATOM     17  C   UNL     1      37.455 -23.280 -15.538  0.00  0.00    +0.004 C 
BRANCH  17  18
ATOM     18  C   UNL     1      37.438 -22.200 -16.626  0.00  0.00    +0.000 C 
BRANCH  18  19
ATOM     19  C   UNL     1      36.111 -22.030 -17.374  0.00  0.00    +0.000 C 
BRANCH  19  20
ATOM     20  C   UNL     1      36.281 -21.571 -18.825  0.00  0.00    +0.000 C 
BRANCH  20  21
ATOM     21  C   UNL     1      34.977 -21.729 -19.611  0.00  0.00    +0.000 C 
BRANCH  21  22
ATOM     22  C   UNL     1      34.535 -20.443 -20.314  0.00  0.00    +0.000 C 
ATOM     23  C   UNL     1      33.025 -20.272 -20.373  0.00  0.00    +0.000 C 
ENDBRANCH  21  22
ENDBRANCH  20  21
ENDBRANCH  19  20
ENDBRANCH  18  19
ENDBRANCH  17  18
ENDBRANCH  16  17
ENDBRANCH   1  16
TORSDOF 14
ENDMDL
