MODEL 1
REMARK VINA RESULT:      -8.6      0.000      0.000
REMARK  Name = 3365
REMARK  6 active torsions:
REMARK  status: ('A' for Active; 'I' for Inactive)
REMARK    1  A    between atoms: C_1  and  C_4
REMARK    2  A    between atoms: C_1  and  O_10
REMARK    3  A    between atoms: C_1  and  C_12
REMARK    4  A    between atoms: C_1  and  C_18
REMARK    5  A    between atoms: C_12  and  N_13
REMARK    6  A    between atoms: C_18  and  N_19
REMARK                            x       y       z     vdW  Elec       q    Type
REMARK                         _______ _______ _______ _____ _____    ______ ____
ROOT
ATOM      1  C   UNL     1      36.367 -23.254 -15.146  0.00  0.00    +0.149 C 
ENDROOT
BRANCH   1   4
ATOM      2  F   UNL     1      33.845 -23.725 -16.330  0.00  0.00    -0.204 F 
ATOM      3  F   UNL     1      34.963 -21.254 -20.208  0.00  0.00    -0.204 F 
ATOM      4  C   UNL     1      35.992 -22.725 -16.490  0.00  0.00    +0.033 C 
ATOM      5  C   UNL     1      34.730 -22.992 -17.021  0.00  0.00    +0.141 C 
ATOM      6  C   UNL     1      36.906 -21.961 -17.215  0.00  0.00    +0.003 C 
ATOM      7  C   UNL     1      34.382 -22.496 -18.277  0.00  0.00    +0.059 C 
ATOM      8  C   UNL     1      36.559 -21.465 -18.472  0.00  0.00    +0.030 C 
ATOM      9  C   UNL     1      35.296 -21.732 -19.003  0.00  0.00    +0.142 C 
ENDBRANCH   1   4
BRANCH   1  10
ATOM     10  O   UNL     1      37.536 -22.571 -14.630  0.00  0.00    -0.379 OA
ATOM     11  H   UNL     1      38.218 -23.222 -14.405  0.00  0.00    +0.211 HD
ENDBRANCH   1  10
BRANCH   1  12
ATOM     12  C   UNL     1      36.787 -24.765 -15.259  0.00  0.00    +0.151 C 
BRANCH  12  13
ATOM     13  N   UNL     1      38.077 -25.148 -14.684  0.00  0.00    -0.188 N 
ATOM     14  N   UNL     1      39.207 -24.725 -15.245  0.00  0.00    -0.154 NA
ATOM     15  N   UNL     1      39.582 -26.027 -13.402  0.00  0.00    -0.203 NA
ATOM     16  C   UNL     1      38.290 -25.915 -13.598  0.00  0.00    +0.186 C 
ATOM     17  C   UNL     1      40.099 -25.288 -14.427  0.00  0.00    +0.218 C 
ENDBRANCH  12  13
ENDBRANCH   1  12
BRANCH   1  18
ATOM     18  C   UNL     1      35.230 -23.081 -14.076  0.00  0.00    +0.151 C 
BRANCH  18  19
ATOM     19  N   UNL     1      35.564 -23.625 -12.757  0.00  0.00    -0.188 N 
ATOM     20  N   UNL     1      36.555 -23.090 -12.051  0.00  0.00    -0.154 NA
ATOM     21  N   UNL     1      35.551 -24.836 -10.967  0.00  0.00    -0.203 NA
ATOM     22  C   UNL     1      34.967 -24.652 -12.128  0.00  0.00    +0.186 C 
ATOM     23  C   UNL     1      36.509 -23.864 -10.965  0.00  0.00    +0.218 C 
ENDBRANCH  18  19
ENDBRANCH   1  18
TORSDOF 6
ENDMDL
MODEL 2
REMARK VINA RESULT:      -8.4      8.143     10.950
REMARK  Name = 3365
REMARK  6 active torsions:
REMARK  status: ('A' for Active; 'I' for Inactive)
REMARK    1  A    between atoms: C_1  and  C_4
REMARK    2  A    between atoms: C_1  and  O_10
REMARK    3  A    between atoms: C_1  and  C_12
REMARK    4  A    between atoms: C_1  and  C_18
REMARK    5  A    between atoms: C_12  and  N_13
REMARK    6  A    between atoms: C_18  and  N_19
REMARK                            x       y       z     vdW  Elec       q    Type
REMARK                         _______ _______ _______ _____ _____    ______ ____
ROOT
ATOM      1  C   UNL     1      34.749 -17.573 -21.291  0.00  0.00    +0.149 C 
ENDROOT
BRANCH   1   4
ATOM      2  F   UNL     1      37.067 -19.100 -20.759  0.00  0.00    -0.204 F 
ATOM      3  F   UNL     1      34.538 -22.868 -19.417  0.00  0.00    -0.204 F 
ATOM      4  C   UNL     1      34.696 -18.979 -20.795  0.00  0.00    +0.033 C 
ATOM      5  C   UNL     1      35.876 -19.681 -20.550  0.00  0.00    +0.141 C 
ATOM      6  C   UNL     1      33.462 -19.591 -20.574  0.00  0.00    +0.003 C 
ATOM      7  C   UNL     1      35.823 -20.995 -20.085  0.00  0.00    +0.059 C 
ATOM      8  C   UNL     1      33.408 -20.905 -20.109  0.00  0.00    +0.030 C 
ATOM      9  C   UNL     1      34.589 -21.607 -19.864  0.00  0.00    +0.142 C 
ENDBRANCH   1   4
BRANCH   1  10
ATOM     10  O   UNL     1      35.261 -16.683 -20.269  0.00  0.00    -0.379 OA
ATOM     11  H   UNL     1      36.091 -17.040 -19.916  0.00  0.00    +0.211 HD
ENDBRANCH   1  10
BRANCH   1  12
ATOM     12  C   UNL     1      33.297 -17.055 -21.602  0.00  0.00    +0.151 C 
BRANCH  12  13
ATOM     13  N   UNL     1      33.057 -15.617 -21.481  0.00  0.00    -0.188 N 
ATOM     14  N   UNL     1      32.844 -15.076 -20.284  0.00  0.00    -0.154 NA
ATOM     15  N   UNL     1      32.782 -13.526 -21.966  0.00  0.00    -0.203 NA
ATOM     16  C   UNL     1      33.022 -14.711 -22.476  0.00  0.00    +0.186 C 
ATOM     17  C   UNL     1      32.681 -13.797 -20.631  0.00  0.00    +0.218 C 
ENDBRANCH  12  13
ENDBRANCH   1  12
BRANCH   1  18
ATOM     18  C   UNL     1      35.673 -17.398 -22.550  0.00  0.00    +0.151 C 
BRANCH  18  19
ATOM     19  N   UNL     1      35.011 -17.702 -23.822  0.00  0.00    -0.188 N 
ATOM     20  N   UNL     1      34.662 -18.953 -24.106  0.00  0.00    -0.154 NA
ATOM     21  N   UNL     1      34.110 -17.490 -25.775  0.00  0.00    -0.203 NA
ATOM     22  C   UNL     1      34.691 -16.834 -24.797  0.00  0.00    +0.186 C 
ATOM     23  C   UNL     1      34.115 -18.773 -25.309  0.00  0.00    +0.218 C 
ENDBRANCH  18  19
ENDBRANCH   1  18
TORSDOF 6
ENDMDL
MODEL 3
REMARK VINA RESULT:      -8.3      7.516     10.398
REMARK  Name = 3365
REMARK  6 active torsions:
REMARK  status: ('A' for Active; 'I' for Inactive)
REMARK    1  A    between atoms: C_1  and  C_4
REMARK    2  A    between atoms: C_1  and  O_10
REMARK    3  A    between atoms: C_1  and  C_12
REMARK    4  A    between atoms: C_1  and  C_18
REMARK    5  A    between atoms: C_12  and  N_13
REMARK    6  A    between atoms: C_18  and  N_19
REMARK                            x       y       z     vdW  Elec       q    Type
REMARK                         _______ _______ _______ _____ _____    ______ ____
ROOT
ATOM      1  C   UNL     1      34.829 -18.974 -21.583  0.00  0.00    +0.149 C 
ENDROOT
BRANCH   1   4
ATOM      2  F   UNL     1      37.081 -20.258 -20.460  0.00  0.00    -0.204 F 
ATOM      3  F   UNL     1      34.399 -23.168 -17.867  0.00  0.00    -0.204 F 
ATOM      4  C   UNL     1      34.718 -20.088 -20.598  0.00  0.00    +0.033 C 
ATOM      5  C   UNL     1      35.868 -20.682 -20.079  0.00  0.00    +0.141 C 
ATOM      6  C   UNL     1      33.459 -20.535 -20.194  0.00  0.00    +0.003 C 
ATOM      7  C   UNL     1      35.761 -21.723 -19.156  0.00  0.00    +0.059 C 
ATOM      8  C   UNL     1      33.351 -21.576 -19.272  0.00  0.00    +0.030 C 
ATOM      9  C   UNL     1      34.503 -22.170 -18.753  0.00  0.00    +0.142 C 
ENDBRANCH   1   4
BRANCH   1  10
ATOM     10  O   UNL     1      35.995 -18.158 -21.311  0.00  0.00    -0.379 OA
ATOM     11  H   UNL     1      36.464 -18.511 -20.539  0.00  0.00    +0.211 HD
ENDBRANCH   1  10
BRANCH   1  12
ATOM     12  C   UNL     1      33.601 -18.001 -21.439  0.00  0.00    +0.151 C 
BRANCH  12  13
ATOM     13  N   UNL     1      33.889 -16.579 -21.254  0.00  0.00    -0.188 N 
ATOM     14  N   UNL     1      34.730 -16.189 -20.300  0.00  0.00    -0.154 NA
ATOM     15  N   UNL     1      33.891 -14.429 -21.496  0.00  0.00    -0.203 NA
ATOM     16  C   UNL     1      33.391 -15.548 -21.963  0.00  0.00    +0.186 C 
ATOM     17  C   UNL     1      34.698 -14.867 -20.486  0.00  0.00    +0.218 C 
ENDBRANCH  12  13
ENDBRANCH   1  12
BRANCH   1  18
ATOM     18  C   UNL     1      34.959 -19.474 -23.067  0.00  0.00    +0.151 C 
BRANCH  18  19
ATOM     19  N   UNL     1      34.735 -18.429 -24.070  0.00  0.00    -0.188 N 
ATOM     20  N   UNL     1      35.448 -17.308 -24.031  0.00  0.00    -0.154 NA
ATOM     21  N   UNL     1      33.954 -17.335 -25.762  0.00  0.00    -0.203 NA
ATOM     22  C   UNL     1      33.854 -18.455 -25.085  0.00  0.00    +0.186 C 
ATOM     23  C   UNL     1      34.935 -16.670 -25.084  0.00  0.00    +0.218 C 
ENDBRANCH  18  19
ENDBRANCH   1  18
TORSDOF 6
ENDMDL
MODEL 4
REMARK VINA RESULT:      -8.2      2.242      3.148
REMARK  Name = 3365
REMARK  6 active torsions:
REMARK  status: ('A' for Active; 'I' for Inactive)
REMARK    1  A    between atoms: C_1  and  C_4
REMARK    2  A    between atoms: C_1  and  O_10
REMARK    3  A    between atoms: C_1  and  C_12
REMARK    4  A    between atoms: C_1  and  C_18
REMARK    5  A    between atoms: C_12  and  N_13
REMARK    6  A    between atoms: C_18  and  N_19
REMARK                            x       y       z     vdW  Elec       q    Type
REMARK                         _______ _______ _______ _____ _____    ______ ____
ROOT
ATOM      1  C   UNL     1      34.604 -23.893 -14.508  0.00  0.00    +0.149 C 
ENDROOT
BRANCH   1   4
ATOM      2  F   UNL     1      34.159 -23.337 -17.243  0.00  0.00    -0.204 F 
ATOM      3  F   UNL     1      29.547 -22.539 -16.552  0.00  0.00    -0.204 F 
ATOM      4  C   UNL     1      33.263 -23.532 -15.053  0.00  0.00    +0.033 C 
ATOM      5  C   UNL     1      33.107 -23.269 -16.414  0.00  0.00    +0.141 C 
ATOM      6  C   UNL     1      32.163 -23.460 -14.198  0.00  0.00    +0.003 C 
ATOM      7  C   UNL     1      31.852 -22.933 -16.921  0.00  0.00    +0.059 C 
ATOM      8  C   UNL     1      30.907 -23.124 -14.705  0.00  0.00    +0.030 C 
ATOM      9  C   UNL     1      30.752 -22.860 -16.067  0.00  0.00    +0.142 C 
ENDBRANCH   1   4
BRANCH   1  10
ATOM     10  O   UNL     1      35.545 -22.806 -14.689  0.00  0.00    -0.379 OA
ATOM     11  H   UNL     1      36.103 -22.986 -15.461  0.00  0.00    +0.211 HD
ENDBRANCH   1  10
BRANCH   1  12
ATOM     12  C   UNL     1      35.208 -25.101 -15.315  0.00  0.00    +0.151 C 
BRANCH  12  13
ATOM     13  N   UNL     1      36.593 -25.474 -15.029  0.00  0.00    -0.188 N 
ATOM     14  N   UNL     1      37.561 -24.567 -15.128  0.00  0.00    -0.154 NA
ATOM     15  N   UNL     1      38.349 -26.618 -14.490  0.00  0.00    -0.203 NA
ATOM     16  C   UNL     1      37.048 -26.684 -14.654  0.00  0.00    +0.186 C 
ATOM     17  C   UNL     1      38.615 -25.313 -14.790  0.00  0.00    +0.218 C 
ENDBRANCH  12  13
ENDBRANCH   1  12
BRANCH   1  18
ATOM     18  C   UNL     1      34.577 -24.221 -12.972  0.00  0.00    +0.151 C 
BRANCH  18  19
ATOM     19  N   UNL     1      35.870 -24.048 -12.302  0.00  0.00    -0.188 N 
ATOM     20  N   UNL     1      36.465 -22.859 -12.308  0.00  0.00    -0.154 NA
ATOM     21  N   UNL     1      37.677 -24.441 -11.185  0.00  0.00    -0.203 NA
ATOM     22  C   UNL     1      36.574 -24.985 -11.644  0.00  0.00    +0.186 C 
ATOM     23  C   UNL     1      37.567 -23.149 -11.613  0.00  0.00    +0.218 C 
ENDBRANCH  18  19
ENDBRANCH   1  18
TORSDOF 6
ENDMDL
MODEL 5
REMARK VINA RESULT:      -8.1      2.320      3.144
REMARK  Name = 3365
REMARK  6 active torsions:
REMARK  status: ('A' for Active; 'I' for Inactive)
REMARK    1  A    between atoms: C_1  and  C_4
REMARK    2  A    between atoms: C_1  and  O_10
REMARK    3  A    between atoms: C_1  and  C_12
REMARK    4  A    between atoms: C_1  and  C_18
REMARK    5  A    between atoms: C_12  and  N_13
REMARK    6  A    between atoms: C_18  and  N_19
REMARK                            x       y       z     vdW  Elec       q    Type
REMARK                         _______ _______ _______ _____ _____    ______ ____
ROOT
ATOM      1  C   UNL     1      35.230 -23.391 -15.547  0.00  0.00    +0.149 C 
ENDROOT
BRANCH   1   4
ATOM      2  F   UNL     1      37.521 -21.893 -16.246  0.00  0.00    -0.204 F 
ATOM      3  F   UNL     1      35.837 -20.923 -20.560  0.00  0.00    -0.204 F 
ATOM      4  C   UNL     1      35.393 -22.734 -16.876  0.00  0.00    +0.033 C 
ATOM      5  C   UNL     1      36.549 -22.007 -17.162  0.00  0.00    +0.141 C 
ATOM      6  C   UNL     1      34.387 -22.848 -17.836  0.00  0.00    +0.003 C 
ATOM      7  C   UNL     1      36.699 -21.394 -18.406  0.00  0.00    +0.059 C 
ATOM      8  C   UNL     1      34.536 -22.236 -19.080  0.00  0.00    +0.030 C 
ATOM      9  C   UNL     1      35.693 -21.509 -19.365  0.00  0.00    +0.142 C 
ENDBRANCH   1   4
BRANCH   1  10
ATOM     10  O   UNL     1      35.035 -22.404 -14.504  0.00  0.00    -0.379 OA
ATOM     11  H   UNL     1      34.223 -22.608 -14.014  0.00  0.00    +0.211 HD
ENDBRANCH   1  10
BRANCH   1  12
ATOM     12  C   UNL     1      36.550 -24.152 -15.156  0.00  0.00    +0.151 C 
BRANCH  12  13
ATOM     13  N   UNL     1      36.909 -24.188 -13.738  0.00  0.00    -0.188 N 
ATOM     14  N   UNL     1      37.608 -23.191 -13.203  0.00  0.00    -0.154 NA
ATOM     15  N   UNL     1      37.103 -24.819 -11.677  0.00  0.00    -0.203 NA
ATOM     16  C   UNL     1      36.607 -25.150 -12.846  0.00  0.00    +0.186 C 
ATOM     17  C   UNL     1      37.703 -23.621 -11.943  0.00  0.00    +0.218 C 
ENDBRANCH  12  13
ENDBRANCH   1  12
BRANCH   1  18
ATOM     18  C   UNL     1      33.999 -24.365 -15.488  0.00  0.00    +0.151 C 
BRANCH  18  19
ATOM     19  N   UNL     1      32.822 -23.800 -14.821  0.00  0.00    -0.188 N 
ATOM     20  N   UNL     1      32.737 -23.822 -13.494  0.00  0.00    -0.154 NA
ATOM     21  N   UNL     1      30.915 -22.845 -14.472  0.00  0.00    -0.203 NA
ATOM     22  C   UNL     1      31.756 -23.227 -15.405  0.00  0.00    +0.186 C 
ATOM     23  C   UNL     1      31.555 -23.228 -13.328  0.00  0.00    +0.218 C 
ENDBRANCH  18  19
ENDBRANCH   1  18
TORSDOF 6
ENDMDL
MODEL 6
REMARK VINA RESULT:      -8.0      2.178      4.055
REMARK  Name = 3365
REMARK  6 active torsions:
REMARK  status: ('A' for Active; 'I' for Inactive)
REMARK    1  A    between atoms: C_1  and  C_4
REMARK    2  A    between atoms: C_1  and  O_10
REMARK    3  A    between atoms: C_1  and  C_12
REMARK    4  A    between atoms: C_1  and  C_18
REMARK    5  A    between atoms: C_12  and  N_13
REMARK    6  A    between atoms: C_18  and  N_19
REMARK                            x       y       z     vdW  Elec       q    Type
REMARK                         _______ _______ _______ _____ _____    ______ ____
ROOT
ATOM      1  C   UNL     1      35.267 -23.441 -15.926  0.00  0.00    +0.149 C 
ENDROOT
BRANCH   1   4
ATOM      2  F   UNL     1      33.090 -23.366 -17.726  0.00  0.00    -0.204 F 
ATOM      3  F   UNL     1      35.422 -20.590 -20.767  0.00  0.00    -0.204 F 
ATOM      4  C   UNL     1      35.306 -22.686 -17.212  0.00  0.00    +0.033 C 
ATOM      5  C   UNL     1      34.198 -22.688 -18.059  0.00  0.00    +0.141 C 
ATOM      6  C   UNL     1      36.454 -21.977 -17.566  0.00  0.00    +0.003 C 
ATOM      7  C   UNL     1      34.237 -21.980 -19.261  0.00  0.00    +0.059 C 
ATOM      8  C   UNL     1      36.493 -21.269 -18.768  0.00  0.00    +0.030 C 
ATOM      9  C   UNL     1      35.384 -21.271 -19.615  0.00  0.00    +0.142 C 
ENDBRANCH   1   4
BRANCH   1  10
ATOM     10  O   UNL     1      34.737 -24.775 -16.125  0.00  0.00    -0.379 OA
ATOM     11  H   UNL     1      35.203 -25.398 -15.546  0.00  0.00    +0.211 HD
ENDBRANCH   1  10
BRANCH   1  12
ATOM     12  C   UNL     1      34.274 -22.747 -14.923  0.00  0.00    +0.151 C 
BRANCH  12  13
ATOM     13  N   UNL     1      33.072 -23.491 -14.545  0.00  0.00    -0.188 N 
ATOM     14  N   UNL     1      33.176 -24.593 -13.807  0.00  0.00    -0.154 NA
ATOM     15  N   UNL     1      31.006 -24.098 -14.336  0.00  0.00    -0.203 NA
ATOM     16  C   UNL     1      31.797 -23.193 -14.860  0.00  0.00    +0.186 C 
ATOM     17  C   UNL     1      31.888 -24.929 -13.706  0.00  0.00    +0.218 C 
ENDBRANCH  12  13
ENDBRANCH   1  12
BRANCH   1  18
ATOM     18  C   UNL     1      36.683 -23.608 -15.266  0.00  0.00    +0.151 C 
BRANCH  18  19
ATOM     19  N   UNL     1      36.863 -24.876 -14.554  0.00  0.00    -0.188 N 
ATOM     20  N   UNL     1      37.138 -25.985 -15.234  0.00  0.00    -0.154 NA
ATOM     21  N   UNL     1      37.007 -26.350 -12.980  0.00  0.00    -0.203 NA
ATOM     22  C   UNL     1      36.785 -25.080 -13.228  0.00  0.00    +0.186 C 
ATOM     23  C   UNL     1      37.216 -26.859 -14.230  0.00  0.00    +0.218 C 
ENDBRANCH  18  19
ENDBRANCH   1  18
TORSDOF 6
ENDMDL
MODEL 7
REMARK VINA RESULT:      -7.7      2.832      4.220
REMARK  Name = 3365
REMARK  6 active torsions:
REMARK  status: ('A' for Active; 'I' for Inactive)
REMARK    1  A    between atoms: C_1  and  C_4
REMARK    2  A    between atoms: C_1  and  O_10
REMARK    3  A    between atoms: C_1  and  C_12
REMARK    4  A    between atoms: C_1  and  C_18
REMARK    5  A    between atoms: C_12  and  N_13
REMARK    6  A    between atoms: C_18  and  N_19
REMARK                            x       y       z     vdW  Elec       q    Type
REMARK                         _______ _______ _______ _____ _____    ______ ____
ROOT
ATOM      1  C   UNL     1      34.130 -23.926 -14.160  0.00  0.00    +0.149 C 
ENDROOT
BRANCH   1   4
ATOM      2  F   UNL     1      33.052 -22.772 -16.504  0.00  0.00    -0.204 F 
ATOM      3  F   UNL     1      28.848 -24.842 -15.848  0.00  0.00    -0.204 F 
ATOM      4  C   UNL     1      32.728 -24.166 -14.610  0.00  0.00    +0.033 C 
ATOM      5  C   UNL     1      32.254 -23.567 -15.777  0.00  0.00    +0.141 C 
ATOM      6  C   UNL     1      31.891 -24.993 -13.861  0.00  0.00    +0.003 C 
ATOM      7  C   UNL     1      30.943 -23.794 -16.196  0.00  0.00    +0.059 C 
ATOM      8  C   UNL     1      30.580 -25.221 -14.279  0.00  0.00    +0.030 C 
ATOM      9  C   UNL     1      30.106 -24.622 -15.447  0.00  0.00    +0.142 C 
ENDBRANCH   1   4
BRANCH   1  10
ATOM     10  O   UNL     1      34.440 -22.510 -14.170  0.00  0.00    -0.379 OA
ATOM     11  H   UNL     1      35.360 -22.382 -14.451  0.00  0.00    +0.211 HD
ENDBRANCH   1  10
BRANCH   1  12
ATOM     12  C   UNL     1      35.142 -24.578 -15.173  0.00  0.00    +0.151 C 
BRANCH  12  13
ATOM     13  N   UNL     1      36.217 -23.730 -15.687  0.00  0.00    -0.188 N 
ATOM     14  N   UNL     1      35.956 -22.809 -16.610  0.00  0.00    -0.154 NA
ATOM     15  N   UNL     1      38.164 -22.842 -16.012  0.00  0.00    -0.203 NA
ATOM     16  C   UNL     1      37.515 -23.756 -15.329  0.00  0.00    +0.186 C 
ATOM     17  C   UNL     1      37.176 -22.292 -16.777  0.00  0.00    +0.218 C 
ENDBRANCH  12  13
ENDBRANCH   1  12
BRANCH   1  18
ATOM     18  C   UNL     1      34.407 -24.442 -12.702  0.00  0.00    +0.151 C 
BRANCH  18  19
ATOM     19  N   UNL     1      35.821 -24.413 -12.318  0.00  0.00    -0.188 N 
ATOM     20  N   UNL     1      36.539 -25.532 -12.348  0.00  0.00    -0.154 NA
ATOM     21  N   UNL     1      37.762 -23.724 -11.664  0.00  0.00    -0.203 NA
ATOM     22  C   UNL     1      36.532 -23.345 -11.918  0.00  0.00    +0.186 C 
ATOM     23  C   UNL     1      37.719 -25.061 -11.939  0.00  0.00    +0.218 C 
ENDBRANCH  18  19
ENDBRANCH   1  18
TORSDOF 6
ENDMDL
MODEL 8
REMARK VINA RESULT:      -7.6     11.841     14.171
REMARK  Name = 3365
REMARK  6 active torsions:
REMARK  status: ('A' for Active; 'I' for Inactive)
REMARK    1  A    between atoms: C_1  and  C_4
REMARK    2  A    between atoms: C_1  and  O_10
REMARK    3  A    between atoms: C_1  and  C_12
REMARK    4  A    between atoms: C_1  and  C_18
REMARK    5  A    between atoms: C_12  and  N_13
REMARK    6  A    between atoms: C_18  and  N_19
REMARK                            x       y       z     vdW  Elec       q    Type
REMARK                         _______ _______ _______ _____ _____    ______ ____
ROOT
ATOM      1  C   UNL     1      32.768 -13.122 -22.810  0.00  0.00    +0.149 C 
ENDROOT
BRANCH   1   4
ATOM      2  F   UNL     1      30.783 -11.763 -21.327  0.00  0.00    -0.204 F 
ATOM      3  F   UNL     1      32.149  -7.538 -22.960  0.00  0.00    -0.204 F 
ATOM      4  C   UNL     1      32.601 -11.640 -22.849  0.00  0.00    +0.033 C 
ATOM      5  C   UNL     1      31.601 -11.028 -22.093  0.00  0.00    +0.141 C 
ATOM      6  C   UNL     1      33.448 -10.867 -23.642  0.00  0.00    +0.003 C 
ATOM      7  C   UNL     1      31.447  -9.642 -22.131  0.00  0.00    +0.059 C 
ATOM      8  C   UNL     1      33.295  -9.480 -23.681  0.00  0.00    +0.030 C 
ATOM      9  C   UNL     1      32.295  -8.868 -22.924  0.00  0.00    +0.142 C 
ENDBRANCH   1   4
BRANCH   1  10
ATOM     10  O   UNL     1      31.602 -13.788 -23.356  0.00  0.00    -0.379 OA
ATOM     11  H   UNL     1      30.989 -14.007 -22.637  0.00  0.00    +0.211 HD
ENDBRANCH   1  10
BRANCH   1  12
ATOM     12  C   UNL     1      32.866 -13.615 -21.320  0.00  0.00    +0.151 C 
BRANCH  12  13
ATOM     13  N   UNL     1      33.533 -14.895 -21.078  0.00  0.00    -0.188 N 
ATOM     14  N   UNL     1      32.975 -16.026 -21.502  0.00  0.00    -0.154 NA
ATOM     15  N   UNL     1      34.968 -16.381 -20.435  0.00  0.00    -0.203 NA
ATOM     16  C   UNL     1      34.707 -15.095 -20.450  0.00  0.00    +0.186 C 
ATOM     17  C   UNL     1      33.888 -16.907 -21.085  0.00  0.00    +0.218 C 
ENDBRANCH  12  13
ENDBRANCH   1  12
BRANCH   1  18
ATOM     18  C   UNL     1      34.007 -13.625 -23.635  0.00  0.00    +0.151 C 
BRANCH  18  19
ATOM     19  N   UNL     1      33.657 -14.450 -24.795  0.00  0.00    -0.188 N 
ATOM     20  N   UNL     1      32.969 -13.920 -25.801  0.00  0.00    -0.154 NA
ATOM     21  N   UNL     1      33.469 -16.125 -26.147  0.00  0.00    -0.203 NA
ATOM     22  C   UNL     1      33.956 -15.746 -24.988  0.00  0.00    +0.186 C 
ATOM     23  C   UNL     1      32.878 -14.983 -26.604  0.00  0.00    +0.218 C 
ENDBRANCH  18  19
ENDBRANCH   1  18
TORSDOF 6
ENDMDL
MODEL 9
REMARK VINA RESULT:      -7.6      2.182      3.803
REMARK  Name = 3365
REMARK  6 active torsions:
REMARK  status: ('A' for Active; 'I' for Inactive)
REMARK    1  A    between atoms: C_1  and  C_4
REMARK    2  A    between atoms: C_1  and  O_10
REMARK    3  A    between atoms: C_1  and  C_12
REMARK    4  A    between atoms: C_1  and  C_18
REMARK    5  A    between atoms: C_12  and  N_13
REMARK    6  A    between atoms: C_18  and  N_19
REMARK                            x       y       z     vdW  Elec       q    Type
REMARK                         _______ _______ _______ _____ _____    ______ ____
ROOT
ATOM      1  C   UNL     1      35.624 -23.664 -15.557  0.00  0.00    +0.149 C 
ENDROOT
BRANCH   1   4
ATOM      2  F   UNL     1      37.809 -22.045 -16.324  0.00  0.00    -0.204 F 
ATOM      3  F   UNL     1      35.670 -20.673 -20.315  0.00  0.00    -0.204 F 
ATOM      4  C   UNL     1      35.638 -22.868 -16.819  0.00  0.00    +0.033 C 
ATOM      5  C   UNL     1      36.748 -22.088 -17.142  0.00  0.00    +0.141 C 
ATOM      6  C   UNL     1      34.539 -22.907 -17.677  0.00  0.00    +0.003 C 
ATOM      7  C   UNL     1      36.759 -21.345 -18.323  0.00  0.00    +0.059 C 
ATOM      8  C   UNL     1      34.549 -22.165 -18.858  0.00  0.00    +0.030 C 
ATOM      9  C   UNL     1      35.660 -21.384 -19.181  0.00  0.00    +0.142 C 
ENDBRANCH   1   4
BRANCH   1  10
ATOM     10  O   UNL     1      36.733 -24.596 -15.521  0.00  0.00    -0.379 OA
ATOM     11  H   UNL     1      37.520 -24.177 -15.903  0.00  0.00    +0.211 HD
ENDBRANCH   1  10
BRANCH   1  12
ATOM     12  C   UNL     1      34.331 -24.558 -15.497  0.00  0.00    +0.151 C 
BRANCH  12  13
ATOM     13  N   UNL     1      33.208 -24.062 -14.702  0.00  0.00    -0.188 N 
ATOM     14  N   UNL     1      32.492 -23.027 -15.134  0.00  0.00    -0.154 NA
ATOM     15  N   UNL     1      31.742 -23.830 -13.127  0.00  0.00    -0.203 NA
ATOM     16  C   UNL     1      32.772 -24.540 -13.521  0.00  0.00    +0.186 C 
ATOM     17  C   UNL     1      31.608 -22.922 -14.139  0.00  0.00    +0.218 C 
ENDBRANCH  12  13
ENDBRANCH   1  12
BRANCH   1  18
ATOM     18  C   UNL     1      35.734 -22.775 -14.266  0.00  0.00    +0.151 C 
BRANCH  18  19
ATOM     19  N   UNL     1      36.523 -23.382 -13.190  0.00  0.00    -0.188 N 
ATOM     20  N   UNL     1      37.850 -23.379 -13.258  0.00  0.00    -0.154 NA
ATOM     21  N   UNL     1      37.073 -24.392 -11.360  0.00  0.00    -0.203 NA
ATOM     22  C   UNL     1      36.056 -23.975 -12.078  0.00  0.00    +0.186 C 
ATOM     23  C   UNL     1      38.142 -24.008 -12.118  0.00  0.00    +0.218 C 
ENDBRANCH  18  19
ENDBRANCH   1  18
TORSDOF 6
ENDMDL
