MODEL 1
REMARK VINA RESULT:      -8.8      0.000      0.000
REMARK  Name = 46886609
REMARK  5 active torsions:
REMARK  status: ('A' for Active; 'I' for Inactive)
REMARK    1  A    between atoms: C_1  and  C_3
REMARK    2  A    between atoms: C_1  and  C_10
REMARK    3  A    between atoms: C_1  and  O_20
REMARK    4  A    between atoms: C_13  and  O_16
REMARK    5  A    between atoms: C_15  and  O_18
REMARK                            x       y       z     vdW  Elec       q    Type
REMARK                         _______ _______ _______ _____ _____    ______ ____
ROOT
ATOM      1  C   UNL     1      35.655 -17.925 -21.565  0.00  0.00    +0.114 C 
ENDROOT
BRANCH   1   3
ATOM      2  N   UNL     1      35.884 -19.958 -20.236  0.00  0.00    +0.387 N 
ATOM      3  C   UNL     1      35.087 -19.316 -21.287  0.00  0.00    -0.030 C 
ATOM      4  C   UNL     1      33.612 -19.223 -20.873  0.00  0.00    -0.019 C 
ATOM      5  C   UNL     1      33.051 -20.596 -20.513  0.00  0.00    -0.004 C 
ATOM      6  C   UNL     1      33.940 -21.284 -19.482  0.00  0.00    -0.023 C 
ATOM      7  C   UNL     1      35.397 -21.305 -19.935  0.00  0.00    -0.082 C 
ATOM      8  H   UNL     1      35.833 -19.392 -19.389  0.00  0.00    -0.084 HD
ATOM      9  H   UNL     1      36.846 -20.034 -20.566  0.00  0.00    -0.084 HD
ENDBRANCH   1   3
BRANCH   1  10
ATOM     10  C   UNL     1      35.118 -17.344 -22.851  0.00  0.00    +0.005 C 
ATOM     11  C   UNL     1      34.684 -16.019 -22.890  0.00  0.00    +0.038 C 
ATOM     12  C   UNL     1      35.057 -18.132 -23.999  0.00  0.00    +0.001 C 
ATOM     13  C   UNL     1      34.189 -15.482 -24.079  0.00  0.00    +0.167 C 
ATOM     14  C   UNL     1      34.562 -17.595 -25.188  0.00  0.00    +0.040 C 
ATOM     15  C   UNL     1      34.128 -16.270 -25.227  0.00  0.00    +0.167 C 
BRANCH  13  16
ATOM     16  O   UNL     1      33.771 -14.186 -24.104  0.00  0.00    -0.503 OA
ATOM     17  H   UNL     1      34.143 -13.561 -23.512  0.00  0.00    +0.292 HD
ENDBRANCH  13  16
BRANCH  15  18
ATOM     18  O   UNL     1      33.647 -15.757 -26.393  0.00  0.00    -0.503 OA
ATOM     19  H   UNL     1      34.138 -15.851 -27.185  0.00  0.00    +0.292 HD
ENDBRANCH  15  18
ENDBRANCH   1  10
BRANCH   1  20
ATOM     20  O   UNL     1      35.332 -17.056 -20.483  0.00  0.00    -0.382 OA
ATOM     21  H   UNL     1      35.591 -17.472 -19.646  0.00  0.00    +0.211 HD
ENDBRANCH   1  20
TORSDOF 5
ENDMDL
MODEL 2
REMARK VINA RESULT:      -8.5      2.603      6.041
REMARK  Name = 46886609
REMARK  5 active torsions:
REMARK  status: ('A' for Active; 'I' for Inactive)
REMARK    1  A    between atoms: C_1  and  C_3
REMARK    2  A    between atoms: C_1  and  C_10
REMARK    3  A    between atoms: C_1  and  O_20
REMARK    4  A    between atoms: C_13  and  O_16
REMARK    5  A    between atoms: C_15  and  O_18
REMARK                            x       y       z     vdW  Elec       q    Type
REMARK                         _______ _______ _______ _____ _____    ______ ____
ROOT
ATOM      1  C   UNL     1      35.633 -18.293 -21.475  0.00  0.00    +0.114 C 
ENDROOT
BRANCH   1   3
ATOM      2  N   UNL     1      35.337 -16.430 -23.023  0.00  0.00    +0.387 N 
ATOM      3  C   UNL     1      34.860 -17.777 -22.688  0.00  0.00    -0.030 C 
ATOM      4  C   UNL     1      35.032 -18.728 -23.880  0.00  0.00    -0.019 C 
ATOM      5  C   UNL     1      34.334 -18.188 -25.125  0.00  0.00    -0.004 C 
ATOM      6  C   UNL     1      34.778 -16.756 -25.408  0.00  0.00    -0.023 C 
ATOM      7  C   UNL     1      34.622 -15.874 -24.173  0.00  0.00    -0.082 C 
ATOM      8  H   UNL     1      36.332 -16.477 -23.245  0.00  0.00    -0.084 HD
ATOM      9  H   UNL     1      35.171 -15.824 -22.221  0.00  0.00    -0.084 HD
ENDBRANCH   1   3
BRANCH   1  10
ATOM     10  C   UNL     1      34.909 -19.424 -20.785  0.00  0.00    +0.005 C 
ATOM     11  C   UNL     1      35.632 -20.406 -20.110  0.00  0.00    +0.038 C 
ATOM     12  C   UNL     1      33.516 -19.485 -20.824  0.00  0.00    +0.001 C 
ATOM     13  C   UNL     1      34.963 -21.450 -19.472  0.00  0.00    +0.167 C 
ATOM     14  C   UNL     1      32.847 -20.530 -20.186  0.00  0.00    +0.040 C 
ATOM     15  C   UNL     1      33.571 -21.512 -19.510  0.00  0.00    +0.167 C 
BRANCH  13  16
ATOM     16  O   UNL     1      35.681 -22.402 -18.812  0.00  0.00    -0.503 OA
ATOM     17  H   UNL     1      36.592 -22.265 -18.638  0.00  0.00    +0.292 HD
ENDBRANCH  13  16
BRANCH  15  18
ATOM     18  O   UNL     1      32.906 -22.527 -18.891  0.00  0.00    -0.503 OA
ATOM     19  H   UNL     1      31.994 -22.660 -19.056  0.00  0.00    +0.292 HD
ENDBRANCH  15  18
ENDBRANCH   1  10
BRANCH   1  20
ATOM     20  O   UNL     1      36.921 -18.738 -21.887  0.00  0.00    -0.382 OA
ATOM     21  H   UNL     1      37.360 -18.037 -22.393  0.00  0.00    +0.211 HD
ENDBRANCH   1  20
TORSDOF 5
ENDMDL
MODEL 3
REMARK VINA RESULT:      -8.3      2.570      6.020
REMARK  Name = 46886609
REMARK  5 active torsions:
REMARK  status: ('A' for Active; 'I' for Inactive)
REMARK    1  A    between atoms: C_1  and  C_3
REMARK    2  A    between atoms: C_1  and  C_10
REMARK    3  A    between atoms: C_1  and  O_20
REMARK    4  A    between atoms: C_13  and  O_16
REMARK    5  A    between atoms: C_15  and  O_18
REMARK                            x       y       z     vdW  Elec       q    Type
REMARK                         _______ _______ _______ _____ _____    ______ ____
ROOT
ATOM      1  C   UNL     1      35.485 -18.358 -21.936  0.00  0.00    +0.114 C 
ENDROOT
BRANCH   1   3
ATOM      2  N   UNL     1      34.898 -16.252 -20.853  0.00  0.00    +0.387 N 
ATOM      3  C   UNL     1      34.645 -17.086 -22.033  0.00  0.00    -0.030 C 
ATOM      4  C   UNL     1      34.974 -16.320 -23.322  0.00  0.00    -0.019 C 
ATOM      5  C   UNL     1      34.203 -15.005 -23.397  0.00  0.00    -0.004 C 
ATOM      6  C   UNL     1      34.410 -14.190 -22.125  0.00  0.00    -0.023 C 
ATOM      7  C   UNL     1      34.106 -15.021 -20.881  0.00  0.00    -0.082 C 
ATOM      8  H   UNL     1      35.888 -16.007 -20.826  0.00  0.00    -0.084 HD
ATOM      9  H   UNL     1      34.631 -16.783 -20.024  0.00  0.00    -0.084 HD
ENDBRANCH   1   3
BRANCH   1  10
ATOM     10  C   UNL     1      34.806 -19.421 -21.107  0.00  0.00    +0.005 C 
ATOM     11  C   UNL     1      35.569 -20.355 -20.408  0.00  0.00    +0.038 C 
ATOM     12  C   UNL     1      33.413 -19.467 -21.040  0.00  0.00    +0.001 C 
ATOM     13  C   UNL     1      34.940 -21.336 -19.641  0.00  0.00    +0.167 C 
ATOM     14  C   UNL     1      32.785 -20.447 -20.273  0.00  0.00    +0.040 C 
ATOM     15  C   UNL     1      33.549 -21.382 -19.574  0.00  0.00    +0.167 C 
BRANCH  13  16
ATOM     16  O   UNL     1      35.697 -22.241 -18.960  0.00  0.00    -0.503 OA
ATOM     17  H   UNL     1      36.607 -22.072 -18.809  0.00  0.00    +0.292 HD
ENDBRANCH  13  16
BRANCH  15  18
ATOM     18  O   UNL     1      32.923 -22.336 -18.828  0.00  0.00    -0.503 OA
ATOM     19  H   UNL     1      33.126 -22.427 -17.919  0.00  0.00    +0.292 HD
ENDBRANCH  15  18
ENDBRANCH   1  10
BRANCH   1  20
ATOM     20  O   UNL     1      35.731 -18.865 -23.244  0.00  0.00    -0.382 OA
ATOM     21  H   UNL     1      36.634 -19.217 -23.291  0.00  0.00    +0.211 HD
ENDBRANCH   1  20
TORSDOF 5
ENDMDL
MODEL 4
REMARK VINA RESULT:      -8.1      2.580      5.855
REMARK  Name = 46886609
REMARK  5 active torsions:
REMARK  status: ('A' for Active; 'I' for Inactive)
REMARK    1  A    between atoms: C_1  and  C_3
REMARK    2  A    between atoms: C_1  and  C_10
REMARK    3  A    between atoms: C_1  and  O_20
REMARK    4  A    between atoms: C_13  and  O_16
REMARK    5  A    between atoms: C_15  and  O_18
REMARK                            x       y       z     vdW  Elec       q    Type
REMARK                         _______ _______ _______ _____ _____    ______ ____
ROOT
ATOM      1  C   UNL     1      35.914 -18.067 -21.766  0.00  0.00    +0.114 C 
ENDROOT
BRANCH   1   3
ATOM      2  N   UNL     1      34.849 -16.176 -20.651  0.00  0.00    +0.387 N 
ATOM      3  C   UNL     1      34.748 -17.079 -21.803  0.00  0.00    -0.030 C 
ATOM      4  C   UNL     1      34.753 -16.289 -23.118  0.00  0.00    -0.019 C 
ATOM      5  C   UNL     1      33.643 -15.241 -23.138  0.00  0.00    -0.004 C 
ATOM      6  C   UNL     1      33.712 -14.365 -21.891  0.00  0.00    -0.023 C 
ATOM      7  C   UNL     1      33.747 -15.212 -20.622  0.00  0.00    -0.082 C 
ATOM      8  H   UNL     1      35.731 -15.666 -20.706  0.00  0.00    -0.084 HD
ATOM      9  H   UNL     1      34.804 -16.736 -19.801  0.00  0.00    -0.084 HD
ENDBRANCH   1   3
BRANCH   1  10
ATOM     10  C   UNL     1      35.574 -19.311 -20.983  0.00  0.00    +0.005 C 
ATOM     11  C   UNL     1      34.252 -19.747 -20.903  0.00  0.00    +0.038 C 
ATOM     12  C   UNL     1      36.584 -20.026 -20.339  0.00  0.00    +0.001 C 
ATOM     13  C   UNL     1      33.938 -20.898 -20.180  0.00  0.00    +0.167 C 
ATOM     14  C   UNL     1      36.271 -21.177 -19.617  0.00  0.00    +0.040 C 
ATOM     15  C   UNL     1      34.948 -21.613 -19.537  0.00  0.00    +0.167 C 
BRANCH  13  16
ATOM     16  O   UNL     1      32.643 -21.314 -20.113  0.00  0.00    -0.503 OA
ATOM     17  H   UNL     1      31.949 -20.685 -20.080  0.00  0.00    +0.292 HD
ENDBRANCH  13  16
BRANCH  15  18
ATOM     18  O   UNL     1      34.654 -22.738 -18.828  0.00  0.00    -0.503 OA
ATOM     19  H   UNL     1      33.764 -22.939 -18.615  0.00  0.00    +0.292 HD
ENDBRANCH  15  18
ENDBRANCH   1  10
BRANCH   1  20
ATOM     20  O   UNL     1      36.270 -18.429 -23.097  0.00  0.00    -0.382 OA
ATOM     21  H   UNL     1      36.204 -19.391 -23.200  0.00  0.00    +0.211 HD
ENDBRANCH   1  20
TORSDOF 5
ENDMDL
MODEL 5
REMARK VINA RESULT:      -7.7      9.038     10.830
REMARK  Name = 46886609
REMARK  5 active torsions:
REMARK  status: ('A' for Active; 'I' for Inactive)
REMARK    1  A    between atoms: C_1  and  C_3
REMARK    2  A    between atoms: C_1  and  C_10
REMARK    3  A    between atoms: C_1  and  O_20
REMARK    4  A    between atoms: C_13  and  O_16
REMARK    5  A    between atoms: C_15  and  O_18
REMARK                            x       y       z     vdW  Elec       q    Type
REMARK                         _______ _______ _______ _____ _____    ______ ____
ROOT
ATOM      1  C   UNL     1      32.844  -7.929 -21.140  0.00  0.00    +0.114 C 
ENDROOT
BRANCH   1   3
ATOM      2  N   UNL     1      32.171 -10.140 -21.923  0.00  0.00    +0.387 N 
ATOM      3  C   UNL     1      31.918  -9.120 -20.899  0.00  0.00    -0.030 C 
ATOM      4  C   UNL     1      32.135  -9.694 -19.492  0.00  0.00    -0.019 C 
ATOM      5  C   UNL     1      31.276 -10.935 -19.262  0.00  0.00    -0.004 C 
ATOM      6  C   UNL     1      31.488 -11.948 -20.382  0.00  0.00    -0.023 C 
ATOM      7  C   UNL     1      31.299 -11.304 -21.753  0.00  0.00    -0.082 C 
ATOM      8  H   UNL     1      33.142 -10.443 -21.855  0.00  0.00    -0.084 HD
ATOM      9  H   UNL     1      31.979  -9.730 -22.836  0.00  0.00    -0.084 HD
ENDBRANCH   1   3
BRANCH   1  10
ATOM     10  C   UNL     1      32.233  -6.922 -22.084  0.00  0.00    +0.005 C 
ATOM     11  C   UNL     1      31.466  -5.872 -21.582  0.00  0.00    +0.038 C 
ATOM     12  C   UNL     1      32.437  -7.042 -23.458  0.00  0.00    +0.001 C 
ATOM     13  C   UNL     1      30.902  -4.940 -22.454  0.00  0.00    +0.167 C 
ATOM     14  C   UNL     1      31.874  -6.111 -24.330  0.00  0.00    +0.040 C 
ATOM     15  C   UNL     1      31.106  -5.060 -23.828  0.00  0.00    +0.167 C 
BRANCH  13  16
ATOM     16  O   UNL     1      30.157  -3.917 -21.950  0.00  0.00    -0.503 OA
ATOM     17  H   UNL     1      29.280  -3.783 -22.251  0.00  0.00    +0.292 HD
ENDBRANCH  13  16
BRANCH  15  18
ATOM     18  O   UNL     1      30.561  -4.157 -24.689  0.00  0.00    -0.503 OA
ATOM     19  H   UNL     1      30.771  -3.248 -24.610  0.00  0.00    +0.292 HD
ENDBRANCH  15  18
ENDBRANCH   1  10
BRANCH   1  20
ATOM     20  O   UNL     1      33.137  -7.296 -19.898  0.00  0.00    -0.382 OA
ATOM     21  H   UNL     1      32.802  -7.842 -19.170  0.00  0.00    +0.211 HD
ENDBRANCH   1  20
TORSDOF 5
ENDMDL
MODEL 6
REMARK VINA RESULT:      -7.6      4.895      8.633
REMARK  Name = 46886609
REMARK  5 active torsions:
REMARK  status: ('A' for Active; 'I' for Inactive)
REMARK    1  A    between atoms: C_1  and  C_3
REMARK    2  A    between atoms: C_1  and  C_10
REMARK    3  A    between atoms: C_1  and  O_20
REMARK    4  A    between atoms: C_13  and  O_16
REMARK    5  A    between atoms: C_15  and  O_18
REMARK                            x       y       z     vdW  Elec       q    Type
REMARK                         _______ _______ _______ _____ _____    ______ ____
ROOT
ATOM      1  C   UNL     1      34.533 -22.901 -18.700  0.00  0.00    +0.114 C 
ENDROOT
BRANCH   1   3
ATOM      2  N   UNL     1      35.509 -21.192 -20.143  0.00  0.00    +0.387 N 
ATOM      3  C   UNL     1      34.401 -21.472 -19.223  0.00  0.00    -0.030 C 
ATOM      4  C   UNL     1      33.049 -21.277 -19.923  0.00  0.00    -0.019 C 
ATOM      5  C   UNL     1      32.932 -19.879 -20.522  0.00  0.00    -0.004 C 
ATOM      6  C   UNL     1      34.136 -19.574 -21.408  0.00  0.00    -0.023 C 
ATOM      7  C   UNL     1      35.446 -19.827 -20.667  0.00  0.00    -0.082 C 
ATOM      8  H   UNL     1      35.464 -21.848 -20.923  0.00  0.00    -0.084 HD
ATOM      9  H   UNL     1      36.384 -21.296 -19.630  0.00  0.00    -0.084 HD
ENDBRANCH   1   3
BRANCH   1  10
ATOM     10  C   UNL     1      34.037 -23.030 -17.280  0.00  0.00    +0.005 C 
ATOM     11  C   UNL     1      34.938 -22.978 -16.218  0.00  0.00    +0.038 C 
ATOM     12  C   UNL     1      32.675 -23.202 -17.032  0.00  0.00    +0.001 C 
ATOM     13  C   UNL     1      34.478 -23.096 -14.906  0.00  0.00    +0.167 C 
ATOM     14  C   UNL     1      32.215 -23.320 -15.720  0.00  0.00    +0.040 C 
ATOM     15  C   UNL     1      33.117 -23.267 -14.658  0.00  0.00    +0.167 C 
BRANCH  13  16
ATOM     16  O   UNL     1      35.369 -23.039 -13.877  0.00  0.00    -0.503 OA
ATOM     17  H   UNL     1      35.316 -23.659 -13.176  0.00  0.00    +0.292 HD
ENDBRANCH  13  16
BRANCH  15  18
ATOM     18  O   UNL     1      32.657 -23.384 -13.381  0.00  0.00    -0.503 OA
ATOM     19  H   UNL     1      31.981 -24.000 -13.182  0.00  0.00    +0.292 HD
ENDBRANCH  15  18
ENDBRANCH   1  10
BRANCH   1  20
ATOM     20  O   UNL     1      33.796 -23.784 -19.540  0.00  0.00    -0.382 OA
ATOM     21  H   UNL     1      33.518 -24.560 -19.030  0.00  0.00    +0.211 HD
ENDBRANCH   1  20
TORSDOF 5
ENDMDL
MODEL 7
REMARK VINA RESULT:      -7.4      8.725     10.447
REMARK  Name = 46886609
REMARK  5 active torsions:
REMARK  status: ('A' for Active; 'I' for Inactive)
REMARK    1  A    between atoms: C_1  and  C_3
REMARK    2  A    between atoms: C_1  and  C_10
REMARK    3  A    between atoms: C_1  and  O_20
REMARK    4  A    between atoms: C_13  and  O_16
REMARK    5  A    between atoms: C_15  and  O_18
REMARK                            x       y       z     vdW  Elec       q    Type
REMARK                         _______ _______ _______ _____ _____    ______ ____
ROOT
ATOM      1  C   UNL     1      33.299 -23.856 -13.789  0.00  0.00    +0.114 C 
ENDROOT
BRANCH   1   3
ATOM      2  N   UNL     1      35.046 -22.573 -14.910  0.00  0.00    +0.387 N 
ATOM      3  C   UNL     1      34.496 -23.922 -14.736  0.00  0.00    -0.030 C 
ATOM      4  C   UNL     1      35.563 -24.880 -14.189  0.00  0.00    -0.019 C 
ATOM      5  C   UNL     1      36.801 -24.897 -15.081  0.00  0.00    -0.004 C 
ATOM      6  C   UNL     1      37.308 -23.478 -15.320  0.00  0.00    -0.023 C 
ATOM      7  C   UNL     1      36.190 -22.569 -15.822  0.00  0.00    -0.082 C 
ATOM      8  H   UNL     1      35.347 -22.219 -14.002  0.00  0.00    -0.084 HD
ATOM      9  H   UNL     1      34.318 -21.981 -15.309  0.00  0.00    -0.084 HD
ENDBRANCH   1   3
BRANCH   1  10
ATOM     10  C   UNL     1      31.990 -24.028 -14.521  0.00  0.00    +0.005 C 
ATOM     11  C   UNL     1      31.608 -23.106 -15.494  0.00  0.00    +0.038 C 
ATOM     12  C   UNL     1      31.164 -25.112 -14.225  0.00  0.00    +0.001 C 
ATOM     13  C   UNL     1      30.400 -23.266 -16.172  0.00  0.00    +0.167 C 
ATOM     14  C   UNL     1      29.955 -25.273 -14.902  0.00  0.00    +0.040 C 
ATOM     15  C   UNL     1      29.574 -24.349 -15.876  0.00  0.00    +0.167 C 
BRANCH  13  16
ATOM     16  O   UNL     1      30.040 -22.359 -17.123  0.00  0.00    -0.503 OA
ATOM     17  H   UNL     1      30.498 -22.330 -17.940  0.00  0.00    +0.292 HD
ENDBRANCH  13  16
BRANCH  15  18
ATOM     18  O   UNL     1      28.391 -24.517 -16.531  0.00  0.00    -0.503 OA
ATOM     19  H   UNL     1      28.270 -25.250 -17.100  0.00  0.00    +0.292 HD
ENDBRANCH  15  18
ENDBRANCH   1  10
BRANCH   1  20
ATOM     20  O   UNL     1      33.422 -24.872 -12.797  0.00  0.00    -0.382 OA
ATOM     21  H   UNL     1      33.516 -25.735 -13.228  0.00  0.00    +0.211 HD
ENDBRANCH   1  20
TORSDOF 5
ENDMDL
MODEL 8
REMARK VINA RESULT:      -7.4      9.584     11.470
REMARK  Name = 46886609
REMARK  5 active torsions:
REMARK  status: ('A' for Active; 'I' for Inactive)
REMARK    1  A    between atoms: C_1  and  C_3
REMARK    2  A    between atoms: C_1  and  C_10
REMARK    3  A    between atoms: C_1  and  O_20
REMARK    4  A    between atoms: C_13  and  O_16
REMARK    5  A    between atoms: C_15  and  O_18
REMARK                            x       y       z     vdW  Elec       q    Type
REMARK                         _______ _______ _______ _____ _____    ______ ____
ROOT
ATOM      1  C   UNL     1      34.635 -23.629 -13.993  0.00  0.00    +0.114 C 
ENDROOT
BRANCH   1   3
ATOM      2  N   UNL     1      32.501 -24.703 -13.498  0.00  0.00    +0.387 N 
ATOM      3  C   UNL     1      33.356 -24.217 -14.587  0.00  0.00    -0.030 C 
ATOM      4  C   UNL     1      32.621 -23.166 -15.430  0.00  0.00    -0.019 C 
ATOM      5  C   UNL     1      31.299 -23.710 -15.965  0.00  0.00    -0.004 C 
ATOM      6  C   UNL     1      30.460 -24.289 -14.830  0.00  0.00    -0.023 C 
ATOM      7  C   UNL     1      31.262 -25.294 -14.007  0.00  0.00    -0.082 C 
ATOM      8  H   UNL     1      32.266 -23.921 -12.887  0.00  0.00    -0.084 HD
ATOM      9  H   UNL     1      33.011 -25.424 -12.989  0.00  0.00    -0.084 HD
ENDBRANCH   1   3
BRANCH   1  10
ATOM     10  C   UNL     1      35.818 -24.546 -14.184  0.00  0.00    +0.005 C 
ATOM     11  C   UNL     1      35.780 -25.541 -15.161  0.00  0.00    +0.038 C 
ATOM     12  C   UNL     1      36.951 -24.398 -13.383  0.00  0.00    +0.001 C 
ATOM     13  C   UNL     1      36.875 -26.387 -15.337  0.00  0.00    +0.167 C 
ATOM     14  C   UNL     1      38.045 -25.244 -13.560  0.00  0.00    +0.040 C 
ATOM     15  C   UNL     1      38.007 -26.239 -14.537  0.00  0.00    +0.167 C 
BRANCH  13  16
ATOM     16  O   UNL     1      36.826 -27.353 -16.298  0.00  0.00    -0.503 OA
ATOM     17  H   UNL     1      36.591 -27.129 -17.176  0.00  0.00    +0.292 HD
ENDBRANCH  13  16
BRANCH  15  18
ATOM     18  O   UNL     1      39.082 -27.060 -14.701  0.00  0.00    -0.503 OA
ATOM     19  H   UNL     1      38.953 -27.965 -14.903  0.00  0.00    +0.292 HD
ENDBRANCH  15  18
ENDBRANCH   1  10
BRANCH   1  20
ATOM     20  O   UNL     1      34.908 -22.372 -14.606  0.00  0.00    -0.382 OA
ATOM     21  H   UNL     1      34.292 -21.705 -14.266  0.00  0.00    +0.211 HD
ENDBRANCH   1  20
TORSDOF 5
ENDMDL
MODEL 9
REMARK VINA RESULT:      -7.4      8.599     10.709
REMARK  Name = 46886609
REMARK  5 active torsions:
REMARK  status: ('A' for Active; 'I' for Inactive)
REMARK    1  A    between atoms: C_1  and  C_3
REMARK    2  A    between atoms: C_1  and  C_10
REMARK    3  A    between atoms: C_1  and  O_20
REMARK    4  A    between atoms: C_13  and  O_16
REMARK    5  A    between atoms: C_15  and  O_18
REMARK                            x       y       z     vdW  Elec       q    Type
REMARK                         _______ _______ _______ _____ _____    ______ ____
ROOT
ATOM      1  C   UNL     1      34.949 -23.086 -15.772  0.00  0.00    +0.114 C 
ENDROOT
BRANCH   1   3
ATOM      2  N   UNL     1      33.152 -22.925 -14.130  0.00  0.00    +0.387 N 
ATOM      3  C   UNL     1      33.546 -23.559 -15.393  0.00  0.00    -0.030 C 
ATOM      4  C   UNL     1      32.546 -23.223 -16.508  0.00  0.00    -0.019 C 
ATOM      5  C   UNL     1      31.125 -23.614 -16.112  0.00  0.00    -0.004 C 
ATOM      6  C   UNL     1      30.763 -23.016 -14.756  0.00  0.00    -0.023 C 
ATOM      7  C   UNL     1      31.817 -23.352 -13.705  0.00  0.00    -0.082 C 
ATOM      8  H   UNL     1      33.150 -21.913 -14.254  0.00  0.00    -0.084 HD
ATOM      9  H   UNL     1      33.818 -23.204 -13.411  0.00  0.00    -0.084 HD
ENDBRANCH   1   3
BRANCH   1  10
ATOM     10  C   UNL     1      36.001 -24.113 -15.429  0.00  0.00    +0.005 C 
ATOM     11  C   UNL     1      37.338 -23.733 -15.318  0.00  0.00    +0.038 C 
ATOM     12  C   UNL     1      35.635 -25.443 -15.222  0.00  0.00    +0.001 C 
ATOM     13  C   UNL     1      38.309 -24.682 -15.000  0.00  0.00    +0.167 C 
ATOM     14  C   UNL     1      36.606 -26.392 -14.904  0.00  0.00    +0.040 C 
ATOM     15  C   UNL     1      37.944 -26.011 -14.793  0.00  0.00    +0.167 C 
BRANCH  13  16
ATOM     16  O   UNL     1      39.612 -24.297 -14.891  0.00  0.00    -0.503 OA
ATOM     17  H   UNL     1      40.096 -24.059 -15.658  0.00  0.00    +0.292 HD
ENDBRANCH  13  16
BRANCH  15  18
ATOM     18  O   UNL     1      38.883 -26.947 -14.482  0.00  0.00    -0.503 OA
ATOM     19  H   UNL     1      38.820 -27.811 -14.838  0.00  0.00    +0.292 HD
ENDBRANCH  15  18
ENDBRANCH   1  10
BRANCH   1  20
ATOM     20  O   UNL     1      34.996 -22.811 -17.168  0.00  0.00    -0.382 OA
ATOM     21  H   UNL     1      35.899 -22.946 -17.495  0.00  0.00    +0.211 HD
ENDBRANCH   1  20
TORSDOF 5
ENDMDL
