MODEL 1
REMARK VINA RESULT:      -5.1      0.000      0.000
REMARK  Name = 6999776
REMARK  5 active torsions:
REMARK  status: ('A' for Active; 'I' for Inactive)
REMARK    1  A    between atoms: CA_1  and  N_2
REMARK    2  A    between atoms: CA_1  and  C_8
REMARK    3  A    between atoms: CA_1  and  C_9
REMARK    4  A    between atoms: C_9  and  C_10
REMARK    5  A    between atoms: C_10  and  C_11
REMARK                            x       y       z     vdW  Elec       q    Type
REMARK                         _______ _______ _______ _____ _____    ______ ____
ROOT
ATOM      1  CA  UNL     1      35.304 -17.437 -22.128  0.00  0.00    +0.040 C 
ENDROOT
BRANCH   1   2
ATOM      2  N   UNL     1      35.628 -17.004 -23.523  0.00  0.00    +0.389 N 
ATOM      3  H1  UNL     1      35.746 -17.827 -24.115  0.00  0.00    -0.088 HD
ATOM      4  H2  UNL     1      36.492 -16.462 -23.519  0.00  0.00    -0.088 HD
ATOM      5  H3  UNL     1      34.868 -16.430 -23.887  0.00  0.00    -0.088 HD
ENDBRANCH   1   2
BRANCH   1   8
ATOM      6  O   UNL     1      33.563 -15.852 -21.848  0.00  0.00    -0.248 OA
ATOM      7  OXT UNL     1      35.037 -16.166 -20.135  0.00  0.00    -0.248 OA
ATOM      8  C   UNL     1      34.570 -16.375 -21.290  0.00  0.00    +0.345 C 
ENDBRANCH   1   8
BRANCH   1   9
ATOM      9  C   UNL     1      34.611 -18.803 -22.216  0.00  0.00    -0.011 C 
BRANCH   9  10
ATOM     10  C   UNL     1      34.632 -19.611 -20.912  0.00  0.00    -0.002 C 
BRANCH  10  11
ATOM     11  C   UNL     1      33.235 -20.126 -20.561  0.00  0.00    -0.000 C 
ATOM     12  C   UNL     1      33.296 -21.246 -19.534  0.00  0.00    -0.000 C 
ENDBRANCH  10  11
ENDBRANCH   9  10
ENDBRANCH   1   9
TORSDOF 5
ENDMDL
MODEL 2
REMARK VINA RESULT:      -5.0      9.027      9.636
REMARK  Name = 6999776
REMARK  5 active torsions:
REMARK  status: ('A' for Active; 'I' for Inactive)
REMARK    1  A    between atoms: CA_1  and  N_2
REMARK    2  A    between atoms: CA_1  and  C_8
REMARK    3  A    between atoms: CA_1  and  C_9
REMARK    4  A    between atoms: C_9  and  C_10
REMARK    5  A    between atoms: C_10  and  C_11
REMARK                            x       y       z     vdW  Elec       q    Type
REMARK                         _______ _______ _______ _____ _____    ______ ____
ROOT
ATOM      1  CA  UNL     1      28.980 -22.893 -16.116  0.00  0.00    +0.040 C 
ENDROOT
BRANCH   1   2
ATOM      2  N   UNL     1      30.339 -22.776 -16.730  0.00  0.00    +0.389 N 
ATOM      3  H1  UNL     1      30.832 -21.984 -16.317  0.00  0.00    -0.088 HD
ATOM      4  H2  UNL     1      30.247 -22.632 -17.736  0.00  0.00    -0.088 HD
ATOM      5  H3  UNL     1      30.866 -23.632 -16.556  0.00  0.00    -0.088 HD
ENDBRANCH   1   2
BRANCH   1   8
ATOM      6  O   UNL     1      27.343 -21.512 -17.134  0.00  0.00    -0.248 OA
ATOM      7  OXT UNL     1      27.489 -23.693 -17.787  0.00  0.00    -0.248 OA
ATOM      8  C   UNL     1      27.818 -22.683 -17.103  0.00  0.00    +0.345 C 
ENDBRANCH   1   8
BRANCH   1   9
ATOM      9  C   UNL     1      28.943 -24.205 -15.321  0.00  0.00    -0.011 C 
BRANCH   9  10
ATOM     10  C   UNL     1      30.271 -24.972 -15.299  0.00  0.00    -0.002 C 
BRANCH  10  11
ATOM     11  C   UNL     1      30.851 -25.028 -13.884  0.00  0.00    -0.000 C 
ATOM     12  C   UNL     1      32.337 -24.705 -13.877  0.00  0.00    -0.000 C 
ENDBRANCH  10  11
ENDBRANCH   9  10
ENDBRANCH   1   9
TORSDOF 5
ENDMDL
MODEL 3
REMARK VINA RESULT:      -5.0      8.363      9.547
REMARK  Name = 6999776
REMARK  5 active torsions:
REMARK  status: ('A' for Active; 'I' for Inactive)
REMARK    1  A    between atoms: CA_1  and  N_2
REMARK    2  A    between atoms: CA_1  and  C_8
REMARK    3  A    between atoms: CA_1  and  C_9
REMARK    4  A    between atoms: C_9  and  C_10
REMARK    5  A    between atoms: C_10  and  C_11
REMARK                            x       y       z     vdW  Elec       q    Type
REMARK                         _______ _______ _______ _____ _____    ______ ____
ROOT
ATOM      1  CA  UNL     1      27.977 -22.412 -16.823  0.00  0.00    +0.040 C 
ENDROOT
BRANCH   1   2
ATOM      2  N   UNL     1      27.992 -23.855 -17.220  0.00  0.00    +0.389 N 
ATOM      3  H1  UNL     1      28.944 -24.131 -17.461  0.00  0.00    -0.088 HD
ATOM      4  H2  UNL     1      27.383 -23.992 -18.027  0.00  0.00    -0.088 HD
ATOM      5  H3  UNL     1      27.660 -24.425 -16.442  0.00  0.00    -0.088 HD
ENDBRANCH   1   2
BRANCH   1   8
ATOM      6  O   UNL     1      25.768 -22.103 -16.019  0.00  0.00    -0.248 OA
ATOM      7  OXT UNL     1      26.446 -20.902 -17.837  0.00  0.00    -0.248 OA
ATOM      8  C   UNL     1      26.593 -21.745 -16.909  0.00  0.00    +0.345 C 
ENDBRANCH   1   8
BRANCH   1   9
ATOM      9  C   UNL     1      28.682 -22.299 -15.464  0.00  0.00    -0.011 C 
BRANCH   9  10
ATOM     10  C   UNL     1      29.647 -23.450 -15.151  0.00  0.00    -0.002 C 
BRANCH  10  11
ATOM     11  C   UNL     1      31.101 -22.978 -15.195  0.00  0.00    -0.000 C 
ATOM     12  C   UNL     1      31.682 -23.091 -16.596  0.00  0.00    -0.000 C 
ENDBRANCH  10  11
ENDBRANCH   9  10
ENDBRANCH   1   9
TORSDOF 5
ENDMDL
MODEL 4
REMARK VINA RESULT:      -5.0      4.081      5.304
REMARK  Name = 6999776
REMARK  5 active torsions:
REMARK  status: ('A' for Active; 'I' for Inactive)
REMARK    1  A    between atoms: CA_1  and  N_2
REMARK    2  A    between atoms: CA_1  and  C_8
REMARK    3  A    between atoms: CA_1  and  C_9
REMARK    4  A    between atoms: C_9  and  C_10
REMARK    5  A    between atoms: C_10  and  C_11
REMARK                            x       y       z     vdW  Elec       q    Type
REMARK                         _______ _______ _______ _____ _____    ______ ____
ROOT
ATOM      1  CA  UNL     1      34.003 -21.042 -19.641  0.00  0.00    +0.040 C 
ENDROOT
BRANCH   1   2
ATOM      2  N   UNL     1      32.650 -21.107 -20.278  0.00  0.00    +0.389 N 
ATOM      3  H1  UNL     1      32.155 -20.230 -20.113  0.00  0.00    -0.088 HD
ATOM      4  H2  UNL     1      32.120 -21.879 -19.872  0.00  0.00    -0.088 HD
ATOM      5  H3  UNL     1      32.753 -21.256 -21.282  0.00  0.00    -0.088 HD
ENDBRANCH   1   2
BRANCH   1   8
ATOM      6  O   UNL     1      35.515 -22.322 -18.339  0.00  0.00    -0.248 OA
ATOM      7  OXT UNL     1      33.893 -23.414 -19.513  0.00  0.00    -0.248 OA
ATOM      8  C   UNL     1      34.525 -22.393 -19.122  0.00  0.00    +0.345 C 
ENDBRANCH   1   8
BRANCH   1   9
ATOM      9  C   UNL     1      34.935 -20.302 -20.610  0.00  0.00    -0.011 C 
BRANCH   9  10
ATOM     10  C   UNL     1      34.212 -19.427 -21.643  0.00  0.00    -0.002 C 
BRANCH  10  11
ATOM     11  C   UNL     1      35.202 -18.816 -22.636  0.00  0.00    -0.000 C 
ATOM     12  C   UNL     1      34.807 -19.117 -24.073  0.00  0.00    -0.000 C 
ENDBRANCH  10  11
ENDBRANCH   9  10
ENDBRANCH   1   9
TORSDOF 5
ENDMDL
MODEL 5
REMARK VINA RESULT:      -5.0      2.134      2.573
REMARK  Name = 6999776
REMARK  5 active torsions:
REMARK  status: ('A' for Active; 'I' for Inactive)
REMARK    1  A    between atoms: CA_1  and  N_2
REMARK    2  A    between atoms: CA_1  and  C_8
REMARK    3  A    between atoms: CA_1  and  C_9
REMARK    4  A    between atoms: C_9  and  C_10
REMARK    5  A    between atoms: C_10  and  C_11
REMARK                            x       y       z     vdW  Elec       q    Type
REMARK                         _______ _______ _______ _____ _____    ______ ____
ROOT
ATOM      1  CA  UNL     1      35.144 -18.060 -23.730  0.00  0.00    +0.040 C 
ENDROOT
BRANCH   1   2
ATOM      2  N   UNL     1      34.657 -19.290 -24.431  0.00  0.00    +0.389 N 
ATOM      3  H1  UNL     1      35.109 -20.112 -24.029  0.00  0.00    -0.088 HD
ATOM      4  H2  UNL     1      34.886 -19.228 -25.424  0.00  0.00    -0.088 HD
ATOM      5  H3  UNL     1      33.647 -19.368 -24.319  0.00  0.00    -0.088 HD
ENDBRANCH   1   2
BRANCH   1   8
ATOM      6  O   UNL     1      34.832 -15.711 -23.778  0.00  0.00    -0.248 OA
ATOM      7  OXT UNL     1      34.784 -16.857 -25.750  0.00  0.00    -0.248 OA
ATOM      8  C   UNL     1      34.886 -16.751 -24.496  0.00  0.00    +0.345 C 
ENDBRANCH   1   8
BRANCH   1   9
ATOM      9  C   UNL     1      34.606 -18.104 -22.294  0.00  0.00    -0.011 C 
BRANCH   9  10
ATOM     10  C   UNL     1      34.536 -19.510 -21.684  0.00  0.00    -0.002 C 
BRANCH  10  11
ATOM     11  C   UNL     1      33.252 -19.696 -20.873  0.00  0.00    -0.000 C 
ATOM     12  C   UNL     1      33.363 -20.872 -19.917  0.00  0.00    -0.000 C 
ENDBRANCH  10  11
ENDBRANCH   9  10
ENDBRANCH   1   9
TORSDOF 5
ENDMDL
MODEL 6
REMARK VINA RESULT:      -4.9      2.628      3.016
REMARK  Name = 6999776
REMARK  5 active torsions:
REMARK  status: ('A' for Active; 'I' for Inactive)
REMARK    1  A    between atoms: CA_1  and  N_2
REMARK    2  A    between atoms: CA_1  and  C_8
REMARK    3  A    between atoms: CA_1  and  C_9
REMARK    4  A    between atoms: C_9  and  C_10
REMARK    5  A    between atoms: C_10  and  C_11
REMARK                            x       y       z     vdW  Elec       q    Type
REMARK                         _______ _______ _______ _____ _____    ______ ____
ROOT
ATOM      1  CA  UNL     1      34.783 -17.518 -23.446  0.00  0.00    +0.040 C 
ENDROOT
BRANCH   1   2
ATOM      2  N   UNL     1      35.394 -16.155 -23.529  0.00  0.00    +0.389 N 
ATOM      3  H1  UNL     1      35.667 -15.848 -22.594  0.00  0.00    -0.088 HD
ATOM      4  H2  UNL     1      34.715 -15.500 -23.916  0.00  0.00    -0.088 HD
ATOM      5  H3  UNL     1      36.218 -16.187 -24.130  0.00  0.00    -0.088 HD
ENDBRANCH   1   2
BRANCH   1   8
ATOM      6  O   UNL     1      34.603 -19.466 -24.785  0.00  0.00    -0.248 OA
ATOM      7  OXT UNL     1      34.373 -17.430 -25.787  0.00  0.00    -0.248 OA
ATOM      8  C   UNL     1      34.574 -18.202 -24.809  0.00  0.00    +0.345 C 
ENDBRANCH   1   8
BRANCH   1   9
ATOM      9  C   UNL     1      35.587 -18.325 -22.418  0.00  0.00    -0.011 C 
BRANCH   9  10
ATOM     10  C   UNL     1      34.872 -18.538 -21.078  0.00  0.00    -0.002 C 
BRANCH  10  11
ATOM     11  C   UNL     1      34.353 -19.972 -20.953  0.00  0.00    -0.000 C 
ATOM     12  C   UNL     1      32.892 -20.001 -20.531  0.00  0.00    -0.000 C 
ENDBRANCH  10  11
ENDBRANCH   9  10
ENDBRANCH   1   9
TORSDOF 5
ENDMDL
MODEL 7
REMARK VINA RESULT:      -4.9     10.834     11.685
REMARK  Name = 6999776
REMARK  5 active torsions:
REMARK  status: ('A' for Active; 'I' for Inactive)
REMARK    1  A    between atoms: CA_1  and  N_2
REMARK    2  A    between atoms: CA_1  and  C_8
REMARK    3  A    between atoms: CA_1  and  C_9
REMARK    4  A    between atoms: C_9  and  C_10
REMARK    5  A    between atoms: C_10  and  C_11
REMARK                            x       y       z     vdW  Elec       q    Type
REMARK                         _______ _______ _______ _____ _____    ______ ____
ROOT
ATOM      1  CA  UNL     1      38.936 -25.646 -14.526  0.00  0.00    +0.040 C 
ENDROOT
BRANCH   1   2
ATOM      2  N   UNL     1      38.348 -24.470 -15.242  0.00  0.00    +0.389 N 
ATOM      3  H1  UNL     1      38.834 -24.335 -16.129  0.00  0.00    -0.088 HD
ATOM      4  H2  UNL     1      38.453 -23.635 -14.666  0.00  0.00    -0.088 HD
ATOM      5  H3  UNL     1      37.358 -24.640 -15.419  0.00  0.00    -0.088 HD
ENDBRANCH   1   2
BRANCH   1   8
ATOM      6  O   UNL     1      40.970 -26.863 -14.515  0.00  0.00    -0.248 OA
ATOM      7  OXT UNL     1      41.062 -24.586 -14.637  0.00  0.00    -0.248 OA
ATOM      8  C   UNL     1      40.473 -25.700 -14.553  0.00  0.00    +0.345 C 
ENDBRANCH   1   8
BRANCH   1   9
ATOM      9  C   UNL     1      38.297 -25.705 -13.132  0.00  0.00    -0.011 C 
BRANCH   9  10
ATOM     10  C   UNL     1      38.374 -24.391 -12.342  0.00  0.00    -0.002 C 
BRANCH  10  11
ATOM     11  C   UNL     1      37.046 -24.090 -11.645  0.00  0.00    -0.000 C 
ATOM     12  C   UNL     1      36.011 -23.556 -12.624  0.00  0.00    -0.000 C 
ENDBRANCH  10  11
ENDBRANCH   9  10
ENDBRANCH   1   9
TORSDOF 5
ENDMDL
MODEL 8
REMARK VINA RESULT:      -4.9      3.897      5.144
REMARK  Name = 6999776
REMARK  5 active torsions:
REMARK  status: ('A' for Active; 'I' for Inactive)
REMARK    1  A    between atoms: CA_1  and  N_2
REMARK    2  A    between atoms: CA_1  and  C_8
REMARK    3  A    between atoms: CA_1  and  C_9
REMARK    4  A    between atoms: C_9  and  C_10
REMARK    5  A    between atoms: C_10  and  C_11
REMARK                            x       y       z     vdW  Elec       q    Type
REMARK                         _______ _______ _______ _____ _____    ______ ____
ROOT
ATOM      1  CA  UNL     1      34.900 -21.242 -19.962  0.00  0.00    +0.040 C 
ENDROOT
BRANCH   1   2
ATOM      2  N   UNL     1      36.177 -20.638 -19.469  0.00  0.00    +0.389 N 
ATOM      3  H1  UNL     1      36.337 -19.748 -19.942  0.00  0.00    -0.088 HD
ATOM      4  H2  UNL     1      36.952 -21.272 -19.667  0.00  0.00    -0.088 HD
ATOM      5  H3  UNL     1      36.114 -20.482 -18.463  0.00  0.00    -0.088 HD
ENDBRANCH   1   2
BRANCH   1   8
ATOM      6  O   UNL     1      34.977 -22.690 -18.086  0.00  0.00    -0.248 OA
ATOM      7  OXT UNL     1      32.963 -22.311 -19.090  0.00  0.00    -0.248 OA
ATOM      8  C   UNL     1      34.212 -22.179 -18.954  0.00  0.00    +0.345 C 
ENDBRANCH   1   8
BRANCH   1   9
ATOM      9  C   UNL     1      34.029 -20.102 -20.506  0.00  0.00    -0.011 C 
BRANCH   9  10
ATOM     10  C   UNL     1      34.797 -19.045 -21.311  0.00  0.00    -0.002 C 
BRANCH  10  11
ATOM     11  C   UNL     1      34.712 -19.327 -22.812  0.00  0.00    -0.000 C 
ATOM     12  C   UNL     1      35.378 -18.228 -23.624  0.00  0.00    -0.000 C 
ENDBRANCH  10  11
ENDBRANCH   9  10
ENDBRANCH   1   9
TORSDOF 5
ENDMDL
MODEL 9
REMARK VINA RESULT:      -4.9      3.679      4.487
REMARK  Name = 6999776
REMARK  5 active torsions:
REMARK  status: ('A' for Active; 'I' for Inactive)
REMARK    1  A    between atoms: CA_1  and  N_2
REMARK    2  A    between atoms: CA_1  and  C_8
REMARK    3  A    between atoms: CA_1  and  C_9
REMARK    4  A    between atoms: C_9  and  C_10
REMARK    5  A    between atoms: C_10  and  C_11
REMARK                            x       y       z     vdW  Elec       q    Type
REMARK                         _______ _______ _______ _____ _____    ______ ____
ROOT
ATOM      1  CA  UNL     1      33.884 -15.622 -24.090  0.00  0.00    +0.040 C 
ENDROOT
BRANCH   1   2
ATOM      2  N   UNL     1      33.737 -14.134 -24.061  0.00  0.00    +0.389 N 
ATOM      3  H1  UNL     1      33.965 -13.751 -24.979  0.00  0.00    -0.088 HD
ATOM      4  H2  UNL     1      34.372 -13.743 -23.363  0.00  0.00    -0.088 HD
ATOM      5  H3  UNL     1      32.776 -13.891 -23.821  0.00  0.00    -0.088 HD
ENDBRANCH   1   2
BRANCH   1   8
ATOM      6  O   UNL     1      34.559 -17.368 -25.545  0.00  0.00    -0.248 OA
ATOM      7  OXT UNL     1      33.604 -15.504 -26.448  0.00  0.00    -0.248 OA
ATOM      8  C   UNL     1      34.037 -16.217 -25.501  0.00  0.00    +0.345 C 
ENDBRANCH   1   8
BRANCH   1   9
ATOM      9  C   UNL     1      34.987 -15.998 -23.091  0.00  0.00    -0.011 C 
BRANCH   9  10
ATOM     10  C   UNL     1      34.473 -16.534 -21.749  0.00  0.00    -0.002 C 
BRANCH  10  11
ATOM     11  C   UNL     1      34.395 -15.419 -20.704  0.00  0.00    -0.000 C 
ATOM     12  C   UNL     1      32.959 -14.988 -20.455  0.00  0.00    -0.000 C 
ENDBRANCH  10  11
ENDBRANCH   9  10
ENDBRANCH   1   9
TORSDOF 5
ENDMDL
