MODEL 1
REMARK VINA RESULT:     -10.6      0.000      0.000
REMARK  Name = 44556193
REMARK  4 active torsions:
REMARK  status: ('A' for Active; 'I' for Inactive)
REMARK    1  A    between atoms: N_3  and  C_22
REMARK    2  A    between atoms: C_10  and  C_14
REMARK    3  A    between atoms: C_16  and  C_19
REMARK    4  A    between atoms: C_22  and  C_24
REMARK                            x       y       z     vdW  Elec       q    Type
REMARK                         _______ _______ _______ _____ _____    ______ ____
ROOT
ATOM      1 CL   UNL     1      33.657 -15.371 -26.280  0.00  0.00    -0.082 Cl
ATOM      2  O   UNL     1      34.594 -17.750 -24.616  0.00  0.00    -0.270 OA
ATOM      3  N   UNL     1      34.506 -17.496 -22.280  0.00  0.00    -0.274 N 
ATOM      4  C   UNL     1      34.105 -16.461 -21.333  0.00  0.00    +0.121 C 
ATOM      5  C   UNL     1      34.350 -17.112 -23.607  0.00  0.00    +0.250 C 
ATOM      6  C   UNL     1      33.670 -15.363 -22.242  0.00  0.00    +0.003 C 
ATOM      7  C   UNL     1      33.815 -15.747 -23.577  0.00  0.00    +0.062 C 
ATOM      8  C   UNL     1      33.180 -14.109 -21.926  0.00  0.00    +0.001 C 
ATOM      9  C   UNL     1      33.486 -14.919 -24.631  0.00  0.00    +0.062 C 
ATOM     10  C   UNL     1      32.839 -13.251 -22.977  0.00  0.00    +0.038 C 
ATOM     11  C   UNL     1      32.990 -13.653 -24.317  0.00  0.00    +0.015 C 
ENDROOT
BRANCH  10  14
ATOM     12  O   UNL     1      31.353 -11.881 -21.735  0.00  0.00    -0.353 OA
ATOM     13  N   UNL     1      30.958 -10.562 -21.557  0.00  0.00    -0.072 NA
ATOM     14  C   UNL     1      32.324 -11.935 -22.682  0.00  0.00    +0.177 C 
ATOM     15  C   UNL     1      32.589 -10.673 -23.143  0.00  0.00    +0.067 C 
ATOM     16  C   UNL     1      31.710  -9.858 -22.408  0.00  0.00    +0.176 C 
BRANCH  16  19
ATOM     17  O   UNL     1      31.022  -7.959 -23.506  0.00  0.00    -0.268 OA
ATOM     18  N   UNL     1      32.010  -7.622 -21.414  0.00  0.00    -0.271 N 
ATOM     19  C   UNL     1      31.561  -8.433 -22.486  0.00  0.00    +0.270 C 
ATOM     20  C   UNL     1      32.639  -8.186 -20.222  0.00  0.00    +0.115 C 
ATOM     21  C   UNL     1      31.872  -6.172 -21.429  0.00  0.00    +0.115 C 
ENDBRANCH  16  19
ENDBRANCH  10  14
BRANCH   3  22
ATOM     22  C   UNL     1      35.010 -18.774 -21.828  0.00  0.00    +0.076 C 
ATOM     23  C   UNL     1      36.472 -18.668 -21.511  0.00  0.00    +0.022 C 
BRANCH  22  24
ATOM     24  C   UNL     1      34.209 -19.266 -20.628  0.00  0.00    +0.018 C 
ATOM     25  C   UNL     1      33.047 -20.189 -20.849  0.00  0.00    +0.002 C 
ATOM     26  C   UNL     1      34.308 -20.708 -20.222  0.00  0.00    +0.002 C 
ENDBRANCH  22  24
ENDBRANCH   3  22
TORSDOF 4
ENDMDL
MODEL 2
REMARK VINA RESULT:     -10.5      5.986     10.000
REMARK  Name = 44556193
REMARK  4 active torsions:
REMARK  status: ('A' for Active; 'I' for Inactive)
REMARK    1  A    between atoms: N_3  and  C_22
REMARK    2  A    between atoms: C_10  and  C_14
REMARK    3  A    between atoms: C_16  and  C_19
REMARK    4  A    between atoms: C_22  and  C_24
REMARK                            x       y       z     vdW  Elec       q    Type
REMARK                         _______ _______ _______ _____ _____    ______ ____
ROOT
ATOM      1 CL   UNL     1      32.542 -23.425 -17.341  0.00  0.00    -0.082 Cl
ATOM      2  O   UNL     1      34.453 -24.414 -15.179  0.00  0.00    -0.270 OA
ATOM      3  N   UNL     1      36.665 -23.622 -15.291  0.00  0.00    -0.274 N 
ATOM      4  C   UNL     1      37.438 -22.734 -16.152  0.00  0.00    +0.121 C 
ATOM      5  C   UNL     1      35.339 -23.752 -15.690  0.00  0.00    +0.250 C 
ATOM      6  C   UNL     1      36.420 -22.314 -17.156  0.00  0.00    +0.003 C 
ATOM      7  C   UNL     1      35.188 -22.913 -16.883  0.00  0.00    +0.062 C 
ATOM      8  C   UNL     1      36.558 -21.464 -18.238  0.00  0.00    +0.001 C 
ATOM      9  C   UNL     1      34.066 -22.698 -17.658  0.00  0.00    +0.062 C 
ATOM     10  C   UNL     1      35.435 -21.230 -19.039  0.00  0.00    +0.038 C 
ATOM     11  C   UNL     1      34.201 -21.840 -18.751  0.00  0.00    +0.015 C 
ENDROOT
BRANCH  10  14
ATOM     12  O   UNL     1      36.721 -19.679 -20.292  0.00  0.00    -0.353 OA
ATOM     13  N   UNL     1      36.683 -18.876 -21.425  0.00  0.00    -0.072 NA
ATOM     14  C   UNL     1      35.545 -20.349 -20.177  0.00  0.00    +0.177 C 
ATOM     15  C   UNL     1      34.718 -20.009 -21.215  0.00  0.00    +0.067 C 
ATOM     16  C   UNL     1      35.478 -19.089 -21.960  0.00  0.00    +0.176 C 
BRANCH  16  19
ATOM     17  O   UNL     1      35.071 -19.069 -24.222  0.00  0.00    -0.268 OA
ATOM     18  N   UNL     1      34.757 -17.034 -23.114  0.00  0.00    -0.271 N 
ATOM     19  C   UNL     1      35.098 -18.408 -23.164  0.00  0.00    +0.270 C 
ATOM     20  C   UNL     1      34.789 -16.268 -21.870  0.00  0.00    +0.115 C 
ATOM     21  C   UNL     1      34.349 -16.294 -24.300  0.00  0.00    +0.115 C 
ENDBRANCH  16  19
ENDBRANCH  10  14
BRANCH   3  22
ATOM     22  C   UNL     1      37.268 -24.277 -14.151  0.00  0.00    +0.076 C 
ATOM     23  C   UNL     1      38.595 -24.861 -14.535  0.00  0.00    +0.022 C 
BRANCH  22  24
ATOM     24  C   UNL     1      37.399 -23.302 -12.987  0.00  0.00    +0.018 C 
ATOM     25  C   UNL     1      36.596 -23.534 -11.740  0.00  0.00    +0.002 C 
ATOM     26  C   UNL     1      38.081 -23.752 -11.728  0.00  0.00    +0.002 C 
ENDBRANCH  22  24
ENDBRANCH   3  22
TORSDOF 4
ENDMDL
MODEL 3
REMARK VINA RESULT:      -9.9      1.901      8.934
REMARK  Name = 44556193
REMARK  4 active torsions:
REMARK  status: ('A' for Active; 'I' for Inactive)
REMARK    1  A    between atoms: N_3  and  C_22
REMARK    2  A    between atoms: C_10  and  C_14
REMARK    3  A    between atoms: C_16  and  C_19
REMARK    4  A    between atoms: C_22  and  C_24
REMARK                            x       y       z     vdW  Elec       q    Type
REMARK                         _______ _______ _______ _____ _____    ______ ____
ROOT
ATOM      1 CL   UNL     1      33.589 -12.999 -25.287  0.00  0.00    -0.082 Cl
ATOM      2  O   UNL     1      32.290 -10.861 -23.542  0.00  0.00    -0.270 OA
ATOM      3  N   UNL     1      31.945 -11.418 -21.283  0.00  0.00    -0.274 N 
ATOM      4  C   UNL     1      32.190 -12.566 -20.418  0.00  0.00    +0.121 C 
ATOM      5  C   UNL     1      32.358 -11.624 -22.595  0.00  0.00    +0.250 C 
ATOM      6  C   UNL     1      32.818 -13.534 -21.359  0.00  0.00    +0.003 C 
ATOM      7  C   UNL     1      32.916 -12.980 -22.637  0.00  0.00    +0.062 C 
ATOM      8  C   UNL     1      33.276 -14.817 -21.119  0.00  0.00    +0.001 C 
ATOM      9  C   UNL     1      33.460 -13.662 -23.707  0.00  0.00    +0.062 C 
ATOM     10  C   UNL     1      33.833 -15.529 -22.187  0.00  0.00    +0.038 C 
ATOM     11  C   UNL     1      33.924 -14.956 -23.469  0.00  0.00    +0.015 C 
ENDROOT
BRANCH  10  14
ATOM     12  O   UNL     1      34.477 -17.628 -23.085  0.00  0.00    -0.353 OA
ATOM     13  N   UNL     1      34.949 -18.883 -22.725  0.00  0.00    -0.072 NA
ATOM     14  C   UNL     1      34.319 -16.870 -21.970  0.00  0.00    +0.177 C 
ATOM     15  C   UNL     1      34.679 -17.597 -20.865  0.00  0.00    +0.067 C 
ATOM     16  C   UNL     1      35.062 -18.842 -21.395  0.00  0.00    +0.176 C 
BRANCH  16  19
ATOM     17  O   UNL     1      36.766 -20.174 -20.617  0.00  0.00    -0.268 OA
ATOM     18  N   UNL     1      34.603 -20.866 -20.065  0.00  0.00    -0.271 N 
ATOM     19  C   UNL     1      35.533 -19.993 -20.679  0.00  0.00    +0.270 C 
ATOM     20  C   UNL     1      33.160 -20.646 -20.142  0.00  0.00    +0.115 C 
ATOM     21  C   UNL     1      35.022 -22.041 -19.313  0.00  0.00    +0.115 C 
ENDBRANCH  16  19
ENDBRANCH  10  14
BRANCH   3  22
ATOM     22  C   UNL     1      31.329 -10.211 -20.776  0.00  0.00    +0.076 C 
ATOM     23  C   UNL     1      30.847 -10.431 -19.372  0.00  0.00    +0.022 C 
BRANCH  22  24
ATOM     24  C   UNL     1      32.304  -9.043 -20.858  0.00  0.00    +0.018 C 
ATOM     25  C   UNL     1      31.899  -7.798 -21.592  0.00  0.00    +0.002 C 
ATOM     26  C   UNL     1      32.006  -7.785 -20.095  0.00  0.00    +0.002 C 
ENDBRANCH  22  24
ENDBRANCH   3  22
TORSDOF 4
ENDMDL
MODEL 4
REMARK VINA RESULT:      -9.9      3.283      9.503
REMARK  Name = 44556193
REMARK  4 active torsions:
REMARK  status: ('A' for Active; 'I' for Inactive)
REMARK    1  A    between atoms: N_3  and  C_22
REMARK    2  A    between atoms: C_10  and  C_14
REMARK    3  A    between atoms: C_16  and  C_19
REMARK    4  A    between atoms: C_22  and  C_24
REMARK                            x       y       z     vdW  Elec       q    Type
REMARK                         _______ _______ _______ _____ _____    ______ ____
ROOT
ATOM      1 CL   UNL     1      34.912 -17.995 -25.577  0.00  0.00    -0.082 Cl
ATOM      2  O   UNL     1      33.750 -15.191 -25.262  0.00  0.00    -0.270 OA
ATOM      3  N   UNL     1      33.264 -14.498 -23.068  0.00  0.00    -0.274 N 
ATOM      4  C   UNL     1      33.364 -15.058 -21.725  0.00  0.00    +0.121 C 
ATOM      5  C   UNL     1      33.708 -15.368 -24.057  0.00  0.00    +0.250 C 
ATOM      6  C   UNL     1      33.936 -16.407 -21.994  0.00  0.00    +0.003 C 
ATOM      7  C   UNL     1      34.137 -16.588 -23.364  0.00  0.00    +0.062 C 
ATOM      8  C   UNL     1      34.262 -17.413 -21.103  0.00  0.00    +0.001 C 
ATOM      9  C   UNL     1      34.658 -17.751 -23.895  0.00  0.00    +0.062 C 
ATOM     10  C   UNL     1      34.791 -18.603 -21.616  0.00  0.00    +0.038 C 
ATOM     11  C   UNL     1      34.988 -18.769 -23.000  0.00  0.00    +0.015 C 
ENDROOT
BRANCH  10  14
ATOM     12  O   UNL     1      36.459 -19.988 -20.655  0.00  0.00    -0.353 OA
ATOM     13  N   UNL     1      36.645 -21.026 -19.752  0.00  0.00    -0.072 NA
ATOM     14  C   UNL     1      35.140 -19.673 -20.713  0.00  0.00    +0.177 C 
ATOM     15  C   UNL     1      34.435 -20.482 -19.862  0.00  0.00    +0.067 C 
ATOM     16  C   UNL     1      35.422 -21.305 -19.290  0.00  0.00    +0.176 C 
BRANCH  16  19
ATOM     17  O   UNL     1      34.377 -23.213 -18.548  0.00  0.00    -0.268 OA
ATOM     18  N   UNL     1      36.051 -22.365 -17.156  0.00  0.00    -0.271 N 
ATOM     19  C   UNL     1      35.243 -22.346 -18.319  0.00  0.00    +0.270 C 
ATOM     20  C   UNL     1      37.065 -21.346 -16.895  0.00  0.00    +0.115 C 
ATOM     21  C   UNL     1      35.927 -23.404 -16.142  0.00  0.00    +0.115 C 
ENDBRANCH  16  19
ENDBRANCH  10  14
BRANCH   3  22
ATOM     22  C   UNL     1      32.744 -13.167 -23.290  0.00  0.00    +0.076 C 
ATOM     23  C   UNL     1      32.085 -12.656 -22.043  0.00  0.00    +0.022 C 
BRANCH  22  24
ATOM     24  C   UNL     1      33.855 -12.236 -23.759  0.00  0.00    +0.018 C 
ATOM     25  C   UNL     1      33.827 -11.707 -25.164  0.00  0.00    +0.002 C 
ATOM     26  C   UNL     1      33.542 -10.789 -24.011  0.00  0.00    +0.002 C 
ENDBRANCH  22  24
ENDBRANCH   3  22
TORSDOF 4
ENDMDL
MODEL 5
REMARK VINA RESULT:      -9.8      2.470      9.319
REMARK  Name = 44556193
REMARK  4 active torsions:
REMARK  status: ('A' for Active; 'I' for Inactive)
REMARK    1  A    between atoms: N_3  and  C_22
REMARK    2  A    between atoms: C_10  and  C_14
REMARK    3  A    between atoms: C_16  and  C_19
REMARK    4  A    between atoms: C_22  and  C_24
REMARK                            x       y       z     vdW  Elec       q    Type
REMARK                         _______ _______ _______ _____ _____    ______ ____
ROOT
ATOM      1 CL   UNL     1      30.625 -11.166 -20.911  0.00  0.00    -0.082 Cl
ATOM      2  O   UNL     1      31.452  -8.412 -21.928  0.00  0.00    -0.270 OA
ATOM      3  N   UNL     1      33.104  -8.364 -23.602  0.00  0.00    -0.274 N 
ATOM      4  C   UNL     1      33.900  -9.336 -24.343  0.00  0.00    +0.121 C 
ATOM      5  C   UNL     1      32.238  -8.952 -22.687  0.00  0.00    +0.250 C 
ATOM      6  C   UNL     1      33.420 -10.626 -23.776  0.00  0.00    +0.003 C 
ATOM      7  C   UNL     1      32.444 -10.400 -22.803  0.00  0.00    +0.062 C 
ATOM      8  C   UNL     1      33.808 -11.917 -24.086  0.00  0.00    +0.001 C 
ATOM      9  C   UNL     1      31.827 -11.423 -22.112  0.00  0.00    +0.062 C 
ATOM     10  C   UNL     1      33.197 -12.972 -23.400  0.00  0.00    +0.038 C 
ATOM     11  C   UNL     1      32.215 -12.727 -22.422  0.00  0.00    +0.015 C 
ENDROOT
BRANCH  10  14
ATOM     12  O   UNL     1      33.471 -14.700 -25.001  0.00  0.00    -0.353 OA
ATOM     13  N   UNL     1      33.871 -16.023 -25.139  0.00  0.00    -0.072 NA
ATOM     14  C   UNL     1      33.580 -14.331 -23.700  0.00  0.00    +0.177 C 
ATOM     15  C   UNL     1      34.048 -15.384 -22.960  0.00  0.00    +0.067 C 
ATOM     16  C   UNL     1      34.212 -16.411 -23.907  0.00  0.00    +0.176 C 
BRANCH  16  19
ATOM     17  O   UNL     1      35.090 -18.395 -24.667  0.00  0.00    -0.268 OA
ATOM     18  N   UNL     1      34.685 -18.277 -22.368  0.00  0.00    -0.271 N 
ATOM     19  C   UNL     1      34.683 -17.747 -23.681  0.00  0.00    +0.270 C 
ATOM     20  C   UNL     1      34.207 -17.512 -21.218  0.00  0.00    +0.115 C 
ATOM     21  C   UNL     1      35.165 -19.621 -22.075  0.00  0.00    +0.115 C 
ENDBRANCH  16  19
ENDBRANCH  10  14
BRANCH   3  22
ATOM     22  C   UNL     1      33.244  -6.943 -23.834  0.00  0.00    +0.076 C 
ATOM     23  C   UNL     1      34.488  -6.671 -24.628  0.00  0.00    +0.022 C 
BRANCH  22  24
ATOM     24  C   UNL     1      32.004  -6.394 -24.528  0.00  0.00    +0.018 C 
ATOM     25  C   UNL     1      31.193  -5.328 -23.849  0.00  0.00    +0.002 C 
ATOM     26  C   UNL     1      32.020  -4.989 -25.055  0.00  0.00    +0.002 C 
ENDBRANCH  22  24
ENDBRANCH   3  22
TORSDOF 4
ENDMDL
MODEL 6
REMARK VINA RESULT:      -9.7      1.996      2.495
REMARK  Name = 44556193
REMARK  4 active torsions:
REMARK  status: ('A' for Active; 'I' for Inactive)
REMARK    1  A    between atoms: N_3  and  C_22
REMARK    2  A    between atoms: C_10  and  C_14
REMARK    3  A    between atoms: C_16  and  C_19
REMARK    4  A    between atoms: C_22  and  C_24
REMARK                            x       y       z     vdW  Elec       q    Type
REMARK                         _______ _______ _______ _____ _____    ______ ____
ROOT
ATOM      1 CL   UNL     1      33.395 -13.711 -27.444  0.00  0.00    -0.082 Cl
ATOM      2  O   UNL     1      33.821 -16.378 -26.027  0.00  0.00    -0.270 OA
ATOM      3  N   UNL     1      34.109 -16.292 -23.694  0.00  0.00    -0.274 N 
ATOM      4  C   UNL     1      34.145 -15.264 -22.661  0.00  0.00    +0.121 C 
ATOM      5  C   UNL     1      33.900 -15.778 -24.969  0.00  0.00    +0.250 C 
ATOM      6  C   UNL     1      33.928 -14.022 -23.453  0.00  0.00    +0.003 C 
ATOM      7  C   UNL     1      33.785 -14.325 -24.809  0.00  0.00    +0.062 C 
ATOM      8  C   UNL     1      33.860 -12.709 -23.022  0.00  0.00    +0.001 C 
ATOM      9  C   UNL     1      33.573 -13.359 -25.772  0.00  0.00    +0.062 C 
ATOM     10  C   UNL     1      33.645 -11.711 -23.978  0.00  0.00    +0.038 C 
ATOM     11  C   UNL     1      33.502 -12.034 -25.341  0.00  0.00    +0.015 C 
ENDROOT
BRANCH  10  14
ATOM     12  O   UNL     1      34.704  -9.604 -23.720  0.00  0.00    -0.353 OA
ATOM     13  N   UNL     1      34.483  -8.306 -23.280  0.00  0.00    -0.072 NA
ATOM     14  C   UNL     1      33.569 -10.332 -23.561  0.00  0.00    +0.177 C 
ATOM     15  C   UNL     1      32.588  -9.542 -23.022  0.00  0.00    +0.067 C 
ATOM     16  C   UNL     1      33.213  -8.292 -22.868  0.00  0.00    +0.176 C 
BRANCH  16  19
ATOM     17  O   UNL     1      32.705  -6.897 -21.112  0.00  0.00    -0.268 OA
ATOM     18  N   UNL     1      32.049  -6.149 -23.227  0.00  0.00    -0.271 N 
ATOM     19  C   UNL     1      32.643  -7.084 -22.344  0.00  0.00    +0.270 C 
ATOM     20  C   UNL     1      31.980  -6.375 -24.669  0.00  0.00    +0.115 C 
ATOM     21  C   UNL     1      31.468  -4.899 -22.757  0.00  0.00    +0.115 C 
ENDBRANCH  16  19
ENDBRANCH  10  14
BRANCH   3  22
ATOM     22  C   UNL     1      34.282 -17.692 -23.370  0.00  0.00    +0.076 C 
ATOM     23  C   UNL     1      35.405 -18.273 -24.178  0.00  0.00    +0.022 C 
BRANCH  22  24
ATOM     24  C   UNL     1      34.519 -17.864 -21.875  0.00  0.00    +0.018 C 
ATOM     25  C   UNL     1      33.790 -18.949 -21.136  0.00  0.00    +0.002 C 
ATOM     26  C   UNL     1      35.265 -19.071 -21.386  0.00  0.00    +0.002 C 
ENDBRANCH  22  24
ENDBRANCH   3  22
TORSDOF 4
ENDMDL
MODEL 7
REMARK VINA RESULT:      -9.4      2.458      9.149
REMARK  Name = 44556193
REMARK  4 active torsions:
REMARK  status: ('A' for Active; 'I' for Inactive)
REMARK    1  A    between atoms: N_3  and  C_22
REMARK    2  A    between atoms: C_10  and  C_14
REMARK    3  A    between atoms: C_16  and  C_19
REMARK    4  A    between atoms: C_22  and  C_24
REMARK                            x       y       z     vdW  Elec       q    Type
REMARK                         _______ _______ _______ _____ _____    ______ ____
ROOT
ATOM      1 CL   UNL     1      31.390 -11.863 -19.460  0.00  0.00    -0.082 Cl
ATOM      2  O   UNL     1      31.451  -9.521 -21.413  0.00  0.00    -0.270 OA
ATOM      3  N   UNL     1      32.592  -9.875 -23.439  0.00  0.00    -0.274 N 
ATOM      4  C   UNL     1      33.326 -10.963 -24.074  0.00  0.00    +0.121 C 
ATOM      5  C   UNL     1      32.099 -10.208 -22.182  0.00  0.00    +0.250 C 
ATOM      6  C   UNL     1      33.232 -12.039 -23.049  0.00  0.00    +0.003 C 
ATOM      7  C   UNL     1      32.511 -11.595 -21.938  0.00  0.00    +0.062 C 
ATOM      8  C   UNL     1      33.742 -13.324 -23.080  0.00  0.00    +0.001 C 
ATOM      9  C   UNL     1      32.273 -12.391 -20.836  0.00  0.00    +0.062 C 
ATOM     10  C   UNL     1      33.513 -14.151 -21.975  0.00  0.00    +0.038 C 
ATOM     11  C   UNL     1      32.785 -13.688 -20.863  0.00  0.00    +0.015 C 
ENDROOT
BRANCH  10  14
ATOM     12  O   UNL     1      34.034 -16.128 -23.178  0.00  0.00    -0.353 OA
ATOM     13  N   UNL     1      34.557 -17.406 -23.027  0.00  0.00    -0.072 NA
ATOM     14  C   UNL     1      34.032 -15.498 -21.976  0.00  0.00    +0.177 C 
ATOM     15  C   UNL     1      34.547 -16.331 -21.018  0.00  0.00    +0.067 C 
ATOM     16  C   UNL     1      34.857 -17.505 -21.728  0.00  0.00    +0.176 C 
BRANCH  16  19
ATOM     17  O   UNL     1      36.674 -18.813 -21.208  0.00  0.00    -0.268 OA
ATOM     18  N   UNL     1      34.583 -19.742 -20.730  0.00  0.00    -0.271 N 
ATOM     19  C   UNL     1      35.430 -18.716 -21.216  0.00  0.00    +0.270 C 
ATOM     20  C   UNL     1      33.126 -19.620 -20.742  0.00  0.00    +0.115 C 
ATOM     21  C   UNL     1      35.106 -20.987 -20.184  0.00  0.00    +0.115 C 
ENDBRANCH  16  19
ENDBRANCH  10  14
BRANCH   3  22
ATOM     22  C   UNL     1      32.425  -8.596 -24.095  0.00  0.00    +0.076 C 
ATOM     23  C   UNL     1      30.996  -8.150 -23.997  0.00  0.00    +0.022 C 
BRANCH  22  24
ATOM     24  C   UNL     1      33.377  -7.566 -23.499  0.00  0.00    +0.018 C 
ATOM     25  C   UNL     1      34.858  -7.774 -23.627  0.00  0.00    +0.002 C 
ATOM     26  C   UNL     1      34.181  -6.694 -24.419  0.00  0.00    +0.002 C 
ENDBRANCH  22  24
ENDBRANCH   3  22
TORSDOF 4
ENDMDL
MODEL 8
REMARK VINA RESULT:      -9.3      3.094      4.995
REMARK  Name = 44556193
REMARK  4 active torsions:
REMARK  status: ('A' for Active; 'I' for Inactive)
REMARK    1  A    between atoms: N_3  and  C_22
REMARK    2  A    between atoms: C_10  and  C_14
REMARK    3  A    between atoms: C_16  and  C_19
REMARK    4  A    between atoms: C_22  and  C_24
REMARK                            x       y       z     vdW  Elec       q    Type
REMARK                         _______ _______ _______ _____ _____    ______ ____
ROOT
ATOM      1 CL   UNL     1      31.223 -11.436 -19.552  0.00  0.00    -0.082 Cl
ATOM      2  O   UNL     1      32.254 -13.977 -20.889  0.00  0.00    -0.270 OA
ATOM      3  N   UNL     1      33.087 -13.746 -23.076  0.00  0.00    -0.274 N 
ATOM      4  C   UNL     1      33.266 -12.668 -24.042  0.00  0.00    +0.121 C 
ATOM      5  C   UNL     1      32.523 -13.320 -21.879  0.00  0.00    +0.250 C 
ATOM      6  C   UNL     1      32.739 -11.493 -23.294  0.00  0.00    +0.003 C 
ATOM      7  C   UNL     1      32.303 -11.877 -22.024  0.00  0.00    +0.062 C 
ATOM      8  C   UNL     1      32.645 -10.172 -23.694  0.00  0.00    +0.001 C 
ATOM      9  C   UNL     1      31.766 -10.984 -21.118  0.00  0.00    +0.062 C 
ATOM     10  C   UNL     1      32.104  -9.248 -22.793  0.00  0.00    +0.038 C 
ATOM     11  C   UNL     1      31.670  -9.651 -21.516  0.00  0.00    +0.015 C 
ENDROOT
BRANCH  10  14
ATOM     12  O   UNL     1      32.474  -6.960 -22.286  0.00  0.00    -0.353 OA
ATOM     13  N   UNL     1      32.300  -5.677 -22.788  0.00  0.00    -0.072 NA
ATOM     14  C   UNL     1      31.992  -7.862 -23.179  0.00  0.00    +0.177 C 
ATOM     15  C   UNL     1      31.497  -7.205 -24.275  0.00  0.00    +0.067 C 
ATOM     16  C   UNL     1      31.715  -5.848 -23.977  0.00  0.00    +0.176 C 
BRANCH  16  19
ATOM     17  O   UNL     1      30.384  -4.040 -24.468  0.00  0.00    -0.268 OA
ATOM     18  N   UNL     1      32.208  -4.374 -25.890  0.00  0.00    -0.271 N 
ATOM     19  C   UNL     1      31.388  -4.709 -24.785  0.00  0.00    +0.270 C 
ATOM     20  C   UNL     1      33.384  -5.163 -26.254  0.00  0.00    +0.115 C 
ATOM     21  C   UNL     1      31.936  -3.221 -26.737  0.00  0.00    +0.115 C 
ENDBRANCH  16  19
ENDBRANCH  10  14
BRANCH   3  22
ATOM     22  C   UNL     1      33.474 -15.106 -23.386  0.00  0.00    +0.076 C 
ATOM     23  C   UNL     1      33.620 -15.274 -24.870  0.00  0.00    +0.022 C 
BRANCH  22  24
ATOM     24  C   UNL     1      34.756 -15.473 -22.650  0.00  0.00    +0.018 C 
ATOM     25  C   UNL     1      34.688 -16.404 -21.474  0.00  0.00    +0.002 C 
ATOM     26  C   UNL     1      35.293 -16.870 -22.766  0.00  0.00    +0.002 C 
ENDBRANCH  22  24
ENDBRANCH   3  22
TORSDOF 4
ENDMDL
MODEL 9
REMARK VINA RESULT:      -9.3      1.769      2.185
REMARK  Name = 44556193
REMARK  4 active torsions:
REMARK  status: ('A' for Active; 'I' for Inactive)
REMARK    1  A    between atoms: N_3  and  C_22
REMARK    2  A    between atoms: C_10  and  C_14
REMARK    3  A    between atoms: C_16  and  C_19
REMARK    4  A    between atoms: C_22  and  C_24
REMARK                            x       y       z     vdW  Elec       q    Type
REMARK                         _______ _______ _______ _____ _____    ______ ____
ROOT
ATOM      1 CL   UNL     1      34.604 -17.086 -25.848  0.00  0.00    -0.082 Cl
ATOM      2  O   UNL     1      34.680 -19.055 -23.519  0.00  0.00    -0.270 OA
ATOM      3  N   UNL     1      34.253 -18.169 -21.383  0.00  0.00    -0.274 N 
ATOM      4  C   UNL     1      33.940 -16.864 -20.812  0.00  0.00    +0.121 C 
ATOM      5  C   UNL     1      34.418 -18.137 -22.763  0.00  0.00    +0.250 C 
ATOM      6  C   UNL     1      33.927 -15.993 -22.020  0.00  0.00    +0.003 C 
ATOM      7  C   UNL     1      34.207 -16.742 -23.165  0.00  0.00    +0.062 C 
ATOM      8  C   UNL     1      33.686 -14.635 -22.117  0.00  0.00    +0.001 C 
ATOM      9  C   UNL     1      34.260 -16.184 -24.427  0.00  0.00    +0.062 C 
ATOM     10  C   UNL     1      33.733 -14.046 -23.385  0.00  0.00    +0.038 C 
ATOM     11  C   UNL     1      34.017 -14.814 -24.529  0.00  0.00    +0.015 C 
ENDROOT
BRANCH  10  14
ATOM     12  O   UNL     1      34.161 -12.008 -24.520  0.00  0.00    -0.353 OA
ATOM     13  N   UNL     1      33.827 -10.660 -24.531  0.00  0.00    -0.072 NA
ATOM     14  C   UNL     1      33.486 -12.630 -23.520  0.00  0.00    +0.177 C 
ATOM     15  C   UNL     1      32.702 -11.723 -22.859  0.00  0.00    +0.067 C 
ATOM     16  C   UNL     1      32.954 -10.513 -23.530  0.00  0.00    +0.176 C 
BRANCH  16  19
ATOM     17  O   UNL     1      31.169  -9.159 -23.015  0.00  0.00    -0.268 OA
ATOM     18  N   UNL     1      33.228  -8.079 -23.248  0.00  0.00    -0.271 N 
ATOM     19  C   UNL     1      32.391  -9.222 -23.254  0.00  0.00    +0.270 C 
ATOM     20  C   UNL     1      34.660  -8.161 -23.529  0.00  0.00    +0.115 C 
ATOM     21  C   UNL     1      32.718  -6.746 -22.960  0.00  0.00    +0.115 C 
ENDBRANCH  16  19
ENDBRANCH  10  14
BRANCH   3  22
ATOM     22  C   UNL     1      34.369 -19.347 -20.550  0.00  0.00    +0.076 C 
ATOM     23  C   UNL     1      33.120 -20.171 -20.647  0.00  0.00    +0.022 C 
BRANCH  22  24
ATOM     24  C   UNL     1      35.604 -20.151 -20.938  0.00  0.00    +0.018 C 
ATOM     25  C   UNL     1      36.879 -19.955 -20.170  0.00  0.00    +0.002 C 
ATOM     26  C   UNL     1      36.097 -21.227 -20.015  0.00  0.00    +0.002 C 
ENDBRANCH  22  24
ENDBRANCH   3  22
TORSDOF 4
ENDMDL
