MODEL 1
REMARK VINA RESULT:     -10.0      0.000      0.000
REMARK  Name = 84621
REMARK  6 active torsions:
REMARK  status: ('A' for Active; 'I' for Inactive)
REMARK    1  A    between atoms: C_4  and  O_12
REMARK    2  A    between atoms: C_5  and  O_16
REMARK    3  A    between atoms: C_6  and  O_14
REMARK    4  A    between atoms: O_16  and  C_18
REMARK    5  A    between atoms: C_18  and  C_19
REMARK    6  A    between atoms: C_22  and  N_25
REMARK                            x       y       z     vdW  Elec       q    Type
REMARK                         _______ _______ _______ _____ _____    ______ ____
ROOT
ATOM      1  C   UNL     1      33.167 -14.417 -22.875  0.00  0.00    +0.037 A 
ATOM      2  C   UNL     1      33.598 -14.890 -21.612  0.00  0.00    +0.040 A 
ATOM      3  C   UNL     1      34.450 -16.175 -23.959  0.00  0.00    +0.049 A 
ATOM      4  C   UNL     1      33.603 -15.070 -24.039  0.00  0.00    +0.133 A 
ATOM      5  C   UNL     1      34.875 -16.640 -22.719  0.00  0.00    +0.181 A 
ATOM      6  C   UNL     1      34.451 -16.003 -21.552  0.00  0.00    +0.168 A 
ATOM      7  C   UNL     1      32.312 -13.303 -22.935  0.00  0.00    +0.003 C 
ATOM      8  C   UNL     1      33.161 -14.236 -20.448  0.00  0.00    +0.003 C 
ATOM      9  C   UNL     1      34.907 -16.861 -25.208  0.00  0.00    +0.038 C 
ATOM     10  C   UNL     1      31.889 -12.667 -21.770  0.00  0.00    +0.000 C 
ATOM     11  C   UNL     1      32.313 -13.131 -20.528  0.00  0.00    +0.000 C 
ENDROOT
BRANCH   4  12
ATOM     12  O   UNL     1      33.203 -14.635 -25.272  0.00  0.00    -0.506 OA
ATOM     13  H   UNL     1      33.687 -13.962 -25.711  0.00  0.00    +0.292 HD
ENDBRANCH   4  12
BRANCH   6  14
ATOM     14  O   UNL     1      34.886 -16.486 -20.348  0.00  0.00    -0.503 OA
ATOM     15  H   UNL     1      35.607 -17.083 -20.316  0.00  0.00    +0.292 HD
ENDBRANCH   6  14
BRANCH   5  16
ATOM     16  O   UNL     1      35.705 -17.720 -22.639  0.00  0.00    -0.418 OA
BRANCH  16  18
ATOM     17  O   UNL     1      34.244 -19.373 -23.389  0.00  0.00    -0.244 OA
ATOM     18  C   UNL     1      35.043 -18.947 -22.570  0.00  0.00    +0.346 C 
BRANCH  18  19
ATOM     19  C   UNL     1      35.443 -19.702 -21.355  0.00  0.00    +0.076 C 
ATOM     20  C   UNL     1      36.738 -19.584 -20.894  0.00  0.00    +0.008 C 
ATOM     21  C   UNL     1      34.509 -20.500 -20.727  0.00  0.00    +0.008 C 
ATOM     22  C   UNL     1      36.189 -21.106 -19.100  0.00  0.00    +0.042 C 
ATOM     23  C   UNL     1      37.115 -20.293 -19.753  0.00  0.00    +0.014 C 
ATOM     24  C   UNL     1      34.885 -21.210 -19.587  0.00  0.00    +0.014 C 
BRANCH  22  25
ATOM     25  N   UNL     1      36.570 -21.824 -17.948  0.00  0.00    -0.357 N 
ATOM     26  H   UNL     1      37.459 -22.246 -17.902  0.00  0.00    +0.142 HD
ATOM     27  H   UNL     1      35.947 -21.904 -17.190  0.00  0.00    +0.142 HD
ENDBRANCH  22  25
ENDBRANCH  18  19
ENDBRANCH  16  18
ENDBRANCH   5  16
TORSDOF 6
ENDMDL
MODEL 2
REMARK VINA RESULT:     -10.0      1.505      2.377
REMARK  Name = 84621
REMARK  6 active torsions:
REMARK  status: ('A' for Active; 'I' for Inactive)
REMARK    1  A    between atoms: C_4  and  O_12
REMARK    2  A    between atoms: C_5  and  O_16
REMARK    3  A    between atoms: C_6  and  O_14
REMARK    4  A    between atoms: O_16  and  C_18
REMARK    5  A    between atoms: C_18  and  C_19
REMARK    6  A    between atoms: C_22  and  N_25
REMARK                            x       y       z     vdW  Elec       q    Type
REMARK                         _______ _______ _______ _____ _____    ______ ____
ROOT
ATOM      1  C   UNL     1      34.246 -16.070 -23.888  0.00  0.00    +0.037 A 
ATOM      2  C   UNL     1      34.513 -15.994 -22.500  0.00  0.00    +0.040 A 
ATOM      3  C   UNL     1      34.759 -18.447 -23.845  0.00  0.00    +0.049 A 
ATOM      4  C   UNL     1      34.374 -17.304 -24.546  0.00  0.00    +0.133 A 
ATOM      5  C   UNL     1      35.023 -18.373 -22.481  0.00  0.00    +0.181 A 
ATOM      6  C   UNL     1      34.901 -17.155 -21.812  0.00  0.00    +0.168 A 
ATOM      7  C   UNL     1      33.858 -14.909 -24.577  0.00  0.00    +0.003 C 
ATOM      8  C   UNL     1      34.385 -14.760 -21.843  0.00  0.00    +0.003 C 
ATOM      9  C   UNL     1      34.892 -19.755 -24.560  0.00  0.00    +0.038 C 
ATOM     10  C   UNL     1      33.736 -13.692 -23.908  0.00  0.00    +0.000 C 
ATOM     11  C   UNL     1      34.000 -13.617 -22.544  0.00  0.00    +0.000 C 
ENDROOT
BRANCH   4  12
ATOM     12  O   UNL     1      34.123 -17.407 -25.886  0.00  0.00    -0.506 OA
ATOM     13  H   UNL     1      33.409 -17.934 -26.190  0.00  0.00    +0.292 HD
ENDBRANCH   4  12
BRANCH   6  14
ATOM     14  O   UNL     1      35.166 -17.116 -20.471  0.00  0.00    -0.503 OA
ATOM     15  H   UNL     1      34.505 -16.833 -19.870  0.00  0.00    +0.292 HD
ENDBRANCH   6  14
BRANCH   5  16
ATOM     16  O   UNL     1      35.401 -19.490 -21.794  0.00  0.00    -0.418 OA
BRANCH  16  18
ATOM     17  O   UNL     1      33.182 -20.064 -21.375  0.00  0.00    -0.244 OA
ATOM     18  C   UNL     1      34.367 -20.102 -21.085  0.00  0.00    +0.346 C 
BRANCH  18  19
ATOM     19  C   UNL     1      34.892 -20.836 -19.904  0.00  0.00    +0.076 C 
ATOM     20  C   UNL     1      34.032 -21.638 -19.183  0.00  0.00    +0.008 C 
ATOM     21  C   UNL     1      36.221 -20.690 -19.564  0.00  0.00    +0.008 C 
ATOM     22  C   UNL     1      35.864 -22.196 -17.709  0.00  0.00    +0.042 C 
ATOM     23  C   UNL     1      34.524 -22.326 -18.073  0.00  0.00    +0.014 C 
ATOM     24  C   UNL     1      36.713 -21.378 -18.454  0.00  0.00    +0.014 C 
BRANCH  22  25
ATOM     25  N   UNL     1      36.360 -22.890 -16.587  0.00  0.00    -0.357 N 
ATOM     26  H   UNL     1      36.557 -23.853 -16.650  0.00  0.00    +0.142 HD
ATOM     27  H   UNL     1      36.512 -22.412 -15.740  0.00  0.00    +0.142 HD
ENDBRANCH  22  25
ENDBRANCH  18  19
ENDBRANCH  16  18
ENDBRANCH   5  16
TORSDOF 6
ENDMDL
MODEL 3
REMARK VINA RESULT:      -9.9      5.612      9.511
REMARK  Name = 84621
REMARK  6 active torsions:
REMARK  status: ('A' for Active; 'I' for Inactive)
REMARK    1  A    between atoms: C_4  and  O_12
REMARK    2  A    between atoms: C_5  and  O_16
REMARK    3  A    between atoms: C_6  and  O_14
REMARK    4  A    between atoms: O_16  and  C_18
REMARK    5  A    between atoms: C_18  and  C_19
REMARK    6  A    between atoms: C_22  and  N_25
REMARK                            x       y       z     vdW  Elec       q    Type
REMARK                         _______ _______ _______ _____ _____    ______ ____
ROOT
ATOM      1  C   UNL     1      31.664 -24.267 -14.745  0.00  0.00    +0.037 A 
ATOM      2  C   UNL     1      31.267 -23.593 -15.926  0.00  0.00    +0.040 A 
ATOM      3  C   UNL     1      33.987 -23.755 -15.249  0.00  0.00    +0.049 A 
ATOM      4  C   UNL     1      33.028 -24.339 -14.422  0.00  0.00    +0.133 A 
ATOM      5  C   UNL     1      33.598 -23.093 -16.409  0.00  0.00    +0.181 A 
ATOM      6  C   UNL     1      32.246 -23.013 -16.747  0.00  0.00    +0.168 A 
ATOM      7  C   UNL     1      30.684 -24.848 -13.924  0.00  0.00    +0.003 C 
ATOM      8  C   UNL     1      29.902 -23.522 -16.249  0.00  0.00    +0.003 C 
ATOM      9  C   UNL     1      35.437 -23.840 -14.891  0.00  0.00    +0.038 C 
ATOM     10  C   UNL     1      29.333 -24.767 -14.261  0.00  0.00    +0.000 C 
ATOM     11  C   UNL     1      28.942 -24.106 -15.421  0.00  0.00    +0.000 C 
ENDROOT
BRANCH   4  12
ATOM     12  O   UNL     1      33.441 -24.983 -13.288  0.00  0.00    -0.506 OA
ATOM     13  H   UNL     1      33.231 -25.887 -13.160  0.00  0.00    +0.292 HD
ENDBRANCH   4  12
BRANCH   6  14
ATOM     14  O   UNL     1      31.896 -22.355 -17.893  0.00  0.00    -0.503 OA
ATOM     15  H   UNL     1      31.004 -22.352 -18.178  0.00  0.00    +0.292 HD
ENDBRANCH   6  14
BRANCH   5  16
ATOM     16  O   UNL     1      34.535 -22.522 -17.220  0.00  0.00    -0.418 OA
BRANCH  16  18
ATOM     17  O   UNL     1      33.880 -23.807 -19.050  0.00  0.00    -0.244 OA
ATOM     18  C   UNL     1      34.353 -22.785 -18.579  0.00  0.00    +0.346 C 
BRANCH  18  19
ATOM     19  C   UNL     1      34.806 -21.640 -19.409  0.00  0.00    +0.076 C 
ATOM     20  C   UNL     1      36.158 -21.376 -19.499  0.00  0.00    +0.008 C 
ATOM     21  C   UNL     1      33.863 -20.874 -20.063  0.00  0.00    +0.008 C 
ATOM     22  C   UNL     1      35.650 -19.512 -20.949  0.00  0.00    +0.042 C 
ATOM     23  C   UNL     1      36.584 -20.300 -20.278  0.00  0.00    +0.014 C 
ATOM     24  C   UNL     1      34.289 -19.798 -20.842  0.00  0.00    +0.014 C 
BRANCH  22  25
ATOM     25  N   UNL     1      36.081 -18.424 -21.735  0.00  0.00    -0.357 N 
ATOM     26  H   UNL     1      35.690 -18.273 -22.626  0.00  0.00    +0.142 HD
ATOM     27  H   UNL     1      36.774 -17.813 -21.393  0.00  0.00    +0.142 HD
ENDBRANCH  22  25
ENDBRANCH  18  19
ENDBRANCH  16  18
ENDBRANCH   5  16
TORSDOF 6
ENDMDL
MODEL 4
REMARK VINA RESULT:      -9.7      4.004      7.693
REMARK  Name = 84621
REMARK  6 active torsions:
REMARK  status: ('A' for Active; 'I' for Inactive)
REMARK    1  A    between atoms: C_4  and  O_12
REMARK    2  A    between atoms: C_5  and  O_16
REMARK    3  A    between atoms: C_6  and  O_14
REMARK    4  A    between atoms: O_16  and  C_18
REMARK    5  A    between atoms: C_18  and  C_19
REMARK    6  A    between atoms: C_22  and  N_25
REMARK                            x       y       z     vdW  Elec       q    Type
REMARK                         _______ _______ _______ _____ _____    ______ ____
ROOT
ATOM      1  C   UNL     1      34.556 -16.688 -23.564  0.00  0.00    +0.037 A 
ATOM      2  C   UNL     1      34.335 -15.904 -22.407  0.00  0.00    +0.040 A 
ATOM      3  C   UNL     1      33.474 -14.978 -24.914  0.00  0.00    +0.049 A 
ATOM      4  C   UNL     1      34.119 -16.211 -24.811  0.00  0.00    +0.133 A 
ATOM      5  C   UNL     1      33.256 -14.207 -23.777  0.00  0.00    +0.181 A 
ATOM      6  C   UNL     1      33.683 -14.667 -22.530  0.00  0.00    +0.168 A 
ATOM      7  C   UNL     1      35.207 -17.926 -23.441  0.00  0.00    +0.003 C 
ATOM      8  C   UNL     1      34.772 -16.382 -21.160  0.00  0.00    +0.003 C 
ATOM      9  C   UNL     1      33.015 -14.483 -26.249  0.00  0.00    +0.038 C 
ATOM     10  C   UNL     1      35.634 -18.385 -22.195  0.00  0.00    +0.000 C 
ATOM     11  C   UNL     1      35.416 -17.615 -21.057  0.00  0.00    +0.000 C 
ENDROOT
BRANCH   4  12
ATOM     12  O   UNL     1      34.318 -16.947 -25.946  0.00  0.00    -0.506 OA
ATOM     13  H   UNL     1      35.137 -16.894 -26.400  0.00  0.00    +0.292 HD
ENDBRANCH   4  12
BRANCH   6  14
ATOM     14  O   UNL     1      33.455 -13.885 -21.432  0.00  0.00    -0.503 OA
ATOM     15  H   UNL     1      33.131 -13.012 -21.537  0.00  0.00    +0.292 HD
ENDBRANCH   6  14
BRANCH   5  16
ATOM     16  O   UNL     1      32.625 -13.002 -23.876  0.00  0.00    -0.418 OA
BRANCH  16  18
ATOM     17  O   UNL     1      34.450 -11.936 -24.855  0.00  0.00    -0.244 OA
ATOM     18  C   UNL     1      33.481 -11.926 -24.113  0.00  0.00    +0.346 C 
BRANCH  18  19
ATOM     19  C   UNL     1      33.058 -10.727 -23.343  0.00  0.00    +0.076 C 
ATOM     20  C   UNL     1      33.671  -9.519 -23.602  0.00  0.00    +0.008 C 
ATOM     21  C   UNL     1      32.067 -10.860 -22.392  0.00  0.00    +0.008 C 
ATOM     22  C   UNL     1      32.276  -8.502 -21.912  0.00  0.00    +0.042 C 
ATOM     23  C   UNL     1      33.276  -8.394 -22.879  0.00  0.00    +0.014 C 
ATOM     24  C   UNL     1      31.671  -9.735 -21.669  0.00  0.00    +0.014 C 
BRANCH  22  25
ATOM     25  N   UNL     1      31.877  -7.365 -21.181  0.00  0.00    -0.357 N 
ATOM     26  H   UNL     1      30.965  -7.008 -21.282  0.00  0.00    +0.142 HD
ATOM     27  H   UNL     1      32.511  -6.927 -20.567  0.00  0.00    +0.142 HD
ENDBRANCH  22  25
ENDBRANCH  18  19
ENDBRANCH  16  18
ENDBRANCH   5  16
TORSDOF 6
ENDMDL
MODEL 5
REMARK VINA RESULT:      -9.7      3.768      8.108
REMARK  Name = 84621
REMARK  6 active torsions:
REMARK  status: ('A' for Active; 'I' for Inactive)
REMARK    1  A    between atoms: C_4  and  O_12
REMARK    2  A    between atoms: C_5  and  O_16
REMARK    3  A    between atoms: C_6  and  O_14
REMARK    4  A    between atoms: O_16  and  C_18
REMARK    5  A    between atoms: C_18  and  C_19
REMARK    6  A    between atoms: C_22  and  N_25
REMARK                            x       y       z     vdW  Elec       q    Type
REMARK                         _______ _______ _______ _____ _____    ______ ____
ROOT
ATOM      1  C   UNL     1      35.518 -22.662 -16.475  0.00  0.00    +0.037 A 
ATOM      2  C   UNL     1      34.191 -22.957 -16.871  0.00  0.00    +0.040 A 
ATOM      3  C   UNL     1      35.923 -21.635 -18.642  0.00  0.00    +0.049 A 
ATOM      4  C   UNL     1      36.371 -22.001 -17.373  0.00  0.00    +0.133 A 
ATOM      5  C   UNL     1      34.619 -21.926 -19.032  0.00  0.00    +0.181 A 
ATOM      6  C   UNL     1      33.758 -22.583 -18.153  0.00  0.00    +0.168 A 
ATOM      7  C   UNL     1      35.951 -23.037 -15.193  0.00  0.00    +0.003 C 
ATOM      8  C   UNL     1      33.338 -23.619 -15.972  0.00  0.00    +0.003 C 
ATOM      9  C   UNL     1      36.844 -20.931 -19.588  0.00  0.00    +0.038 C 
ATOM     10  C   UNL     1      35.091 -23.693 -14.314  0.00  0.00    +0.000 C 
ATOM     11  C   UNL     1      33.786 -23.984 -14.703  0.00  0.00    +0.000 C 
ENDROOT
BRANCH   4  12
ATOM     12  O   UNL     1      37.658 -21.703 -17.019  0.00  0.00    -0.506 OA
ATOM     13  H   UNL     1      37.831 -20.976 -16.453  0.00  0.00    +0.292 HD
ENDBRANCH   4  12
BRANCH   6  14
ATOM     14  O   UNL     1      32.483 -22.853 -18.566  0.00  0.00    -0.503 OA
ATOM     15  H   UNL     1      32.287 -23.671 -18.977  0.00  0.00    +0.292 HD
ENDBRANCH   6  14
BRANCH   5  16
ATOM     16  O   UNL     1      34.180 -21.570 -20.274  0.00  0.00    -0.418 OA
BRANCH  16  18
ATOM     17  O   UNL     1      32.341 -20.273 -19.670  0.00  0.00    -0.244 OA
ATOM     18  C   UNL     1      33.380 -20.427 -20.292  0.00  0.00    +0.346 C 
BRANCH  18  19
ATOM     19  C   UNL     1      33.961 -19.383 -21.175  0.00  0.00    +0.076 C 
ATOM     20  C   UNL     1      34.700 -19.775 -22.273  0.00  0.00    +0.008 C 
ATOM     21  C   UNL     1      33.747 -18.054 -20.869  0.00  0.00    +0.008 C 
ATOM     22  C   UNL     1      35.044 -17.446 -22.814  0.00  0.00    +0.042 C 
ATOM     23  C   UNL     1      35.247 -18.795 -23.102  0.00  0.00    +0.014 C 
ATOM     24  C   UNL     1      34.294 -17.075 -21.698  0.00  0.00    +0.014 C 
BRANCH  22  25
ATOM     25  N   UNL     1      35.598 -16.456 -23.651  0.00  0.00    -0.357 N 
ATOM     26  H   UNL     1      35.258 -15.532 -23.615  0.00  0.00    +0.142 HD
ATOM     27  H   UNL     1      36.326 -16.687 -24.272  0.00  0.00    +0.142 HD
ENDBRANCH  22  25
ENDBRANCH  18  19
ENDBRANCH  16  18
ENDBRANCH   5  16
TORSDOF 6
ENDMDL
MODEL 6
REMARK VINA RESULT:      -9.7      3.943      7.566
REMARK  Name = 84621
REMARK  6 active torsions:
REMARK  status: ('A' for Active; 'I' for Inactive)
REMARK    1  A    between atoms: C_4  and  O_12
REMARK    2  A    between atoms: C_5  and  O_16
REMARK    3  A    between atoms: C_6  and  O_14
REMARK    4  A    between atoms: O_16  and  C_18
REMARK    5  A    between atoms: C_18  and  C_19
REMARK    6  A    between atoms: C_22  and  N_25
REMARK                            x       y       z     vdW  Elec       q    Type
REMARK                         _______ _______ _______ _____ _____    ______ ____
ROOT
ATOM      1  C   UNL     1      34.570 -17.522 -23.498  0.00  0.00    +0.037 A 
ATOM      2  C   UNL     1      34.772 -16.736 -22.338  0.00  0.00    +0.040 A 
ATOM      3  C   UNL     1      33.985 -15.515 -24.741  0.00  0.00    +0.049 A 
ATOM      4  C   UNL     1      34.176 -16.896 -24.691  0.00  0.00    +0.133 A 
ATOM      5  C   UNL     1      34.183 -14.742 -23.601  0.00  0.00    +0.181 A 
ATOM      6  C   UNL     1      34.574 -15.348 -22.406  0.00  0.00    +0.168 A 
ATOM      7  C   UNL     1      34.768 -18.911 -23.429  0.00  0.00    +0.003 C 
ATOM      8  C   UNL     1      35.166 -17.363 -21.144  0.00  0.00    +0.003 C 
ATOM      9  C   UNL     1      33.565 -14.862 -26.020  0.00  0.00    +0.038 C 
ATOM     10  C   UNL     1      35.158 -19.516 -22.236  0.00  0.00    +0.000 C 
ATOM     11  C   UNL     1      35.357 -18.744 -21.095  0.00  0.00    +0.000 C 
ENDROOT
BRANCH   4  12
ATOM     12  O   UNL     1      33.973 -17.629 -25.828  0.00  0.00    -0.506 OA
ATOM     13  H   UNL     1      34.696 -18.051 -26.248  0.00  0.00    +0.292 HD
ENDBRANCH   4  12
BRANCH   6  14
ATOM     14  O   UNL     1      34.761 -14.560 -21.304  0.00  0.00    -0.503 OA
ATOM     15  H   UNL     1      34.193 -14.646 -20.565  0.00  0.00    +0.292 HD
ENDBRANCH   6  14
BRANCH   5  16
ATOM     16  O   UNL     1      33.996 -13.391 -23.647  0.00  0.00    -0.418 OA
BRANCH  16  18
ATOM     17  O   UNL     1      31.997 -13.665 -22.482  0.00  0.00    -0.244 OA
ATOM     18  C   UNL     1      32.842 -12.951 -22.998  0.00  0.00    +0.346 C 
BRANCH  18  19
ATOM     19  C   UNL     1      32.761 -11.467 -23.000  0.00  0.00    +0.076 C 
ATOM     20  C   UNL     1      33.623 -10.755 -23.808  0.00  0.00    +0.008 C 
ATOM     21  C   UNL     1      31.830 -10.848 -22.192  0.00  0.00    +0.008 C 
ATOM     22  C   UNL     1      32.616  -8.712 -23.002  0.00  0.00    +0.042 C 
ATOM     23  C   UNL     1      33.549  -9.362 -23.809  0.00  0.00    +0.014 C 
ATOM     24  C   UNL     1      31.756  -9.455 -22.193  0.00  0.00    +0.014 C 
BRANCH  22  25
ATOM     25  N   UNL     1      32.542  -7.304 -23.002  0.00  0.00    -0.357 N 
ATOM     26  H   UNL     1      32.826  -6.795 -22.209  0.00  0.00    +0.142 HD
ATOM     27  H   UNL     1      32.207  -6.829 -23.797  0.00  0.00    +0.142 HD
ENDBRANCH  22  25
ENDBRANCH  18  19
ENDBRANCH  16  18
ENDBRANCH   5  16
TORSDOF 6
ENDMDL
MODEL 7
REMARK VINA RESULT:      -9.3      1.596      2.848
REMARK  Name = 84621
REMARK  6 active torsions:
REMARK  status: ('A' for Active; 'I' for Inactive)
REMARK    1  A    between atoms: C_4  and  O_12
REMARK    2  A    between atoms: C_5  and  O_16
REMARK    3  A    between atoms: C_6  and  O_14
REMARK    4  A    between atoms: O_16  and  C_18
REMARK    5  A    between atoms: C_18  and  C_19
REMARK    6  A    between atoms: C_22  and  N_25
REMARK                            x       y       z     vdW  Elec       q    Type
REMARK                         _______ _______ _______ _____ _____    ______ ____
ROOT
ATOM      1  C   UNL     1      33.665 -14.934 -23.681  0.00  0.00    +0.037 A 
ATOM      2  C   UNL     1      34.040 -16.011 -24.520  0.00  0.00    +0.040 A 
ATOM      3  C   UNL     1      34.571 -16.126 -21.765  0.00  0.00    +0.049 A 
ATOM      4  C   UNL     1      33.937 -15.007 -22.306  0.00  0.00    +0.133 A 
ATOM      5  C   UNL     1      34.938 -17.186 -22.588  0.00  0.00    +0.181 A 
ATOM      6  C   UNL     1      34.675 -17.129 -23.958  0.00  0.00    +0.168 A 
ATOM      7  C   UNL     1      33.029 -13.815 -24.244  0.00  0.00    +0.003 C 
ATOM      8  C   UNL     1      33.767 -15.937 -25.896  0.00  0.00    +0.003 C 
ATOM      9  C   UNL     1      34.854 -16.190 -20.297  0.00  0.00    +0.038 C 
ATOM     10  C   UNL     1      32.766 -13.758 -25.612  0.00  0.00    +0.000 C 
ATOM     11  C   UNL     1      33.134 -14.818 -26.436  0.00  0.00    +0.000 C 
ENDROOT
BRANCH   4  12
ATOM     12  O   UNL     1      33.587 -13.982 -21.471  0.00  0.00    -0.506 OA
ATOM     13  H   UNL     1      34.007 -13.148 -21.551  0.00  0.00    +0.292 HD
ENDBRANCH   4  12
BRANCH   6  14
ATOM     14  O   UNL     1      35.050 -18.187 -24.740  0.00  0.00    -0.503 OA
ATOM     15  H   UNL     1      34.529 -18.965 -24.757  0.00  0.00    +0.292 HD
ENDBRANCH   6  14
BRANCH   5  16
ATOM     16  O   UNL     1      35.557 -18.282 -22.061  0.00  0.00    -0.418 OA
BRANCH  16  18
ATOM     17  O   UNL     1      33.713 -19.643 -22.477  0.00  0.00    -0.244 OA
ATOM     18  C   UNL     1      34.705 -19.361 -21.824  0.00  0.00    +0.346 C 
BRANCH  18  19
ATOM     19  C   UNL     1      35.163 -20.156 -20.655  0.00  0.00    +0.076 C 
ATOM     20  C   UNL     1      36.490 -20.088 -20.282  0.00  0.00    +0.008 C 
ATOM     21  C   UNL     1      34.249 -20.939 -19.980  0.00  0.00    +0.008 C 
ATOM     22  C   UNL     1      36.016 -21.634 -18.487  0.00  0.00    +0.042 C 
ATOM     23  C   UNL     1      36.920 -20.835 -19.186  0.00  0.00    +0.014 C 
ATOM     24  C   UNL     1      34.679 -21.686 -18.884  0.00  0.00    +0.014 C 
BRANCH  22  25
ATOM     25  N   UNL     1      36.452 -22.390 -17.380  0.00  0.00    -0.357 N 
ATOM     26  H   UNL     1      37.340 -22.224 -16.988  0.00  0.00    +0.142 HD
ATOM     27  H   UNL     1      35.868 -23.085 -16.998  0.00  0.00    +0.142 HD
ENDBRANCH  22  25
ENDBRANCH  18  19
ENDBRANCH  16  18
ENDBRANCH   5  16
TORSDOF 6
ENDMDL
MODEL 8
REMARK VINA RESULT:      -9.3      4.083      8.230
REMARK  Name = 84621
REMARK  6 active torsions:
REMARK  status: ('A' for Active; 'I' for Inactive)
REMARK    1  A    between atoms: C_4  and  O_12
REMARK    2  A    between atoms: C_5  and  O_16
REMARK    3  A    between atoms: C_6  and  O_14
REMARK    4  A    between atoms: O_16  and  C_18
REMARK    5  A    between atoms: C_18  and  C_19
REMARK    6  A    between atoms: C_22  and  N_25
REMARK                            x       y       z     vdW  Elec       q    Type
REMARK                         _______ _______ _______ _____ _____    ______ ____
ROOT
ATOM      1  C   UNL     1      34.542 -16.543 -22.785  0.00  0.00    +0.037 A 
ATOM      2  C   UNL     1      34.093 -16.244 -24.094  0.00  0.00    +0.040 A 
ATOM      3  C   UNL     1      33.706 -14.391 -22.019  0.00  0.00    +0.049 A 
ATOM      4  C   UNL     1      34.341 -15.606 -21.759  0.00  0.00    +0.133 A 
ATOM      5  C   UNL     1      33.265 -14.096 -23.306  0.00  0.00    +0.181 A 
ATOM      6  C   UNL     1      33.457 -15.017 -24.337  0.00  0.00    +0.168 A 
ATOM      7  C   UNL     1      35.178 -17.771 -22.541  0.00  0.00    +0.003 C 
ATOM      8  C   UNL     1      34.295 -17.182 -25.119  0.00  0.00    +0.003 C 
ATOM      9  C   UNL     1      33.498 -13.402 -20.916  0.00  0.00    +0.038 C 
ATOM     10  C   UNL     1      35.370 -18.690 -23.572  0.00  0.00    +0.000 C 
ATOM     11  C   UNL     1      34.930 -18.396 -24.859  0.00  0.00    +0.000 C 
ENDROOT
BRANCH   4  12
ATOM     12  O   UNL     1      34.764 -15.867 -20.485  0.00  0.00    -0.506 OA
ATOM     13  H   UNL     1      34.639 -16.719 -20.115  0.00  0.00    +0.292 HD
ENDBRANCH   4  12
BRANCH   6  14
ATOM     14  O   UNL     1      33.011 -14.697 -25.590  0.00  0.00    -0.503 OA
ATOM     15  H   UNL     1      32.123 -14.874 -25.831  0.00  0.00    +0.292 HD
ENDBRANCH   6  14
BRANCH   5  16
ATOM     16  O   UNL     1      32.644 -12.909 -23.562  0.00  0.00    -0.418 OA
BRANCH  16  18
ATOM     17  O   UNL     1      34.279 -12.138 -25.032  0.00  0.00    -0.244 OA
ATOM     18  C   UNL     1      33.471 -11.944 -24.138  0.00  0.00    +0.346 C 
BRANCH  18  19
ATOM     19  C   UNL     1      33.242 -10.610 -23.525  0.00  0.00    +0.076 C 
ATOM     20  C   UNL     1      32.165 -10.442 -22.679  0.00  0.00    +0.008 C 
ATOM     21  C   UNL     1      34.111  -9.580 -23.823  0.00  0.00    +0.008 C 
ATOM     22  C   UNL     1      32.812  -8.132 -22.389  0.00  0.00    +0.042 C 
ATOM     23  C   UNL     1      31.948  -9.189 -22.105  0.00  0.00    +0.014 C 
ATOM     24  C   UNL     1      33.894  -8.327 -23.248  0.00  0.00    +0.014 C 
BRANCH  22  25
ATOM     25  N   UNL     1      32.592  -6.866 -21.809  0.00  0.00    -0.357 N 
ATOM     26  H   UNL     1      31.744  -6.677 -21.346  0.00  0.00    +0.142 HD
ATOM     27  H   UNL     1      33.287  -6.171 -21.867  0.00  0.00    +0.142 HD
ENDBRANCH  22  25
ENDBRANCH  18  19
ENDBRANCH  16  18
ENDBRANCH   5  16
TORSDOF 6
ENDMDL
MODEL 9
REMARK VINA RESULT:      -9.3      3.741      6.327
REMARK  Name = 84621
REMARK  6 active torsions:
REMARK  status: ('A' for Active; 'I' for Inactive)
REMARK    1  A    between atoms: C_4  and  O_12
REMARK    2  A    between atoms: C_5  and  O_16
REMARK    3  A    between atoms: C_6  and  O_14
REMARK    4  A    between atoms: O_16  and  C_18
REMARK    5  A    between atoms: C_18  and  C_19
REMARK    6  A    between atoms: C_22  and  N_25
REMARK                            x       y       z     vdW  Elec       q    Type
REMARK                         _______ _______ _______ _____ _____    ______ ____
ROOT
ATOM      1  C   UNL     1      34.335 -19.607 -21.024  0.00  0.00    +0.037 A 
ATOM      2  C   UNL     1      35.747 -19.653 -20.934  0.00  0.00    +0.040 A 
ATOM      3  C   UNL     1      34.184 -21.416 -19.406  0.00  0.00    +0.049 A 
ATOM      4  C   UNL     1      33.568 -20.496 -20.254  0.00  0.00    +0.133 A 
ATOM      5  C   UNL     1      35.572 -21.462 -19.317  0.00  0.00    +0.181 A 
ATOM      6  C   UNL     1      36.349 -20.587 -20.076  0.00  0.00    +0.168 A 
ATOM      7  C   UNL     1      33.732 -18.673 -21.883  0.00  0.00    +0.003 C 
ATOM      8  C   UNL     1      36.513 -18.764 -21.705  0.00  0.00    +0.003 C 
ATOM      9  C   UNL     1      33.354 -22.357 -18.591  0.00  0.00    +0.038 C 
ATOM     10  C   UNL     1      34.509 -17.798 -22.641  0.00  0.00    +0.000 C 
ATOM     11  C   UNL     1      35.897 -17.844 -22.553  0.00  0.00    +0.000 C 
ENDROOT
BRANCH   4  12
ATOM     12  O   UNL     1      32.202 -20.475 -20.321  0.00  0.00    -0.506 OA
ATOM     13  H   UNL     1      31.749 -19.657 -20.385  0.00  0.00    +0.292 HD
ENDBRANCH   4  12
BRANCH   6  14
ATOM     14  O   UNL     1      37.711 -20.657 -19.964  0.00  0.00    -0.503 OA
ATOM     15  H   UNL     1      38.240 -20.734 -20.733  0.00  0.00    +0.292 HD
ENDBRANCH   6  14
BRANCH   5  16
ATOM     16  O   UNL     1      36.176 -22.363 -18.488  0.00  0.00    -0.418 OA
BRANCH  16  18
ATOM     17  O   UNL     1      37.197 -20.711 -17.201  0.00  0.00    -0.244 OA
ATOM     18  C   UNL     1      36.676 -21.810 -17.309  0.00  0.00    +0.346 C 
BRANCH  18  19
ATOM     19  C   UNL     1      36.486 -22.736 -16.163  0.00  0.00    +0.076 C 
ATOM     20  C   UNL     1      35.208 -22.968 -15.698  0.00  0.00    +0.008 C 
ATOM     21  C   UNL     1      37.594 -23.333 -15.597  0.00  0.00    +0.008 C 
ATOM     22  C   UNL     1      36.133 -24.453 -14.032  0.00  0.00    +0.042 C 
ATOM     23  C   UNL     1      35.029 -23.836 -14.621  0.00  0.00    +0.014 C 
ATOM     24  C   UNL     1      37.415 -24.202 -14.520  0.00  0.00    +0.014 C 
BRANCH  22  25
ATOM     25  N   UNL     1      35.952 -25.330 -12.943  0.00  0.00    -0.357 N 
ATOM     26  H   UNL     1      36.588 -25.319 -12.191  0.00  0.00    +0.142 HD
ATOM     27  H   UNL     1      35.191 -25.954 -12.934  0.00  0.00    +0.142 HD
ENDBRANCH  22  25
ENDBRANCH  18  19
ENDBRANCH  16  18
ENDBRANCH   5  16
TORSDOF 6
ENDMDL
