MODEL 1
REMARK VINA RESULT:      -9.0      0.000      0.000
REMARK  Name = 157919
REMARK  3 active torsions:
REMARK  status: ('A' for Active; 'I' for Inactive)
REMARK    1  A    between atoms: O_1  and  C_8
REMARK    2  A    between atoms: O_1  and  C_12
REMARK    3  A    between atoms: C_12  and  C_15
REMARK                            x       y       z     vdW  Elec       q    Type
REMARK                         _______ _______ _______ _____ _____    ______ ____
ROOT
ATOM      1  O   UNL     1      32.646 -22.427 -18.370  0.00  0.00    -0.473 OA
ENDROOT
BRANCH   1   8
ATOM      2  F   UNL     1      37.360 -20.313 -20.326  0.00  0.00    -0.205 F 
ATOM      3  C   UNL     1      32.616 -20.358 -20.560  0.00  0.00    +0.030 C 
ATOM      4  C   UNL     1      33.795 -20.931 -19.839  0.00  0.00    +0.010 C 
ATOM      5  C   UNL     1      33.236 -19.103 -21.194  0.00  0.00    +0.010 C 
ATOM      6  C   UNL     1      34.721 -19.416 -21.431  0.00  0.00    +0.029 C 
ATOM      7  C   UNL     1      34.990 -20.397 -20.334  0.00  0.00    +0.004 C 
ATOM      8  C   UNL     1      33.801 -21.893 -18.844  0.00  0.00    +0.134 C 
ATOM      9  C   UNL     1      36.215 -20.813 -19.844  0.00  0.00    +0.136 C 
ATOM     10  C   UNL     1      35.032 -22.311 -18.335  0.00  0.00    +0.039 C 
ATOM     11  C   UNL     1      36.231 -21.776 -18.831  0.00  0.00    +0.032 C 
ENDBRANCH   1   8
BRANCH   1  12
ATOM     12  C   UNL     1      32.731 -23.219 -17.185  0.00  0.00    +0.232 C 
BRANCH  12  15
ATOM     13  O   UNL     1      30.379 -22.802 -17.214  0.00  0.00    -0.357 OA
ATOM     14  N   UNL     1      30.001 -23.917 -14.625  0.00  0.00    +0.387 N 
ATOM     15  C   UNL     1      31.495 -22.969 -16.331  0.00  0.00    +0.138 C 
ATOM     16  C   UNL     1      31.233 -24.144 -15.384  0.00  0.00    -0.048 C 
ATOM     17  C   UNL     1      28.877 -23.701 -15.538  0.00  0.00    -0.049 C 
ATOM     18  C   UNL     1      29.180 -22.544 -16.482  0.00  0.00    +0.119 C 
ATOM     19  H   UNL     1      30.117 -23.093 -14.033  0.00  0.00    -0.084 HD
ATOM     20  H   UNL     1      29.809 -24.735 -14.049  0.00  0.00    -0.084 HD
ENDBRANCH  12  15
ENDBRANCH   1  12
TORSDOF 3
ENDMDL
MODEL 2
REMARK VINA RESULT:      -8.9      5.064      7.911
REMARK  Name = 157919
REMARK  3 active torsions:
REMARK  status: ('A' for Active; 'I' for Inactive)
REMARK    1  A    between atoms: O_1  and  C_8
REMARK    2  A    between atoms: O_1  and  C_12
REMARK    3  A    between atoms: C_12  and  C_15
REMARK                            x       y       z     vdW  Elec       q    Type
REMARK                         _______ _______ _______ _____ _____    ______ ____
ROOT
ATOM      1  O   UNL     1      34.401 -17.637 -22.096  0.00  0.00    -0.473 OA
ENDROOT
BRANCH   1   8
ATOM      2  F   UNL     1      36.998 -21.655 -19.332  0.00  0.00    -0.205 F 
ATOM      3  C   UNL     1      32.841 -19.746 -20.613  0.00  0.00    +0.030 C 
ATOM      4  C   UNL     1      34.325 -19.616 -20.757  0.00  0.00    +0.010 C 
ATOM      5  C   UNL     1      32.713 -21.204 -20.146  0.00  0.00    +0.010 C 
ATOM      6  C   UNL     1      34.002 -21.537 -19.381  0.00  0.00    +0.029 C 
ATOM      7  C   UNL     1      34.984 -20.633 -20.057  0.00  0.00    +0.004 C 
ATOM      8  C   UNL     1      35.035 -18.636 -21.428  0.00  0.00    +0.134 C 
ATOM      9  C   UNL     1      36.366 -20.690 -20.013  0.00  0.00    +0.136 C 
ATOM     10  C   UNL     1      36.429 -18.691 -21.399  0.00  0.00    +0.039 C 
ATOM     11  C   UNL     1      37.091 -19.711 -20.697  0.00  0.00    +0.032 C 
ENDBRANCH   1   8
BRANCH   1  12
ATOM     12  C   UNL     1      34.919 -16.316 -21.940  0.00  0.00    +0.232 C 
BRANCH  12  15
ATOM     13  O   UNL     1      34.013 -16.397 -24.148  0.00  0.00    -0.357 OA
ATOM     14  N   UNL     1      33.752 -13.569 -24.302  0.00  0.00    +0.387 N 
ATOM     15  C   UNL     1      34.742 -15.555 -23.247  0.00  0.00    +0.138 C 
ATOM     16  C   UNL     1      33.975 -14.249 -23.024  0.00  0.00    -0.048 C 
ATOM     17  C   UNL     1      33.047 -14.455 -25.230  0.00  0.00    -0.049 C 
ATOM     18  C   UNL     1      33.823 -15.755 -25.409  0.00  0.00    +0.119 C 
ATOM     19  H   UNL     1      34.652 -13.306 -24.706  0.00  0.00    -0.084 HD
ATOM     20  H   UNL     1      33.186 -12.736 -24.142  0.00  0.00    -0.084 HD
ENDBRANCH  12  15
ENDBRANCH   1  12
TORSDOF 3
ENDMDL
MODEL 3
REMARK VINA RESULT:      -8.9      4.357      6.601
REMARK  Name = 157919
REMARK  3 active torsions:
REMARK  status: ('A' for Active; 'I' for Inactive)
REMARK    1  A    between atoms: O_1  and  C_8
REMARK    2  A    between atoms: O_1  and  C_12
REMARK    3  A    between atoms: C_12  and  C_15
REMARK                            x       y       z     vdW  Elec       q    Type
REMARK                         _______ _______ _______ _____ _____    ______ ____
ROOT
ATOM      1  O   UNL     1      34.781 -17.613 -20.852  0.00  0.00    -0.473 OA
ENDROOT
BRANCH   1   8
ATOM      2  F   UNL     1      33.524 -14.232 -25.036  0.00  0.00    -0.205 F 
ATOM      3  C   UNL     1      32.951 -15.256 -20.433  0.00  0.00    +0.030 C 
ATOM      4  C   UNL     1      33.654 -15.676 -21.685  0.00  0.00    +0.010 C 
ATOM      5  C   UNL     1      32.570 -13.807 -20.777  0.00  0.00    +0.010 C 
ATOM      6  C   UNL     1      32.392 -13.748 -22.301  0.00  0.00    +0.029 C 
ATOM      7  C   UNL     1      33.335 -14.821 -22.746  0.00  0.00    +0.004 C 
ATOM      8  C   UNL     1      34.480 -16.770 -21.873  0.00  0.00    +0.134 C 
ATOM      9  C   UNL     1      33.838 -15.041 -24.016  0.00  0.00    +0.136 C 
ATOM     10  C   UNL     1      35.002 -16.994 -23.149  0.00  0.00    +0.039 C 
ATOM     11  C   UNL     1      34.683 -16.136 -24.213  0.00  0.00    +0.032 C 
ENDBRANCH   1   8
BRANCH   1  12
ATOM     12  C   UNL     1      35.688 -18.679 -21.130  0.00  0.00    +0.232 C 
BRANCH  12  15
ATOM     13  O   UNL     1      35.578 -20.581 -19.690  0.00  0.00    -0.357 OA
ATOM     14  N   UNL     1      32.851 -21.084 -20.321  0.00  0.00    +0.387 N 
ATOM     15  C   UNL     1      34.992 -20.007 -20.865  0.00  0.00    +0.138 C 
ATOM     16  C   UNL     1      33.489 -19.807 -20.647  0.00  0.00    -0.048 C 
ATOM     17  C   UNL     1      33.489 -21.683 -19.148  0.00  0.00    -0.049 C 
ATOM     18  C   UNL     1      34.986 -21.845 -19.387  0.00  0.00    +0.119 C 
ATOM     19  H   UNL     1      32.942 -21.719 -21.115  0.00  0.00    -0.084 HD
ATOM     20  H   UNL     1      31.865 -20.921 -20.117  0.00  0.00    -0.084 HD
ENDBRANCH  12  15
ENDBRANCH   1  12
TORSDOF 3
ENDMDL
MODEL 4
REMARK VINA RESULT:      -8.9      1.269      1.480
REMARK  Name = 157919
REMARK  3 active torsions:
REMARK  status: ('A' for Active; 'I' for Inactive)
REMARK    1  A    between atoms: O_1  and  C_8
REMARK    2  A    between atoms: O_1  and  C_12
REMARK    3  A    between atoms: C_12  and  C_15
REMARK                            x       y       z     vdW  Elec       q    Type
REMARK                         _______ _______ _______ _____ _____    ______ ____
ROOT
ATOM      1  O   UNL     1      33.077 -22.405 -18.860  0.00  0.00    -0.473 OA
ENDROOT
BRANCH   1   8
ATOM      2  F   UNL     1      37.496 -19.597 -20.623  0.00  0.00    -0.205 F 
ATOM      3  C   UNL     1      32.770 -20.064 -20.733  0.00  0.00    +0.030 C 
ATOM      4  C   UNL     1      34.025 -20.616 -20.132  0.00  0.00    +0.010 C 
ATOM      5  C   UNL     1      33.247 -18.680 -21.198  0.00  0.00    +0.010 C 
ATOM      6  C   UNL     1      34.743 -18.813 -21.518  0.00  0.00    +0.029 C 
ATOM      7  C   UNL     1      35.145 -19.906 -20.578  0.00  0.00    +0.004 C 
ATOM      8  C   UNL     1      34.159 -21.702 -19.284  0.00  0.00    +0.134 C 
ATOM      9  C   UNL     1      36.422 -20.267 -20.186  0.00  0.00    +0.136 C 
ATOM     10  C   UNL     1      35.442 -22.066 -18.873  0.00  0.00    +0.039 C 
ATOM     11  C   UNL     1      36.567 -21.354 -19.321  0.00  0.00    +0.032 C 
ENDBRANCH   1   8
BRANCH   1  12
ATOM     12  C   UNL     1      33.298 -23.405 -17.866  0.00  0.00    +0.232 C 
BRANCH  12  15
ATOM     13  O   UNL     1      31.406 -23.418 -16.408  0.00  0.00    -0.357 OA
ATOM     14  N   UNL     1      33.003 -22.990 -14.093  0.00  0.00    +0.387 N 
ATOM     15  C   UNL     1      32.742 -22.915 -16.536  0.00  0.00    +0.138 C 
ATOM     16  C   UNL     1      33.595 -23.410 -15.365  0.00  0.00    -0.048 C 
ATOM     17  C   UNL     1      31.624 -23.470 -13.995  0.00  0.00    -0.049 C 
ATOM     18  C   UNL     1      30.809 -22.981 -15.186  0.00  0.00    +0.119 C 
ATOM     19  H   UNL     1      33.009 -21.970 -14.039  0.00  0.00    -0.084 HD
ATOM     20  H   UNL     1      33.548 -23.383 -13.326  0.00  0.00    -0.084 HD
ENDBRANCH  12  15
ENDBRANCH   1  12
TORSDOF 3
ENDMDL
MODEL 5
REMARK VINA RESULT:      -8.8      4.949      7.769
REMARK  Name = 157919
REMARK  3 active torsions:
REMARK  status: ('A' for Active; 'I' for Inactive)
REMARK    1  A    between atoms: O_1  and  C_8
REMARK    2  A    between atoms: O_1  and  C_12
REMARK    3  A    between atoms: C_12  and  C_15
REMARK                            x       y       z     vdW  Elec       q    Type
REMARK                         _______ _______ _______ _____ _____    ______ ____
ROOT
ATOM      1  O   UNL     1      35.564 -18.643 -22.017  0.00  0.00    -0.473 OA
ENDROOT
BRANCH   1   8
ATOM      2  F   UNL     1      32.495 -21.917 -18.794  0.00  0.00    -0.205 F 
ATOM      3  C   UNL     1      36.860 -20.614 -20.141  0.00  0.00    +0.030 C 
ATOM      4  C   UNL     1      35.402 -20.336 -20.336  0.00  0.00    +0.010 C 
ATOM      5  C   UNL     1      36.844 -21.358 -18.797  0.00  0.00    +0.010 C 
ATOM      6  C   UNL     1      35.488 -22.074 -18.705  0.00  0.00    +0.029 C 
ATOM      7  C   UNL     1      34.624 -21.166 -19.521  0.00  0.00    +0.004 C 
ATOM      8  C   UNL     1      34.815 -19.440 -21.212  0.00  0.00    +0.134 C 
ATOM      9  C   UNL     1      33.242 -21.115 -19.564  0.00  0.00    +0.136 C 
ATOM     10  C   UNL     1      33.421 -19.373 -21.253  0.00  0.00    +0.039 C 
ATOM     11  C   UNL     1      32.639 -20.205 -20.436  0.00  0.00    +0.032 C 
ENDBRANCH   1   8
BRANCH   1  12
ATOM     12  C   UNL     1      35.279 -18.676 -23.415  0.00  0.00    +0.232 C 
BRANCH  12  15
ATOM     13  O   UNL     1      34.064 -17.235 -24.881  0.00  0.00    -0.357 OA
ATOM     14  N   UNL     1      34.600 -14.932 -23.300  0.00  0.00    +0.387 N 
ATOM     15  C   UNL     1      35.131 -17.249 -23.925  0.00  0.00    +0.138 C 
ATOM     16  C   UNL     1      34.811 -16.285 -22.780  0.00  0.00    -0.048 C 
ATOM     17  C   UNL     1      33.540 -14.939 -24.310  0.00  0.00    -0.049 C 
ATOM     18  C   UNL     1      33.876 -15.926 -25.421  0.00  0.00    +0.119 C 
ATOM     19  H   UNL     1      35.465 -14.595 -23.723  0.00  0.00    -0.084 HD
ATOM     20  H   UNL     1      34.325 -14.319 -22.533  0.00  0.00    -0.084 HD
ENDBRANCH  12  15
ENDBRANCH   1  12
TORSDOF 3
ENDMDL
MODEL 6
REMARK VINA RESULT:      -8.8      3.936      6.003
REMARK  Name = 157919
REMARK  3 active torsions:
REMARK  status: ('A' for Active; 'I' for Inactive)
REMARK    1  A    between atoms: O_1  and  C_8
REMARK    2  A    between atoms: O_1  and  C_12
REMARK    3  A    between atoms: C_12  and  C_15
REMARK                            x       y       z     vdW  Elec       q    Type
REMARK                         _______ _______ _______ _____ _____    ______ ____
ROOT
ATOM      1  O   UNL     1      35.030 -18.480 -20.803  0.00  0.00    -0.473 OA
ENDROOT
BRANCH   1   8
ATOM      2  F   UNL     1      34.341 -13.882 -23.787  0.00  0.00    -0.205 F 
ATOM      3  C   UNL     1      35.059 -18.577 -23.815  0.00  0.00    +0.030 C 
ATOM      4  C   UNL     1      34.843 -17.394 -22.925  0.00  0.00    +0.010 C 
ATOM      5  C   UNL     1      34.528 -18.044 -25.154  0.00  0.00    +0.010 C 
ATOM      6  C   UNL     1      34.751 -16.524 -25.144  0.00  0.00    +0.029 C 
ATOM      7  C   UNL     1      34.668 -16.228 -23.680  0.00  0.00    +0.004 C 
ATOM      8  C   UNL     1      34.846 -17.355 -21.541  0.00  0.00    +0.134 C 
ATOM      9  C   UNL     1      34.494 -15.000 -23.066  0.00  0.00    +0.136 C 
ATOM     10  C   UNL     1      34.659 -16.122 -20.913  0.00  0.00    +0.039 C 
ATOM     11  C   UNL     1      34.484 -14.953 -21.670  0.00  0.00    +0.032 C 
ENDBRANCH   1   8
BRANCH   1  12
ATOM     12  C   UNL     1      34.015 -19.480 -20.874  0.00  0.00    +0.232 C 
BRANCH  12  15
ATOM     13  O   UNL     1      35.715 -20.451 -19.506  0.00  0.00    -0.357 OA
ATOM     14  N   UNL     1      34.061 -22.635 -18.744  0.00  0.00    +0.387 N 
ATOM     15  C   UNL     1      34.548 -20.774 -20.272  0.00  0.00    +0.138 C 
ATOM     16  C   UNL     1      33.503 -21.434 -19.369  0.00  0.00    -0.048 C 
ATOM     17  C   UNL     1      35.278 -22.301 -18.003  0.00  0.00    -0.049 C 
ATOM     18  C   UNL     1      36.286 -21.623 -18.923  0.00  0.00    +0.119 C 
ATOM     19  H   UNL     1      34.285 -23.319 -19.468  0.00  0.00    -0.084 HD
ATOM     20  H   UNL     1      33.374 -23.024 -18.098  0.00  0.00    -0.084 HD
ENDBRANCH  12  15
ENDBRANCH   1  12
TORSDOF 3
ENDMDL
MODEL 7
REMARK VINA RESULT:      -8.7      4.585      6.762
REMARK  Name = 157919
REMARK  3 active torsions:
REMARK  status: ('A' for Active; 'I' for Inactive)
REMARK    1  A    between atoms: O_1  and  C_8
REMARK    2  A    between atoms: O_1  and  C_12
REMARK    3  A    between atoms: C_12  and  C_15
REMARK                            x       y       z     vdW  Elec       q    Type
REMARK                         _______ _______ _______ _____ _____    ______ ____
ROOT
ATOM      1  O   UNL     1      35.306 -18.004 -22.392  0.00  0.00    -0.473 OA
ENDROOT
BRANCH   1   8
ATOM      2  F   UNL     1      33.062 -12.960 -22.177  0.00  0.00    -0.205 F 
ATOM      3  C   UNL     1      34.483 -16.574 -24.913  0.00  0.00    +0.030 C 
ATOM      4  C   UNL     1      34.345 -16.114 -23.496  0.00  0.00    +0.010 C 
ATOM      5  C   UNL     1      33.510 -15.625 -25.630  0.00  0.00    +0.010 C 
ATOM      6  C   UNL     1      33.482 -14.324 -24.815  0.00  0.00    +0.029 C 
ATOM      7  C   UNL     1      33.777 -14.836 -23.441  0.00  0.00    +0.004 C 
ATOM      8  C   UNL     1      34.740 -16.770 -22.344  0.00  0.00    +0.134 C 
ATOM      9  C   UNL     1      33.593 -14.189 -22.231  0.00  0.00    +0.136 C 
ATOM     10  C   UNL     1      34.547 -16.131 -21.118  0.00  0.00    +0.039 C 
ATOM     11  C   UNL     1      33.978 -14.848 -21.062  0.00  0.00    +0.032 C 
ENDBRANCH   1   8
BRANCH   1  12
ATOM     12  C   UNL     1      35.761 -18.562 -21.159  0.00  0.00    +0.232 C 
BRANCH  12  15
ATOM     13  O   UNL     1      35.657 -20.509 -19.781  0.00  0.00    -0.357 OA
ATOM     14  N   UNL     1      32.915 -20.967 -20.381  0.00  0.00    +0.387 N 
ATOM     15  C   UNL     1      35.057 -19.891 -20.925  0.00  0.00    +0.138 C 
ATOM     16  C   UNL     1      33.560 -19.686 -20.676  0.00  0.00    -0.048 C 
ATOM     17  C   UNL     1      33.567 -21.610 -19.239  0.00  0.00    -0.049 C 
ATOM     18  C   UNL     1      35.058 -21.777 -19.509  0.00  0.00    +0.119 C 
ATOM     19  H   UNL     1      32.987 -21.576 -21.197  0.00  0.00    -0.084 HD
ATOM     20  H   UNL     1      31.935 -20.803 -20.156  0.00  0.00    -0.084 HD
ENDBRANCH  12  15
ENDBRANCH   1  12
TORSDOF 3
ENDMDL
MODEL 8
REMARK VINA RESULT:      -8.6      5.025      7.675
REMARK  Name = 157919
REMARK  3 active torsions:
REMARK  status: ('A' for Active; 'I' for Inactive)
REMARK    1  A    between atoms: O_1  and  C_8
REMARK    2  A    between atoms: O_1  and  C_12
REMARK    3  A    between atoms: C_12  and  C_15
REMARK                            x       y       z     vdW  Elec       q    Type
REMARK                         _______ _______ _______ _____ _____    ______ ____
ROOT
ATOM      1  O   UNL     1      34.228 -17.711 -22.013  0.00  0.00    -0.473 OA
ENDROOT
BRANCH   1   8
ATOM      2  F   UNL     1      37.119 -21.608 -19.371  0.00  0.00    -0.205 F 
ATOM      3  C   UNL     1      32.829 -19.907 -20.496  0.00  0.00    +0.030 C 
ATOM      4  C   UNL     1      34.298 -19.700 -20.689  0.00  0.00    +0.010 C 
ATOM      5  C   UNL     1      32.791 -21.373 -20.037  0.00  0.00    +0.010 C 
ATOM      6  C   UNL     1      34.120 -21.644 -19.318  0.00  0.00    +0.029 C 
ATOM      7  C   UNL     1      35.032 -20.687 -20.019  0.00  0.00    +0.004 C 
ATOM      8  C   UNL     1      34.934 -18.680 -21.374  0.00  0.00    +0.134 C 
ATOM      9  C   UNL     1      36.415 -20.672 -20.022  0.00  0.00    +0.136 C 
ATOM     10  C   UNL     1      36.329 -18.664 -21.393  0.00  0.00    +0.039 C 
ATOM     11  C   UNL     1      37.066 -19.653 -20.721  0.00  0.00    +0.032 C 
ENDBRANCH   1   8
BRANCH   1  12
ATOM     12  C   UNL     1      34.737 -16.379 -21.943  0.00  0.00    +0.232 C 
BRANCH  12  15
ATOM     13  O   UNL     1      33.327 -14.533 -21.388  0.00  0.00    -0.357 OA
ATOM     14  N   UNL     1      33.199 -13.631 -24.082  0.00  0.00    +0.387 N 
ATOM     15  C   UNL     1      33.678 -15.415 -22.461  0.00  0.00    +0.138 C 
ATOM     16  C   UNL     1      34.206 -14.602 -23.647  0.00  0.00    -0.048 C 
ATOM     17  C   UNL     1      32.815 -12.766 -22.965  0.00  0.00    -0.049 C 
ATOM     18  C   UNL     1      32.320 -13.606 -21.794  0.00  0.00    +0.119 C 
ATOM     19  H   UNL     1      32.375 -14.129 -24.422  0.00  0.00    -0.084 HD
ATOM     20  H   UNL     1      33.591 -13.057 -24.828  0.00  0.00    -0.084 HD
ENDBRANCH  12  15
ENDBRANCH   1  12
TORSDOF 3
ENDMDL
MODEL 9
REMARK VINA RESULT:      -8.5      6.674      8.873
REMARK  Name = 157919
REMARK  3 active torsions:
REMARK  status: ('A' for Active; 'I' for Inactive)
REMARK    1  A    between atoms: O_1  and  C_8
REMARK    2  A    between atoms: O_1  and  C_12
REMARK    3  A    between atoms: C_12  and  C_15
REMARK                            x       y       z     vdW  Elec       q    Type
REMARK                         _______ _______ _______ _____ _____    ______ ____
ROOT
ATOM      1  O   UNL     1      34.831 -14.893 -23.137  0.00  0.00    -0.473 OA
ENDROOT
BRANCH   1   8
ATOM      2  F   UNL     1      34.621 -20.063 -25.072  0.00  0.00    -0.205 F 
ATOM      3  C   UNL     1      35.049 -17.248 -21.270  0.00  0.00    +0.030 C 
ATOM      4  C   UNL     1      34.848 -17.252 -22.753  0.00  0.00    +0.010 C 
ATOM      5  C   UNL     1      34.639 -18.685 -20.910  0.00  0.00    +0.010 C 
ATOM      6  C   UNL     1      34.955 -19.554 -22.136  0.00  0.00    +0.029 C 
ATOM      7  C   UNL     1      34.796 -18.562 -23.244  0.00  0.00    +0.004 C 
ATOM      8  C   UNL     1      34.765 -16.166 -23.605  0.00  0.00    +0.134 C 
ATOM      9  C   UNL     1      34.658 -18.811 -24.598  0.00  0.00    +0.136 C 
ATOM     10  C   UNL     1      34.614 -16.407 -24.972  0.00  0.00    +0.039 C 
ATOM     11  C   UNL     1      34.561 -17.720 -25.466  0.00  0.00    +0.032 C 
ENDBRANCH   1   8
BRANCH   1  12
ATOM     12  C   UNL     1      33.924 -13.943 -23.696  0.00  0.00    +0.232 C 
BRANCH  12  15
ATOM     13  O   UNL     1      33.312 -13.945 -21.387  0.00  0.00    -0.357 OA
ATOM     14  N   UNL     1      31.290 -11.982 -21.771  0.00  0.00    +0.387 N 
ATOM     15  C   UNL     1      32.802 -13.682 -22.700  0.00  0.00    +0.138 C 
ATOM     16  C   UNL     1      32.316 -12.232 -22.785  0.00  0.00    -0.048 C 
ATOM     17  C   UNL     1      31.808 -12.299 -20.439  0.00  0.00    -0.049 C 
ATOM     18  C   UNL     1      32.306 -13.738 -20.395  0.00  0.00    +0.119 C 
ATOM     19  H   UNL     1      30.476 -12.567 -21.963  0.00  0.00    -0.084 HD
ATOM     20  H   UNL     1      31.026 -10.997 -21.800  0.00  0.00    -0.084 HD
ENDBRANCH  12  15
ENDBRANCH   1  12
TORSDOF 3
ENDMDL
