MODEL 1
REMARK VINA RESULT:      -7.3      0.000      0.000
REMARK  Name = 1800
REMARK  1 active torsions:
REMARK  status: ('A' for Active; 'I' for Inactive)
REMARK    1  A    between atoms: C_5  and  C_14
REMARK                            x       y       z     vdW  Elec       q    Type
REMARK                         _______ _______ _______ _____ _____    ______ ____
ROOT
ATOM      1  N   UNL     1      35.239 -22.111 -19.184  0.00  0.00    -0.315 N 
ATOM      2  N   UNL     1      33.017 -22.126 -19.126  0.00  0.00    -0.315 N 
ATOM      3  C   UNL     1      34.846 -21.001 -19.888  0.00  0.00    +0.059 C 
ATOM      4  C   UNL     1      33.456 -21.034 -19.837  0.00  0.00    +0.059 C 
ATOM      5  C   UNL     1      34.822 -19.000 -21.174  0.00  0.00    +0.030 C 
ATOM      6  C   UNL     1      35.567 -20.004 -20.546  0.00  0.00    +0.018 C 
ATOM      7  C   UNL     1      32.723 -20.018 -20.474  0.00  0.00    +0.016 C 
ATOM      8  C   UNL     1      33.426 -19.005 -21.141  0.00  0.00    +0.004 C 
ATOM      9  C   UNL     1      34.110 -22.749 -18.749  0.00  0.00    +0.182 C 
ATOM     10  H   UNL     1      36.166 -22.397 -19.021  0.00  0.00    +0.148 HD
ATOM     11  H   UNL     1      32.085 -22.385 -18.939  0.00  0.00    +0.148 HD
ENDROOT
BRANCH   5  14
ATOM     12  N   UNL     1      35.163 -16.672 -21.641  0.00  0.00    -0.345 N 
ATOM     13  N   UNL     1      36.484 -18.252 -22.735  0.00  0.00    -0.387 N 
ATOM     14  C   UNL     1      35.514 -17.939 -21.872  0.00  0.00    +0.096 C 
ATOM     15  H   UNL     1      35.625 -15.939 -22.110  0.00  0.00    +0.144 HD
ATOM     16  H   UNL     1      34.443 -16.469 -21.001  0.00  0.00    +0.144 HD
ATOM     17  H   UNL     1      36.962 -17.540 -23.218  0.00  0.00    +0.157 HD
ATOM     18  H   UNL     1      36.721 -19.195 -22.888  0.00  0.00    +0.157 HD
ENDBRANCH   5  14
TORSDOF 1
ENDMDL
MODEL 2
REMARK VINA RESULT:      -7.1      0.792      2.081
REMARK  Name = 1800
REMARK  1 active torsions:
REMARK  status: ('A' for Active; 'I' for Inactive)
REMARK    1  A    between atoms: C_5  and  C_14
REMARK                            x       y       z     vdW  Elec       q    Type
REMARK                         _______ _______ _______ _____ _____    ______ ____
ROOT
ATOM      1  N   UNL     1      32.920 -21.227 -19.599  0.00  0.00    -0.315 N 
ATOM      2  N   UNL     1      34.772 -22.214 -18.865  0.00  0.00    -0.315 N 
ATOM      3  C   UNL     1      33.956 -20.495 -20.120  0.00  0.00    +0.059 C 
ATOM      4  C   UNL     1      35.101 -21.131 -19.647  0.00  0.00    +0.059 C 
ATOM      5  C   UNL     1      35.252 -18.875 -21.283  0.00  0.00    +0.030 C 
ATOM      6  C   UNL     1      33.989 -19.366 -20.938  0.00  0.00    +0.018 C 
ATOM      7  C   UNL     1      36.362 -20.624 -20.003  0.00  0.00    +0.016 C 
ATOM      8  C   UNL     1      36.419 -19.491 -20.825  0.00  0.00    +0.004 C 
ATOM      9  C   UNL     1      33.459 -22.242 -18.857  0.00  0.00    +0.182 C 
ATOM     10  H   UNL     1      31.961 -21.053 -19.733  0.00  0.00    +0.148 HD
ATOM     11  H   UNL     1      35.387 -22.832 -18.410  0.00  0.00    +0.148 HD
ENDROOT
BRANCH   5  14
ATOM     12  N   UNL     1      35.981 -17.802 -23.302  0.00  0.00    -0.345 N 
ATOM     13  N   UNL     1      34.810 -16.556 -21.716  0.00  0.00    -0.387 N 
ATOM     14  C   UNL     1      35.350 -17.706 -22.130  0.00  0.00    +0.096 C 
ATOM     15  H   UNL     1      36.056 -17.015 -23.888  0.00  0.00    +0.144 HD
ATOM     16  H   UNL     1      36.372 -18.662 -23.582  0.00  0.00    +0.144 HD
ATOM     17  H   UNL     1      34.870 -15.753 -22.282  0.00  0.00    +0.157 HD
ATOM     18  H   UNL     1      34.351 -16.512 -20.846  0.00  0.00    +0.157 HD
ENDBRANCH   5  14
TORSDOF 1
ENDMDL
MODEL 3
REMARK VINA RESULT:      -7.1      3.515      5.308
REMARK  Name = 1800
REMARK  1 active torsions:
REMARK  status: ('A' for Active; 'I' for Inactive)
REMARK    1  A    between atoms: C_5  and  C_14
REMARK                            x       y       z     vdW  Elec       q    Type
REMARK                         _______ _______ _______ _____ _____    ______ ____
ROOT
ATOM      1  N   UNL     1      35.780 -17.612 -23.075  0.00  0.00    -0.315 N 
ATOM      2  N   UNL     1      35.619 -17.894 -20.876  0.00  0.00    -0.315 N 
ATOM      3  C   UNL     1      35.089 -16.520 -22.616  0.00  0.00    +0.059 C 
ATOM      4  C   UNL     1      35.002 -16.720 -21.241  0.00  0.00    +0.059 C 
ATOM      5  C   UNL     1      33.894 -14.469 -22.464  0.00  0.00    +0.030 C 
ATOM      6  C   UNL     1      34.549 -15.410 -23.265  0.00  0.00    +0.018 C 
ATOM      7  C   UNL     1      34.340 -15.765 -20.451  0.00  0.00    +0.016 C 
ATOM      8  C   UNL     1      33.790 -14.641 -21.082  0.00  0.00    +0.004 C 
ATOM      9  C   UNL     1      36.074 -18.402 -21.999  0.00  0.00    +0.182 C 
ATOM     10  H   UNL     1      36.021 -17.794 -24.012  0.00  0.00    +0.148 HD
ATOM     11  H   UNL     1      35.702 -18.271 -19.971  0.00  0.00    +0.148 HD
ENDROOT
BRANCH   5  14
ATOM     12  N   UNL     1      34.083 -12.508 -23.833  0.00  0.00    -0.345 N 
ATOM     13  N   UNL     1      32.020 -13.029 -22.879  0.00  0.00    -0.387 N 
ATOM     14  C   UNL     1      33.313 -13.296 -23.081  0.00  0.00    +0.096 C 
ATOM     15  H   UNL     1      33.701 -11.706 -24.258  0.00  0.00    +0.144 HD
ATOM     16  H   UNL     1      35.034 -12.728 -23.964  0.00  0.00    +0.144 HD
ATOM     17  H   UNL     1      31.612 -12.234 -23.292  0.00  0.00    +0.157 HD
ATOM     18  H   UNL     1      31.475 -13.626 -22.318  0.00  0.00    +0.157 HD
ENDBRANCH   5  14
TORSDOF 1
ENDMDL
MODEL 4
REMARK VINA RESULT:      -6.9      0.917      4.438
REMARK  Name = 1800
REMARK  1 active torsions:
REMARK  status: ('A' for Active; 'I' for Inactive)
REMARK    1  A    between atoms: C_5  and  C_14
REMARK                            x       y       z     vdW  Elec       q    Type
REMARK                         _______ _______ _______ _____ _____    ______ ____
ROOT
ATOM      1  N   UNL     1      36.411 -18.637 -21.701  0.00  0.00    -0.315 N 
ATOM      2  N   UNL     1      34.419 -17.851 -22.299  0.00  0.00    -0.315 N 
ATOM      3  C   UNL     1      35.495 -19.436 -21.064  0.00  0.00    +0.059 C 
ATOM      4  C   UNL     1      34.261 -18.924 -21.453  0.00  0.00    +0.059 C 
ATOM      5  C   UNL     1      34.459 -21.113 -19.733  0.00  0.00    +0.030 C 
ATOM      6  C   UNL     1      35.638 -20.526 -20.206  0.00  0.00    +0.018 C 
ATOM      7  C   UNL     1      33.087 -19.525 -20.968  0.00  0.00    +0.016 C 
ATOM      8  C   UNL     1      33.206 -20.623 -20.105  0.00  0.00    +0.004 C 
ATOM      9  C   UNL     1      35.719 -17.707 -22.426  0.00  0.00    +0.182 C 
ATOM     10  H   UNL     1      37.390 -18.719 -21.645  0.00  0.00    +0.148 HD
ATOM     11  H   UNL     1      33.712 -17.309 -22.718  0.00  0.00    +0.148 HD
ENDROOT
BRANCH   5  14
ATOM     12  N   UNL     1      35.519 -22.289 -17.930  0.00  0.00    -0.345 N 
ATOM     13  N   UNL     1      33.644 -23.230 -18.950  0.00  0.00    -0.387 N 
ATOM     14  C   UNL     1      34.543 -22.248 -18.840  0.00  0.00    +0.096 C 
ATOM     15  H   UNL     1      35.588 -23.056 -17.316  0.00  0.00    +0.144 HD
ATOM     16  H   UNL     1      36.169 -21.553 -17.872  0.00  0.00    +0.144 HD
ATOM     17  H   UNL     1      33.689 -24.008 -18.348  0.00  0.00    +0.157 HD
ATOM     18  H   UNL     1      32.935 -23.175 -19.631  0.00  0.00    +0.157 HD
ENDBRANCH   5  14
TORSDOF 1
ENDMDL
MODEL 5
REMARK VINA RESULT:      -6.7      3.455      5.272
REMARK  Name = 1800
REMARK  1 active torsions:
REMARK  status: ('A' for Active; 'I' for Inactive)
REMARK    1  A    between atoms: C_5  and  C_14
REMARK                            x       y       z     vdW  Elec       q    Type
REMARK                         _______ _______ _______ _____ _____    ______ ____
ROOT
ATOM      1  N   UNL     1      35.406 -17.690 -20.776  0.00  0.00    -0.315 N 
ATOM      2  N   UNL     1      36.089 -17.948 -22.876  0.00  0.00    -0.315 N 
ATOM      3  C   UNL     1      34.792 -16.690 -21.487  0.00  0.00    +0.059 C 
ATOM      4  C   UNL     1      35.234 -16.873 -22.794  0.00  0.00    +0.059 C 
ATOM      5  C   UNL     1      33.477 -14.812 -22.121  0.00  0.00    +0.030 C 
ATOM      6  C   UNL     1      33.915 -15.673 -21.109  0.00  0.00    +0.018 C 
ATOM      7  C   UNL     1      34.784 -15.999 -23.798  0.00  0.00    +0.016 C 
ATOM      8  C   UNL     1      33.902 -14.970 -23.441  0.00  0.00    +0.004 C 
ATOM      9  C   UNL     1      36.169 -18.413 -21.650  0.00  0.00    +0.182 C 
ATOM     10  H   UNL     1      35.315 -17.855 -19.811  0.00  0.00    +0.148 HD
ATOM     11  H   UNL     1      36.541 -18.293 -23.679  0.00  0.00    +0.148 HD
ENDROOT
BRANCH   5  14
ATOM     12  N   UNL     1      32.358 -13.433 -20.507  0.00  0.00    -0.345 N 
ATOM     13  N   UNL     1      31.953 -13.078 -22.777  0.00  0.00    -0.387 N 
ATOM     14  C   UNL     1      32.566 -13.737 -21.790  0.00  0.00    +0.096 C 
ATOM     15  H   UNL     1      31.740 -12.704 -20.268  0.00  0.00    +0.144 HD
ATOM     16  H   UNL     1      32.822 -13.936 -19.800  0.00  0.00    +0.144 HD
ATOM     17  H   UNL     1      31.330 -12.345 -22.566  0.00  0.00    +0.157 HD
ATOM     18  H   UNL     1      32.123 -13.325 -23.714  0.00  0.00    +0.157 HD
ENDBRANCH   5  14
TORSDOF 1
ENDMDL
MODEL 6
REMARK VINA RESULT:      -6.7      3.293      5.158
REMARK  Name = 1800
REMARK  1 active torsions:
REMARK  status: ('A' for Active; 'I' for Inactive)
REMARK    1  A    between atoms: C_5  and  C_14
REMARK                            x       y       z     vdW  Elec       q    Type
REMARK                         _______ _______ _______ _____ _____    ______ ____
ROOT
ATOM      1  N   UNL     1      35.304 -17.332 -20.747  0.00  0.00    -0.315 N 
ATOM      2  N   UNL     1      35.684 -18.546 -22.570  0.00  0.00    -0.315 N 
ATOM      3  C   UNL     1      34.861 -16.567 -21.795  0.00  0.00    +0.059 C 
ATOM      4  C   UNL     1      35.110 -17.346 -22.921  0.00  0.00    +0.059 C 
ATOM      5  C   UNL     1      33.947 -14.817 -23.122  0.00  0.00    +0.030 C 
ATOM      6  C   UNL     1      34.283 -15.298 -21.853  0.00  0.00    +0.018 C 
ATOM      7  C   UNL     1      34.767 -16.847 -24.189  0.00  0.00    +0.016 C 
ATOM      8  C   UNL     1      34.184 -15.575 -24.271  0.00  0.00    +0.004 C 
ATOM      9  C   UNL     1      35.786 -18.504 -21.261  0.00  0.00    +0.182 C 
ATOM     10  H   UNL     1      35.280 -17.082 -19.795  0.00  0.00    +0.148 HD
ATOM     11  H   UNL     1      35.959 -19.277 -23.169  0.00  0.00    +0.148 HD
ENDROOT
BRANCH   5  14
ATOM     12  N   UNL     1      32.101 -13.318 -22.800  0.00  0.00    -0.345 N 
ATOM     13  N   UNL     1      34.047 -12.519 -23.808  0.00  0.00    -0.387 N 
ATOM     14  C   UNL     1      33.345 -13.507 -23.246  0.00  0.00    +0.096 C 
ATOM     15  H   UNL     1      31.679 -12.433 -22.878  0.00  0.00    +0.144 HD
ATOM     16  H   UNL     1      31.606 -14.065 -22.391  0.00  0.00    +0.144 HD
ATOM     17  H   UNL     1      33.649 -11.623 -23.899  0.00  0.00    +0.157 HD
ATOM     18  H   UNL     1      34.962 -12.686 -24.130  0.00  0.00    +0.157 HD
ENDBRANCH   5  14
TORSDOF 1
ENDMDL
MODEL 7
REMARK VINA RESULT:      -6.7      1.090      4.839
REMARK  Name = 1800
REMARK  1 active torsions:
REMARK  status: ('A' for Active; 'I' for Inactive)
REMARK    1  A    between atoms: C_5  and  C_14
REMARK                            x       y       z     vdW  Elec       q    Type
REMARK                         _______ _______ _______ _____ _____    ______ ____
ROOT
ATOM      1  N   UNL     1      34.334 -18.200 -22.440  0.00  0.00    -0.315 N 
ATOM      2  N   UNL     1      36.544 -17.997 -22.309  0.00  0.00    -0.315 N 
ATOM      3  C   UNL     1      34.734 -19.136 -21.520  0.00  0.00    +0.059 C 
ATOM      4  C   UNL     1      36.117 -18.989 -21.457  0.00  0.00    +0.059 C 
ATOM      5  C   UNL     1      34.775 -20.882 -19.906  0.00  0.00    +0.030 C 
ATOM      6  C   UNL     1      34.026 -20.069 -20.763  0.00  0.00    +0.018 C 
ATOM      7  C   UNL     1      36.854 -19.814 -20.591  0.00  0.00    +0.016 C 
ATOM      8  C   UNL     1      36.164 -20.759 -19.820  0.00  0.00    +0.004 C 
ATOM      9  C   UNL     1      35.450 -17.546 -22.882  0.00  0.00    +0.182 C 
ATOM     10  H   UNL     1      33.409 -18.030 -22.730  0.00  0.00    +0.148 HD
ATOM     11  H   UNL     1      37.468 -17.692 -22.458  0.00  0.00    +0.148 HD
ENDROOT
BRANCH   5  14
ATOM     12  N   UNL     1      34.769 -22.481 -18.117  0.00  0.00    -0.345 N 
ATOM     13  N   UNL     1      32.815 -22.148 -19.346  0.00  0.00    -0.387 N 
ATOM     14  C   UNL     1      34.097 -21.869 -19.095  0.00  0.00    +0.096 C 
ATOM     15  H   UNL     1      34.321 -23.156 -17.558  0.00  0.00    +0.144 HD
ATOM     16  H   UNL     1      35.714 -22.258 -17.955  0.00  0.00    +0.144 HD
ATOM     17  H   UNL     1      32.342 -22.818 -18.802  0.00  0.00    +0.157 HD
ATOM     18  H   UNL     1      32.343 -21.683 -20.074  0.00  0.00    +0.157 HD
ENDBRANCH   5  14
TORSDOF 1
ENDMDL
MODEL 8
REMARK VINA RESULT:      -6.6      2.326      5.266
REMARK  Name = 1800
REMARK  1 active torsions:
REMARK  status: ('A' for Active; 'I' for Inactive)
REMARK    1  A    between atoms: C_5  and  C_14
REMARK                            x       y       z     vdW  Elec       q    Type
REMARK                         _______ _______ _______ _____ _____    ______ ____
ROOT
ATOM      1  N   UNL     1      34.568 -17.714 -25.102  0.00  0.00    -0.315 N 
ATOM      2  N   UNL     1      34.319 -15.651 -24.313  0.00  0.00    -0.315 N 
ATOM      3  C   UNL     1      34.765 -17.814 -23.748  0.00  0.00    +0.059 C 
ATOM      4  C   UNL     1      34.604 -16.513 -23.279  0.00  0.00    +0.059 C 
ATOM      5  C   UNL     1      35.195 -18.625 -21.554  0.00  0.00    +0.030 C 
ATOM      6  C   UNL     1      35.061 -18.896 -22.920  0.00  0.00    +0.018 C 
ATOM      7  C   UNL     1      34.743 -16.258 -21.904  0.00  0.00    +0.016 C 
ATOM      8  C   UNL     1      35.040 -17.331 -21.053  0.00  0.00    +0.004 C 
ATOM      9  C   UNL     1      34.305 -16.404 -25.390  0.00  0.00    +0.182 C 
ATOM     10  H   UNL     1      34.609 -18.454 -25.750  0.00  0.00    +0.148 HD
ATOM     11  H   UNL     1      34.160 -14.681 -24.258  0.00  0.00    +0.148 HD
ENDROOT
BRANCH   5  14
ATOM     12  N   UNL     1      34.543 -20.578 -20.321  0.00  0.00    -0.345 N 
ATOM     13  N   UNL     1      36.738 -19.809 -20.148  0.00  0.00    -0.387 N 
ATOM     14  C   UNL     1      35.503 -19.708 -20.645  0.00  0.00    +0.096 C 
ATOM     15  H   UNL     1      34.738 -21.319 -19.703  0.00  0.00    +0.144 HD
ATOM     16  H   UNL     1      33.640 -20.479 -20.701  0.00  0.00    +0.144 HD
ATOM     17  H   UNL     1      36.961 -20.540 -19.528  0.00  0.00    +0.157 HD
ATOM     18  H   UNL     1      37.427 -19.153 -20.402  0.00  0.00    +0.157 HD
ENDBRANCH   5  14
TORSDOF 1
ENDMDL
MODEL 9
REMARK VINA RESULT:      -6.6      7.754      8.527
REMARK  Name = 1800
REMARK  1 active torsions:
REMARK  status: ('A' for Active; 'I' for Inactive)
REMARK    1  A    between atoms: C_5  and  C_14
REMARK                            x       y       z     vdW  Elec       q    Type
REMARK                         _______ _______ _______ _____ _____    ______ ____
ROOT
ATOM      1  N   UNL     1      32.349 -22.873 -14.052  0.00  0.00    -0.315 N 
ATOM      2  N   UNL     1      32.338 -25.070 -13.718  0.00  0.00    -0.315 N 
ATOM      3  C   UNL     1      31.163 -23.318 -14.580  0.00  0.00    +0.059 C 
ATOM      4  C   UNL     1      31.181 -24.692 -14.359  0.00  0.00    +0.059 C 
ATOM      5  C   UNL     1      29.034 -23.444 -15.632  0.00  0.00    +0.030 C 
ATOM      6  C   UNL     1      30.111 -22.656 -15.213  0.00  0.00    +0.018 C 
ATOM      7  C   UNL     1      30.091 -25.468 -14.787  0.00  0.00    +0.016 C 
ATOM      8  C   UNL     1      29.022 -24.825 -15.425  0.00  0.00    +0.004 C 
ATOM      9  C   UNL     1      33.014 -23.956 -13.550  0.00  0.00    +0.182 C 
ATOM     10  H   UNL     1      32.664 -21.941 -14.039  0.00  0.00    +0.148 HD
ATOM     11  H   UNL     1      32.601 -25.978 -13.444  0.00  0.00    +0.148 HD
ENDROOT
BRANCH   5  14
ATOM     12  N   UNL     1      26.974 -22.216 -15.559  0.00  0.00    -0.345 N 
ATOM     13  N   UNL     1      27.842 -22.850 -17.629  0.00  0.00    -0.387 N 
ATOM     14  C   UNL     1      27.913 -22.814 -16.295  0.00  0.00    +0.096 C 
ATOM     15  H   UNL     1      26.205 -21.784 -15.997  0.00  0.00    +0.144 HD
ATOM     16  H   UNL     1      27.050 -22.206 -14.578  0.00  0.00    +0.144 HD
ATOM     17  H   UNL     1      27.084 -22.426 -18.093  0.00  0.00    +0.157 HD
ATOM     18  H   UNL     1      28.548 -23.300 -18.148  0.00  0.00    +0.157 HD
ENDBRANCH   5  14
TORSDOF 1
ENDMDL
