MODEL 1
REMARK VINA RESULT:      -7.9      0.000      0.000
REMARK  Name = 6301
REMARK  1 active torsions:
REMARK  status: ('A' for Active; 'I' for Inactive)
REMARK    1  A    between atoms: C_6  and  O_14
REMARK                            x       y       z     vdW  Elec       q    Type
REMARK                         _______ _______ _______ _____ _____    ______ ____
ROOT
ATOM      1 CL   UNL     1      32.248 -13.219 -21.617  0.00  0.00    -0.086 Cl
ATOM      2 CL   UNL     1      33.006 -14.328 -26.781  0.00  0.00    -0.079 Cl
ATOM      3  N   UNL     1      35.159 -17.206 -23.170  0.00  0.00    -0.407 NA
ATOM      4  C   UNL     1      33.802 -15.347 -22.455  0.00  0.00    +0.110 C 
ATOM      5  C   UNL     1      34.379 -16.148 -23.462  0.00  0.00    +0.151 C 
ATOM      6  C   UNL     1      34.121 -15.817 -24.789  0.00  0.00    +0.170 C 
ATOM      7  C   UNL     1      34.062 -15.681 -21.118  0.00  0.00    -0.012 C 
ATOM      8  C   UNL     1      32.993 -14.251 -22.796  0.00  0.00    +0.047 C 
ATOM      9  C   UNL     1      35.385 -17.493 -21.868  0.00  0.00    +0.109 C 
ATOM     10  C   UNL     1      34.865 -16.770 -20.813  0.00  0.00    +0.024 C 
ATOM     11  C   UNL     1      33.317 -14.726 -25.129  0.00  0.00    +0.094 C 
ATOM     12  C   UNL     1      32.752 -13.942 -24.132  0.00  0.00    +0.022 C 
ATOM     13  C   UNL     1      36.255 -18.673 -21.587  0.00  0.00    +0.066 C 
ENDROOT
BRANCH   6  14
ATOM     14  O   UNL     1      34.674 -16.584 -25.781  0.00  0.00    -0.503 OA
ATOM     15  H   UNL     1      35.530 -16.384 -26.105  0.00  0.00    +0.292 HD
ENDBRANCH   6  14
TORSDOF 1
ENDMDL
MODEL 2
REMARK VINA RESULT:      -7.8      2.435      4.209
REMARK  Name = 6301
REMARK  1 active torsions:
REMARK  status: ('A' for Active; 'I' for Inactive)
REMARK    1  A    between atoms: C_6  and  O_14
REMARK                            x       y       z     vdW  Elec       q    Type
REMARK                         _______ _______ _______ _____ _____    ______ ____
ROOT
ATOM      1 CL   UNL     1      34.604 -14.817 -20.647  0.00  0.00    -0.086 Cl
ATOM      2 CL   UNL     1      35.106 -19.446 -23.251  0.00  0.00    -0.079 Cl
ATOM      3  N   UNL     1      33.680 -15.225 -25.722  0.00  0.00    -0.407 NA
ATOM      4  C   UNL     1      34.113 -15.044 -23.358  0.00  0.00    +0.110 C 
ATOM      5  C   UNL     1      34.038 -15.789 -24.553  0.00  0.00    +0.151 C 
ATOM      6  C   UNL     1      34.348 -17.145 -24.498  0.00  0.00    +0.170 C 
ATOM      7  C   UNL     1      33.800 -13.678 -23.413  0.00  0.00    -0.012 C 
ATOM      8  C   UNL     1      34.490 -15.664 -22.156  0.00  0.00    +0.047 C 
ATOM      9  C   UNL     1      33.387 -13.905 -25.732  0.00  0.00    +0.109 C 
ATOM     10  C   UNL     1      33.431 -13.094 -24.616  0.00  0.00    +0.024 C 
ATOM     11  C   UNL     1      34.724 -17.763 -23.303  0.00  0.00    +0.094 C 
ATOM     12  C   UNL     1      34.795 -17.022 -22.130  0.00  0.00    +0.022 C 
ATOM     13  C   UNL     1      32.995 -13.320 -27.048  0.00  0.00    +0.066 C 
ENDROOT
BRANCH   6  14
ATOM     14  O   UNL     1      34.282 -17.885 -25.649  0.00  0.00    -0.503 OA
ATOM     15  H   UNL     1      33.817 -17.553 -26.393  0.00  0.00    +0.292 HD
ENDBRANCH   6  14
TORSDOF 1
ENDMDL
MODEL 3
REMARK VINA RESULT:      -7.6      1.998      2.320
REMARK  Name = 6301
REMARK  1 active torsions:
REMARK  status: ('A' for Active; 'I' for Inactive)
REMARK    1  A    between atoms: C_6  and  O_14
REMARK                            x       y       z     vdW  Elec       q    Type
REMARK                         _______ _______ _______ _____ _____    ______ ____
ROOT
ATOM      1 CL   UNL     1      34.619 -15.308 -20.409  0.00  0.00    -0.086 Cl
ATOM      2 CL   UNL     1      33.467 -12.860 -25.007  0.00  0.00    -0.079 Cl
ATOM      3  N   UNL     1      34.455 -17.857 -24.910  0.00  0.00    -0.407 NA
ATOM      4  C   UNL     1      34.529 -16.662 -22.818  0.00  0.00    +0.110 C 
ATOM      5  C   UNL     1      34.334 -16.710 -24.214  0.00  0.00    +0.151 C 
ATOM      6  C   UNL     1      34.007 -15.527 -24.870  0.00  0.00    +0.170 C 
ATOM      7  C   UNL     1      34.859 -17.855 -22.157  0.00  0.00    -0.012 C 
ATOM      8  C   UNL     1      34.395 -15.449 -22.124  0.00  0.00    +0.047 C 
ATOM      9  C   UNL     1      34.774 -18.984 -24.235  0.00  0.00    +0.109 C 
ATOM     10  C   UNL     1      34.984 -19.037 -22.872  0.00  0.00    +0.024 C 
ATOM     11  C   UNL     1      33.873 -14.320 -24.179  0.00  0.00    +0.094 C 
ATOM     12  C   UNL     1      34.067 -14.280 -22.804  0.00  0.00    +0.022 C 
ATOM     13  C   UNL     1      34.899 -20.232 -25.044  0.00  0.00    +0.066 C 
ENDROOT
BRANCH   6  14
ATOM     14  O   UNL     1      33.814 -15.555 -26.226  0.00  0.00    -0.503 OA
ATOM     15  H   UNL     1      33.309 -16.243 -26.612  0.00  0.00    +0.292 HD
ENDBRANCH   6  14
TORSDOF 1
ENDMDL
MODEL 4
REMARK VINA RESULT:      -7.5      2.854      4.590
REMARK  Name = 6301
REMARK  1 active torsions:
REMARK  status: ('A' for Active; 'I' for Inactive)
REMARK    1  A    between atoms: C_6  and  O_14
REMARK                            x       y       z     vdW  Elec       q    Type
REMARK                         _______ _______ _______ _____ _____    ______ ____
ROOT
ATOM      1 CL   UNL     1      33.663 -15.629 -25.905  0.00  0.00    -0.086 Cl
ATOM      2 CL   UNL     1      36.264 -18.262 -22.062  0.00  0.00    -0.079 Cl
ATOM      3  N   UNL     1      33.325 -14.259 -20.925  0.00  0.00    -0.407 NA
ATOM      4  C   UNL     1      33.488 -14.904 -23.242  0.00  0.00    +0.110 C 
ATOM      5  C   UNL     1      33.816 -15.071 -21.881  0.00  0.00    +0.151 C 
ATOM      6  C   UNL     1      34.674 -16.113 -21.538  0.00  0.00    +0.170 C 
ATOM      7  C   UNL     1      32.624 -13.855 -23.587  0.00  0.00    -0.012 C 
ATOM      8  C   UNL     1      34.018 -15.770 -24.212  0.00  0.00    +0.047 C 
ATOM      9  C   UNL     1      32.495 -13.259 -21.301  0.00  0.00    +0.109 C 
ATOM     10  C   UNL     1      32.117 -13.016 -22.606  0.00  0.00    +0.024 C 
ATOM     11  C   UNL     1      35.202 -16.975 -22.503  0.00  0.00    +0.094 C 
ATOM     12  C   UNL     1      34.874 -16.803 -23.842  0.00  0.00    +0.022 C 
ATOM     13  C   UNL     1      31.974 -12.382 -20.212  0.00  0.00    +0.066 C 
ENDROOT
BRANCH   6  14
ATOM     14  O   UNL     1      35.003 -16.290 -20.220  0.00  0.00    -0.503 OA
ATOM     15  H   UNL     1      34.683 -17.038 -19.755  0.00  0.00    +0.292 HD
ENDBRANCH   6  14
TORSDOF 1
ENDMDL
MODEL 5
REMARK VINA RESULT:      -7.5     11.141     12.473
REMARK  Name = 6301
REMARK  1 active torsions:
REMARK  status: ('A' for Active; 'I' for Inactive)
REMARK    1  A    between atoms: C_6  and  O_14
REMARK                            x       y       z     vdW  Elec       q    Type
REMARK                         _______ _______ _______ _____ _____    ______ ____
ROOT
ATOM      1 CL   UNL     1      33.075 -22.737 -17.791  0.00  0.00    -0.086 Cl
ATOM      2 CL   UNL     1      28.856 -24.531 -15.061  0.00  0.00    -0.079 Cl
ATOM      3  N   UNL     1      33.472 -24.407 -12.909  0.00  0.00    -0.407 NA
ATOM      4  C   UNL     1      33.278 -23.631 -15.182  0.00  0.00    +0.110 C 
ATOM      5  C   UNL     1      32.722 -24.162 -14.000  0.00  0.00    +0.151 C 
ATOM      6  C   UNL     1      31.357 -24.432 -13.983  0.00  0.00    +0.170 C 
ATOM      7  C   UNL     1      34.654 -23.359 -15.199  0.00  0.00    -0.012 C 
ATOM      8  C   UNL     1      32.466 -23.388 -16.302  0.00  0.00    +0.047 C 
ATOM      9  C   UNL     1      34.795 -24.131 -12.966  0.00  0.00    +0.109 C 
ATOM     10  C   UNL     1      35.429 -23.610 -14.077  0.00  0.00    +0.024 C 
ATOM     11  C   UNL     1      30.548 -24.190 -15.097  0.00  0.00    +0.094 C 
ATOM     12  C   UNL     1      31.104 -23.667 -16.258  0.00  0.00    +0.022 C 
ATOM     13  C   UNL     1      35.589 -24.417 -11.736  0.00  0.00    +0.066 C 
ENDROOT
BRANCH   6  14
ATOM     14  O   UNL     1      30.799 -24.948 -12.843  0.00  0.00    -0.503 OA
ATOM     15  H   UNL     1      30.376 -25.784 -12.866  0.00  0.00    +0.292 HD
ENDBRANCH   6  14
TORSDOF 1
ENDMDL
MODEL 6
REMARK VINA RESULT:      -7.4     11.464     13.154
REMARK  Name = 6301
REMARK  1 active torsions:
REMARK  status: ('A' for Active; 'I' for Inactive)
REMARK    1  A    between atoms: C_6  and  O_14
REMARK                            x       y       z     vdW  Elec       q    Type
REMARK                         _______ _______ _______ _____ _____    ______ ____
ROOT
ATOM      1 CL   UNL     1      36.335 -22.408 -16.621  0.00  0.00    -0.086 Cl
ATOM      2 CL   UNL     1      37.896 -24.379 -11.915  0.00  0.00    -0.079 Cl
ATOM      3  N   UNL     1      32.987 -24.495 -13.271  0.00  0.00    -0.407 NA
ATOM      4  C   UNL     1      34.553 -23.525 -14.825  0.00  0.00    +0.110 C 
ATOM      5  C   UNL     1      34.247 -24.148 -13.598  0.00  0.00    +0.151 C 
ATOM      6  C   UNL     1      35.292 -24.403 -12.715  0.00  0.00    +0.170 C 
ATOM      7  C   UNL     1      33.500 -23.269 -15.715  0.00  0.00    -0.012 C 
ATOM      8  C   UNL     1      35.878 -23.177 -15.134  0.00  0.00    +0.047 C 
ATOM      9  C   UNL     1      32.000 -24.230 -14.157  0.00  0.00    +0.109 C 
ATOM     10  C   UNL     1      32.201 -23.625 -15.381  0.00  0.00    +0.024 C 
ATOM     11  C   UNL     1      36.610 -24.056 -13.021  0.00  0.00    +0.094 C 
ATOM     12  C   UNL     1      36.904 -23.443 -14.232  0.00  0.00    +0.022 C 
ATOM     13  C   UNL     1      30.620 -24.630 -13.756  0.00  0.00    +0.066 C 
ENDROOT
BRANCH   6  14
ATOM     14  O   UNL     1      35.013 -25.008 -11.518  0.00  0.00    -0.503 OA
ATOM     15  H   UNL     1      35.514 -25.749 -11.241  0.00  0.00    +0.292 HD
ENDBRANCH   6  14
TORSDOF 1
ENDMDL
MODEL 7
REMARK VINA RESULT:      -7.4      1.818      3.178
REMARK  Name = 6301
REMARK  1 active torsions:
REMARK  status: ('A' for Active; 'I' for Inactive)
REMARK    1  A    between atoms: C_6  and  O_14
REMARK                            x       y       z     vdW  Elec       q    Type
REMARK                         _______ _______ _______ _____ _____    ______ ____
ROOT
ATOM      1 CL   UNL     1      33.416 -14.946 -26.247  0.00  0.00    -0.086 Cl
ATOM      2 CL   UNL     1      31.911 -12.526 -21.736  0.00  0.00    -0.079 Cl
ATOM      3  N   UNL     1      34.707 -16.782 -21.583  0.00  0.00    -0.407 NA
ATOM      4  C   UNL     1      34.101 -15.920 -23.751  0.00  0.00    +0.110 C 
ATOM      5  C   UNL     1      34.087 -15.858 -22.343  0.00  0.00    +0.151 C 
ATOM      6  C   UNL     1      33.406 -14.804 -21.741  0.00  0.00    +0.170 C 
ATOM      7  C   UNL     1      34.787 -16.983 -24.357  0.00  0.00    -0.012 C 
ATOM      8  C   UNL     1      33.443 -14.940 -24.512  0.00  0.00    +0.047 C 
ATOM      9  C   UNL     1      35.357 -17.790 -22.208  0.00  0.00    +0.109 C 
ATOM     10  C   UNL     1      35.427 -17.936 -23.579  0.00  0.00    +0.024 C 
ATOM     11  C   UNL     1      32.751 -13.828 -22.497  0.00  0.00    +0.094 C 
ATOM     12  C   UNL     1      32.770 -13.896 -23.884  0.00  0.00    +0.022 C 
ATOM     13  C   UNL     1      36.031 -18.792 -21.330  0.00  0.00    +0.066 C 
ENDROOT
BRANCH   6  14
ATOM     14  O   UNL     1      33.381 -14.728 -20.373  0.00  0.00    -0.503 OA
ATOM     15  H   UNL     1      32.713 -15.176 -19.892  0.00  0.00    +0.292 HD
ENDBRANCH   6  14
TORSDOF 1
ENDMDL
MODEL 8
REMARK VINA RESULT:      -7.2      5.652      7.530
REMARK  Name = 6301
REMARK  1 active torsions:
REMARK  status: ('A' for Active; 'I' for Inactive)
REMARK    1  A    between atoms: C_6  and  O_14
REMARK                            x       y       z     vdW  Elec       q    Type
REMARK                         _______ _______ _______ _____ _____    ______ ____
ROOT
ATOM      1 CL   UNL     1      35.483 -10.189 -25.568  0.00  0.00    -0.086 Cl
ATOM      2 CL   UNL     1      32.299 -13.630 -23.020  0.00  0.00    -0.079 Cl
ATOM      3  N   UNL     1      32.089  -8.648 -21.977  0.00  0.00    -0.407 NA
ATOM      4  C   UNL     1      33.667  -9.374 -23.648  0.00  0.00    +0.110 C 
ATOM      5  C   UNL     1      32.657  -9.633 -22.700  0.00  0.00    +0.151 C 
ATOM      6  C   UNL     1      32.249 -10.952 -22.521  0.00  0.00    +0.170 C 
ATOM      7  C   UNL     1      34.077  -8.046 -23.828  0.00  0.00    -0.012 C 
ATOM      8  C   UNL     1      34.236 -10.426 -24.384  0.00  0.00    +0.047 C 
ATOM      9  C   UNL     1      32.514  -7.380 -22.181  0.00  0.00    +0.109 C 
ATOM     10  C   UNL     1      33.495  -7.028 -23.086  0.00  0.00    +0.024 C 
ATOM     11  C   UNL     1      32.815 -11.999 -23.253  0.00  0.00    +0.094 C 
ATOM     12  C   UNL     1      33.810 -11.736 -24.186  0.00  0.00    +0.022 C 
ATOM     13  C   UNL     1      31.860  -6.319 -21.361  0.00  0.00    +0.066 C 
ENDROOT
BRANCH   6  14
ATOM     14  O   UNL     1      31.269 -11.222 -21.603  0.00  0.00    -0.503 OA
ATOM     15  H   UNL     1      31.137 -12.101 -21.304  0.00  0.00    +0.292 HD
ENDBRANCH   6  14
TORSDOF 1
ENDMDL
MODEL 9
REMARK VINA RESULT:      -7.2      3.170      5.192
REMARK  Name = 6301
REMARK  1 active torsions:
REMARK  status: ('A' for Active; 'I' for Inactive)
REMARK    1  A    between atoms: C_6  and  O_14
REMARK                            x       y       z     vdW  Elec       q    Type
REMARK                         _______ _______ _______ _____ _____    ______ ____
ROOT
ATOM      1 CL   UNL     1      34.566 -19.579 -25.428  0.00  0.00    -0.086 Cl
ATOM      2 CL   UNL     1      35.975 -19.620 -20.282  0.00  0.00    -0.079 Cl
ATOM      3  N   UNL     1      34.454 -15.302 -22.516  0.00  0.00    -0.407 NA
ATOM      4  C   UNL     1      34.509 -17.298 -23.865  0.00  0.00    +0.110 C 
ATOM      5  C   UNL     1      34.698 -16.620 -22.643  0.00  0.00    +0.151 C 
ATOM      6  C   UNL     1      35.151 -17.354 -21.550  0.00  0.00    +0.170 C 
ATOM      7  C   UNL     1      34.053 -16.559 -24.966  0.00  0.00    -0.012 C 
ATOM      8  C   UNL     1      34.773 -18.674 -23.962  0.00  0.00    +0.047 C 
ATOM      9  C   UNL     1      34.016 -14.625 -23.602  0.00  0.00    +0.109 C 
ATOM     10  C   UNL     1      33.801 -15.201 -24.838  0.00  0.00    +0.024 C 
ATOM     11  C   UNL     1      35.414 -18.723 -21.646  0.00  0.00    +0.094 C 
ATOM     12  C   UNL     1      35.225 -19.384 -22.853  0.00  0.00    +0.022 C 
ATOM     13  C   UNL     1      33.757 -13.167 -23.418  0.00  0.00    +0.066 C 
ENDROOT
BRANCH   6  14
ATOM     14  O   UNL     1      35.340 -16.712 -20.356  0.00  0.00    -0.503 OA
ATOM     15  H   UNL     1      36.150 -16.810 -19.894  0.00  0.00    +0.292 HD
ENDBRANCH   6  14
TORSDOF 1
ENDMDL
