MODEL 1
REMARK VINA RESULT:      -6.8      0.000      0.000
REMARK  Name = 8391
REMARK  2 active torsions:
REMARK  status: ('A' for Active; 'I' for Inactive)
REMARK    1  A    between atoms: C_2  and  N_10
REMARK    2  A    between atoms: C_4  and  O_11
REMARK                            x       y       z     vdW  Elec       q    Type
REMARK                         _______ _______ _______ _____ _____    ______ ____
ROOT
ATOM      1  C   UNL     1      34.147 -19.098 -21.459  0.00  0.00    -0.020 C 
ATOM      2  C   UNL     1      34.655 -16.764 -21.820  0.00  0.00    +0.176 C 
ATOM      3  C   UNL     1      34.113 -17.773 -21.025  0.00  0.00    +0.023 C 
ATOM      4  C   UNL     1      35.232 -17.079 -23.050  0.00  0.00    +0.156 C 
ATOM      5  C   UNL     1      34.723 -19.413 -22.689  0.00  0.00    -0.001 C 
ATOM      6  C   UNL     1      35.266 -18.404 -23.485  0.00  0.00    +0.038 C 
ATOM      7  C   UNL     1      33.568 -20.177 -20.608  0.00  0.00    +0.031 C 
ENDROOT
BRANCH   2  10
ATOM      8  O   UNL     1      34.910 -15.175 -20.168  0.00  0.00    -0.126 OA
ATOM      9  O   UNL     1      34.277 -14.514 -22.163  0.00  0.00    -0.126 OA
ATOM     10  N   UNL     1      34.612 -15.418 -21.361  0.00  0.00    +0.061 N 
ENDBRANCH   2  10
BRANCH   4  11
ATOM     11  O   UNL     1      35.767 -16.111 -23.846  0.00  0.00    -0.504 OA
ATOM     12  H   UNL     1      36.378 -16.341 -24.518  0.00  0.00    +0.292 HD
ENDBRANCH   4  11
TORSDOF 2
ENDMDL
MODEL 2
REMARK VINA RESULT:      -6.6      4.598      5.513
REMARK  Name = 8391
REMARK  2 active torsions:
REMARK  status: ('A' for Active; 'I' for Inactive)
REMARK    1  A    between atoms: C_2  and  N_10
REMARK    2  A    between atoms: C_4  and  O_11
REMARK                            x       y       z     vdW  Elec       q    Type
REMARK                         _______ _______ _______ _____ _____    ______ ____
ROOT
ATOM      1  C   UNL     1      35.178 -19.234 -21.434  0.00  0.00    -0.020 C 
ATOM      2  C   UNL     1      34.823 -20.970 -19.792  0.00  0.00    +0.176 C 
ATOM      3  C   UNL     1      35.687 -20.214 -20.583  0.00  0.00    +0.023 C 
ATOM      4  C   UNL     1      33.447 -20.746 -19.854  0.00  0.00    +0.156 C 
ATOM      5  C   UNL     1      33.803 -19.010 -21.495  0.00  0.00    -0.001 C 
ATOM      6  C   UNL     1      32.937 -19.766 -20.705  0.00  0.00    +0.038 C 
ATOM      7  C   UNL     1      36.104 -18.425 -22.279  0.00  0.00    +0.031 C 
ENDROOT
BRANCH   2  10
ATOM      8  O   UNL     1      34.745 -23.051 -18.803  0.00  0.00    -0.126 OA
ATOM      9  O   UNL     1      36.429 -21.728 -18.321  0.00  0.00    -0.126 OA
ATOM     10  N   UNL     1      35.359 -21.965 -18.930  0.00  0.00    +0.061 N 
ENDBRANCH   2  10
BRANCH   4  11
ATOM     11  O   UNL     1      32.580 -21.473 -19.092  0.00  0.00    -0.504 OA
ATOM     12  H   UNL     1      31.742 -21.118 -18.868  0.00  0.00    +0.292 HD
ENDBRANCH   4  11
TORSDOF 2
ENDMDL
MODEL 3
REMARK VINA RESULT:      -6.5      5.050      5.950
REMARK  Name = 8391
REMARK  2 active torsions:
REMARK  status: ('A' for Active; 'I' for Inactive)
REMARK    1  A    between atoms: C_2  and  N_10
REMARK    2  A    between atoms: C_4  and  O_11
REMARK                            x       y       z     vdW  Elec       q    Type
REMARK                         _______ _______ _______ _____ _____    ______ ____
ROOT
ATOM      1  C   UNL     1      34.736 -19.789 -20.973  0.00  0.00    -0.020 C 
ATOM      2  C   UNL     1      34.346 -21.579 -19.399  0.00  0.00    +0.176 C 
ATOM      3  C   UNL     1      33.866 -20.688 -20.358  0.00  0.00    +0.023 C 
ATOM      4  C   UNL     1      35.698 -21.571 -19.054  0.00  0.00    +0.156 C 
ATOM      5  C   UNL     1      36.087 -19.781 -20.628  0.00  0.00    -0.001 C 
ATOM      6  C   UNL     1      36.568 -20.672 -19.669  0.00  0.00    +0.038 C 
ATOM      7  C   UNL     1      34.222 -18.836 -21.999  0.00  0.00    +0.031 C 
ENDROOT
BRANCH   2  10
ATOM      8  O   UNL     1      33.788 -23.688 -18.654  0.00  0.00    -0.126 OA
ATOM      9  O   UNL     1      32.333 -22.067 -18.384  0.00  0.00    -0.126 OA
ATOM     10  N   UNL     1      33.444 -22.489 -18.782  0.00  0.00    +0.061 N 
ENDBRANCH   2  10
BRANCH   4  11
ATOM     11  O   UNL     1      36.191 -22.431 -18.119  0.00  0.00    -0.504 OA
ATOM     12  H   UNL     1      36.797 -23.100 -18.371  0.00  0.00    +0.292 HD
ENDBRANCH   4  11
TORSDOF 2
ENDMDL
MODEL 4
REMARK VINA RESULT:      -6.5     10.300     10.700
REMARK  Name = 8391
REMARK  2 active torsions:
REMARK  status: ('A' for Active; 'I' for Inactive)
REMARK    1  A    between atoms: C_2  and  N_10
REMARK    2  A    between atoms: C_4  and  O_11
REMARK                            x       y       z     vdW  Elec       q    Type
REMARK                         _______ _______ _______ _____ _____    ______ ____
ROOT
ATOM      1  C   UNL     1      30.357 -23.229 -14.790  0.00  0.00    -0.020 C 
ATOM      2  C   UNL     1      28.292 -22.930 -16.007  0.00  0.00    +0.176 C 
ATOM      3  C   UNL     1      29.225 -22.469 -15.078  0.00  0.00    +0.023 C 
ATOM      4  C   UNL     1      28.492 -24.154 -16.647  0.00  0.00    +0.156 C 
ATOM      5  C   UNL     1      30.557 -24.452 -15.429  0.00  0.00    -0.001 C 
ATOM      6  C   UNL     1      29.625 -24.914 -16.358  0.00  0.00    +0.038 C 
ATOM      7  C   UNL     1      31.354 -22.735 -13.797  0.00  0.00    +0.031 C 
ENDROOT
BRANCH   2  10
ATOM      8  O   UNL     1      26.167 -22.191 -15.504  0.00  0.00    -0.126 OA
ATOM      9  O   UNL     1      27.139 -21.421 -17.315  0.00  0.00    -0.126 OA
ATOM     10  N   UNL     1      27.143 -22.142 -16.289  0.00  0.00    +0.061 N 
ENDBRANCH   2  10
BRANCH   4  11
ATOM     11  O   UNL     1      27.595 -24.627 -17.557  0.00  0.00    -0.504 OA
ATOM     12  H   UNL     1      27.135 -25.426 -17.390  0.00  0.00    +0.292 HD
ENDBRANCH   4  11
TORSDOF 2
ENDMDL
MODEL 5
REMARK VINA RESULT:      -6.4      9.231     10.768
REMARK  Name = 8391
REMARK  2 active torsions:
REMARK  status: ('A' for Active; 'I' for Inactive)
REMARK    1  A    between atoms: C_2  and  N_10
REMARK    2  A    between atoms: C_4  and  O_11
REMARK                            x       y       z     vdW  Elec       q    Type
REMARK                         _______ _______ _______ _____ _____    ______ ____
ROOT
ATOM      1  C   UNL     1      32.191 -23.661 -15.362  0.00  0.00    -0.020 C 
ATOM      2  C   UNL     1      29.842 -23.762 -15.915  0.00  0.00    +0.176 C 
ATOM      3  C   UNL     1      31.122 -23.269 -16.166  0.00  0.00    +0.023 C 
ATOM      4  C   UNL     1      29.631 -24.648 -14.857  0.00  0.00    +0.156 C 
ATOM      5  C   UNL     1      31.981 -24.547 -14.306  0.00  0.00    -0.001 C 
ATOM      6  C   UNL     1      30.701 -25.040 -14.053  0.00  0.00    +0.038 C 
ATOM      7  C   UNL     1      33.560 -23.134 -15.632  0.00  0.00    +0.031 C 
ENDROOT
BRANCH   2  10
ATOM      8  O   UNL     1      28.605 -22.129 -16.973  0.00  0.00    -0.126 OA
ATOM      9  O   UNL     1      28.000 -24.224 -17.224  0.00  0.00    -0.126 OA
ATOM     10  N   UNL     1      28.762 -23.352 -16.745  0.00  0.00    +0.061 N 
ENDBRANCH   2  10
BRANCH   4  11
ATOM     11  O   UNL     1      28.389 -25.143 -14.590  0.00  0.00    -0.504 OA
ATOM     12  H   UNL     1      27.628 -24.647 -14.818  0.00  0.00    +0.292 HD
ENDBRANCH   4  11
TORSDOF 2
ENDMDL
MODEL 6
REMARK VINA RESULT:      -6.4      1.547      2.061
REMARK  Name = 8391
REMARK  2 active torsions:
REMARK  status: ('A' for Active; 'I' for Inactive)
REMARK    1  A    between atoms: C_2  and  N_10
REMARK    2  A    between atoms: C_4  and  O_11
REMARK                            x       y       z     vdW  Elec       q    Type
REMARK                         _______ _______ _______ _____ _____    ______ ____
ROOT
ATOM      1  C   UNL     1      34.720 -18.592 -22.374  0.00  0.00    -0.020 C 
ATOM      2  C   UNL     1      34.415 -16.495 -23.534  0.00  0.00    +0.176 C 
ATOM      3  C   UNL     1      34.510 -17.214 -22.343  0.00  0.00    +0.023 C 
ATOM      4  C   UNL     1      34.531 -17.155 -24.758  0.00  0.00    +0.156 C 
ATOM      5  C   UNL     1      34.836 -19.252 -23.597  0.00  0.00    -0.001 C 
ATOM      6  C   UNL     1      34.741 -18.533 -24.789  0.00  0.00    +0.038 C 
ATOM      7  C   UNL     1      34.821 -19.360 -21.099  0.00  0.00    +0.031 C 
ENDROOT
BRANCH   2  10
ATOM      8  O   UNL     1      33.408 -14.569 -24.305  0.00  0.00    -0.126 OA
ATOM      9  O   UNL     1      34.809 -14.413 -22.622  0.00  0.00    -0.126 OA
ATOM     10  N   UNL     1      34.200 -15.090 -23.484  0.00  0.00    +0.061 N 
ENDBRANCH   2  10
BRANCH   4  11
ATOM     11  O   UNL     1      34.441 -16.476 -25.936  0.00  0.00    -0.504 OA
ATOM     12  H   UNL     1      33.811 -15.789 -26.034  0.00  0.00    +0.292 HD
ENDBRANCH   4  11
TORSDOF 2
ENDMDL
MODEL 7
REMARK VINA RESULT:      -6.2     11.695     12.280
REMARK  Name = 8391
REMARK  2 active torsions:
REMARK  status: ('A' for Active; 'I' for Inactive)
REMARK    1  A    between atoms: C_2  and  N_10
REMARK    2  A    between atoms: C_4  and  O_11
REMARK                            x       y       z     vdW  Elec       q    Type
REMARK                         _______ _______ _______ _____ _____    ______ ____
ROOT
ATOM      1  C   UNL     1      37.124 -24.107 -12.597  0.00  0.00    -0.020 C 
ATOM      2  C   UNL     1      38.655 -25.307 -14.029  0.00  0.00    +0.176 C 
ATOM      3  C   UNL     1      38.427 -24.471 -12.937  0.00  0.00    +0.023 C 
ATOM      4  C   UNL     1      37.580 -25.781 -14.782  0.00  0.00    +0.156 C 
ATOM      5  C   UNL     1      36.050 -24.580 -13.349  0.00  0.00    -0.001 C 
ATOM      6  C   UNL     1      36.277 -25.417 -14.442  0.00  0.00    +0.038 C 
ATOM      7  C   UNL     1      36.880 -23.213 -11.429  0.00  0.00    +0.031 C 
ENDROOT
BRANCH   2  10
ATOM      8  O   UNL     1      40.248 -26.870 -14.608  0.00  0.00    -0.126 OA
ATOM      9  O   UNL     1      40.868 -24.775 -14.401  0.00  0.00    -0.126 OA
ATOM     10  N   UNL     1      39.990 -25.668 -14.362  0.00  0.00    +0.061 N 
ENDBRANCH   2  10
BRANCH   4  11
ATOM     11  O   UNL     1      37.777 -26.599 -15.855  0.00  0.00    -0.504 OA
ATOM     12  H   UNL     1      37.109 -26.687 -16.506  0.00  0.00    +0.292 HD
ENDBRANCH   4  11
TORSDOF 2
ENDMDL
MODEL 8
REMARK VINA RESULT:      -6.2     11.167     12.299
REMARK  Name = 8391
REMARK  2 active torsions:
REMARK  status: ('A' for Active; 'I' for Inactive)
REMARK    1  A    between atoms: C_2  and  N_10
REMARK    2  A    between atoms: C_4  and  O_11
REMARK                            x       y       z     vdW  Elec       q    Type
REMARK                         _______ _______ _______ _____ _____    ______ ____
ROOT
ATOM      1  C   UNL     1      36.870 -25.731 -14.212  0.00  0.00    -0.020 C 
ATOM      2  C   UNL     1      35.908 -24.721 -12.240  0.00  0.00    +0.176 C 
ATOM      3  C   UNL     1      36.912 -25.480 -12.841  0.00  0.00    +0.023 C 
ATOM      4  C   UNL     1      34.862 -24.212 -13.011  0.00  0.00    +0.156 C 
ATOM      5  C   UNL     1      35.825 -25.223 -14.983  0.00  0.00    -0.001 C 
ATOM      6  C   UNL     1      34.821 -24.464 -14.382  0.00  0.00    +0.038 C 
ATOM      7  C   UNL     1      37.944 -26.543 -14.855  0.00  0.00    +0.031 C 
ENDROOT
BRANCH   2  10
ATOM      8  O   UNL     1      35.165 -25.076 -10.087  0.00  0.00    -0.126 OA
ATOM      9  O   UNL     1      36.815 -23.663 -10.402  0.00  0.00    -0.126 OA
ATOM     10  N   UNL     1      35.966 -24.474 -10.841  0.00  0.00    +0.061 N 
ENDBRANCH   2  10
BRANCH   4  11
ATOM     11  O   UNL     1      33.869 -23.468 -12.447  0.00  0.00    -0.504 OA
ATOM     12  H   UNL     1      33.178 -23.890 -11.975  0.00  0.00    +0.292 HD
ENDBRANCH   4  11
TORSDOF 2
ENDMDL
MODEL 9
REMARK VINA RESULT:      -6.2      3.211      3.855
REMARK  Name = 8391
REMARK  2 active torsions:
REMARK  status: ('A' for Active; 'I' for Inactive)
REMARK    1  A    between atoms: C_2  and  N_10
REMARK    2  A    between atoms: C_4  and  O_11
REMARK                            x       y       z     vdW  Elec       q    Type
REMARK                         _______ _______ _______ _____ _____    ______ ____
ROOT
ATOM      1  C   UNL     1      34.117 -15.503 -22.131  0.00  0.00    -0.020 C 
ATOM      2  C   UNL     1      33.802 -15.493 -24.526  0.00  0.00    +0.176 C 
ATOM      3  C   UNL     1      33.560 -14.930 -23.274  0.00  0.00    +0.023 C 
ATOM      4  C   UNL     1      34.602 -16.631 -24.636  0.00  0.00    +0.156 C 
ATOM      5  C   UNL     1      34.916 -16.640 -22.241  0.00  0.00    -0.001 C 
ATOM      6  C   UNL     1      35.159 -17.204 -23.493  0.00  0.00    +0.038 C 
ATOM      7  C   UNL     1      33.857 -14.900 -20.792  0.00  0.00    +0.031 C 
ENDROOT
BRANCH   2  10
ATOM      8  O   UNL     1      33.193 -13.645 -25.763  0.00  0.00    -0.126 OA
ATOM      9  O   UNL     1      32.767 -15.637 -26.583  0.00  0.00    -0.126 OA
ATOM     10  N   UNL     1      33.226 -14.896 -25.681  0.00  0.00    +0.061 N 
ENDBRANCH   2  10
BRANCH   4  11
ATOM     11  O   UNL     1      34.853 -17.202 -25.848  0.00  0.00    -0.504 OA
ATOM     12  H   UNL     1      34.419 -17.996 -26.091  0.00  0.00    +0.292 HD
ENDBRANCH   4  11
TORSDOF 2
ENDMDL
