MODEL 1
REMARK VINA RESULT:     -10.4      0.000      0.000
REMARK  Name = 5281614
REMARK  5 active torsions:
REMARK  status: ('A' for Active; 'I' for Inactive)
REMARK    1  A    between atoms: C_3  and  C_12
REMARK    2  A    between atoms: C_6  and  O_22
REMARK    3  A    between atoms: C_10  and  O_24
REMARK    4  A    between atoms: C_15  and  O_18
REMARK    5  A    between atoms: C_17  and  O_20
REMARK                            x       y       z     vdW  Elec       q    Type
REMARK                         _______ _______ _______ _____ _____    ______ ____
ROOT
ATOM      1  O   UNL     1      33.798 -16.939 -21.305  0.00  0.00    -0.450 OA
ATOM      2  O   UNL     1      34.910 -16.558 -25.207  0.00  0.00    -0.283 OA
ATOM      3  C   UNL     1      34.461 -17.957 -21.970  0.00  0.00    +0.182 A 
ATOM      4  C   UNL     1      33.885 -15.586 -23.319  0.00  0.00    +0.077 A 
ATOM      5  C   UNL     1      33.529 -15.779 -21.985  0.00  0.00    +0.152 A 
ATOM      6  C   UNL     1      34.851 -17.901 -23.258  0.00  0.00    +0.208 A 
ATOM      7  C   UNL     1      34.578 -16.668 -24.034  0.00  0.00    +0.235 A 
ATOM      8  C   UNL     1      33.586 -14.382 -23.961  0.00  0.00    +0.009 C 
ATOM      9  C   UNL     1      32.870 -14.768 -21.285  0.00  0.00    +0.074 C 
ATOM     10  C   UNL     1      32.569 -13.565 -21.924  0.00  0.00    +0.137 C 
ATOM     11  C   UNL     1      32.926 -13.373 -23.259  0.00  0.00    +0.037 C 
ENDROOT
BRANCH   3  12
ATOM     12  C   UNL     1      34.685 -19.144 -21.126  0.00  0.00    +0.041 C 
ATOM     13  C   UNL     1      33.602 -19.916 -20.706  0.00  0.00    +0.043 C 
ATOM     14  C   UNL     1      35.980 -19.498 -20.747  0.00  0.00    +0.006 C 
ATOM     15  C   UNL     1      33.813 -21.041 -19.908  0.00  0.00    +0.168 C 
ATOM     16  C   UNL     1      36.192 -20.621 -19.949  0.00  0.00    +0.040 C 
ATOM     17  C   UNL     1      35.108 -21.393 -19.529  0.00  0.00    +0.167 C 
BRANCH  15  18
ATOM     18  O   UNL     1      32.747 -21.786 -19.503  0.00  0.00    -0.503 OA
ATOM     19  H   UNL     1      32.491 -21.787 -18.601  0.00  0.00    +0.292 HD
ENDBRANCH  15  18
BRANCH  17  20
ATOM     20  O   UNL     1      35.328 -22.489 -18.750  0.00  0.00    -0.503 OA
ATOM     21  H   UNL     1      34.603 -22.963 -18.393  0.00  0.00    +0.292 HD
ENDBRANCH  17  20
ENDBRANCH   3  12
BRANCH   6  22
ATOM     22  O   UNL     1      35.480 -18.946 -23.898  0.00  0.00    -0.501 OA
ATOM     23  H   UNL     1      36.285 -18.800 -24.355  0.00  0.00    +0.292 HD
ENDBRANCH   6  22
BRANCH  10  24
ATOM     24  O   UNL     1      31.925 -12.577 -21.244  0.00  0.00    -0.505 OA
ATOM     25  H   UNL     1      32.105 -11.678 -21.442  0.00  0.00    +0.292 HD
ENDBRANCH  10  24
TORSDOF 5
ENDMDL
MODEL 2
REMARK VINA RESULT:      -9.9      2.482      7.241
REMARK  Name = 5281614
REMARK  5 active torsions:
REMARK  status: ('A' for Active; 'I' for Inactive)
REMARK    1  A    between atoms: C_3  and  C_12
REMARK    2  A    between atoms: C_6  and  O_22
REMARK    3  A    between atoms: C_10  and  O_24
REMARK    4  A    between atoms: C_15  and  O_18
REMARK    5  A    between atoms: C_17  and  O_20
REMARK                            x       y       z     vdW  Elec       q    Type
REMARK                         _______ _______ _______ _____ _____    ______ ____
ROOT
ATOM      1  O   UNL     1      34.010 -14.809 -22.371  0.00  0.00    -0.450 OA
ATOM      2  O   UNL     1      33.983 -16.510 -26.074  0.00  0.00    -0.283 OA
ATOM      3  C   UNL     1      33.485 -14.145 -23.468  0.00  0.00    +0.182 A 
ATOM      4  C   UNL     1      34.532 -16.709 -23.789  0.00  0.00    +0.077 A 
ATOM      5  C   UNL     1      34.514 -16.071 -22.550  0.00  0.00    +0.152 A 
ATOM      6  C   UNL     1      33.450 -14.643 -24.718  0.00  0.00    +0.208 A 
ATOM      7  C   UNL     1      33.989 -16.003 -24.960  0.00  0.00    +0.235 A 
ATOM      8  C   UNL     1      35.060 -17.997 -23.912  0.00  0.00    +0.009 C 
ATOM      9  C   UNL     1      35.025 -16.719 -21.425  0.00  0.00    +0.074 C 
ATOM     10  C   UNL     1      35.553 -18.005 -21.544  0.00  0.00    +0.137 C 
ATOM     11  C   UNL     1      35.570 -18.642 -22.786  0.00  0.00    +0.037 C 
ENDROOT
BRANCH   3  12
ATOM     12  C   UNL     1      32.979 -12.801 -23.137  0.00  0.00    +0.041 C 
ATOM     13  C   UNL     1      31.962 -12.650 -22.195  0.00  0.00    +0.043 C 
ATOM     14  C   UNL     1      33.517 -11.678 -23.767  0.00  0.00    +0.006 C 
ATOM     15  C   UNL     1      31.483 -11.377 -21.882  0.00  0.00    +0.168 C 
ATOM     16  C   UNL     1      33.039 -10.406 -23.455  0.00  0.00    +0.040 C 
ATOM     17  C   UNL     1      32.022 -10.255 -22.512  0.00  0.00    +0.167 C 
BRANCH  15  18
ATOM     18  O   UNL     1      30.489 -11.242 -20.961  0.00  0.00    -0.503 OA
ATOM     19  H   UNL     1      30.608 -11.569 -20.091  0.00  0.00    +0.292 HD
ENDBRANCH  15  18
BRANCH  17  20
ATOM     20  O   UNL     1      31.564  -9.007 -22.215  0.00  0.00    -0.503 OA
ATOM     21  H   UNL     1      30.647  -8.862 -22.091  0.00  0.00    +0.292 HD
ENDBRANCH  17  20
ENDBRANCH   3  12
BRANCH   6  22
ATOM     22  O   UNL     1      32.951 -13.942 -25.794  0.00  0.00    -0.501 OA
ATOM     23  H   UNL     1      32.087 -13.583 -25.759  0.00  0.00    +0.292 HD
ENDBRANCH   6  22
BRANCH  10  24
ATOM     24  O   UNL     1      36.052 -18.639 -20.448  0.00  0.00    -0.505 OA
ATOM     25  H   UNL     1      35.810 -18.350 -19.590  0.00  0.00    +0.292 HD
ENDBRANCH  10  24
TORSDOF 5
ENDMDL
MODEL 3
REMARK VINA RESULT:      -9.7      2.585      7.538
REMARK  Name = 5281614
REMARK  5 active torsions:
REMARK  status: ('A' for Active; 'I' for Inactive)
REMARK    1  A    between atoms: C_3  and  C_12
REMARK    2  A    between atoms: C_6  and  O_22
REMARK    3  A    between atoms: C_10  and  O_24
REMARK    4  A    between atoms: C_15  and  O_18
REMARK    5  A    between atoms: C_17  and  O_20
REMARK                            x       y       z     vdW  Elec       q    Type
REMARK                         _______ _______ _______ _____ _____    ______ ____
ROOT
ATOM      1  O   UNL     1      33.996 -14.715 -22.415  0.00  0.00    -0.450 OA
ATOM      2  O   UNL     1      33.917 -16.433 -26.109  0.00  0.00    -0.283 OA
ATOM      3  C   UNL     1      33.468 -14.051 -23.510  0.00  0.00    +0.182 A 
ATOM      4  C   UNL     1      34.486 -16.627 -23.828  0.00  0.00    +0.077 A 
ATOM      5  C   UNL     1      34.486 -15.983 -22.593  0.00  0.00    +0.152 A 
ATOM      6  C   UNL     1      33.417 -14.555 -24.757  0.00  0.00    +0.208 A 
ATOM      7  C   UNL     1      33.939 -15.921 -24.998  0.00  0.00    +0.235 A 
ATOM      8  C   UNL     1      34.999 -17.921 -23.950  0.00  0.00    +0.009 C 
ATOM      9  C   UNL     1      35.001 -16.630 -21.469  0.00  0.00    +0.074 C 
ATOM     10  C   UNL     1      35.514 -17.922 -21.586  0.00  0.00    +0.137 C 
ATOM     11  C   UNL     1      35.513 -18.565 -22.825  0.00  0.00    +0.037 C 
ENDROOT
BRANCH   3  12
ATOM     12  C   UNL     1      32.979 -12.700 -23.182  0.00  0.00    +0.041 C 
ATOM     13  C   UNL     1      33.588 -11.580 -23.749  0.00  0.00    +0.043 C 
ATOM     14  C   UNL     1      31.907 -12.539 -22.304  0.00  0.00    +0.006 C 
ATOM     15  C   UNL     1      33.126 -10.301 -23.439  0.00  0.00    +0.168 C 
ATOM     16  C   UNL     1      31.444 -11.261 -21.993  0.00  0.00    +0.040 C 
ATOM     17  C   UNL     1      32.053 -10.141 -22.561  0.00  0.00    +0.167 C 
BRANCH  15  18
ATOM     18  O   UNL     1      33.729  -9.215 -23.998  0.00  0.00    -0.503 OA
ATOM     19  H   UNL     1      33.872  -8.443 -23.486  0.00  0.00    +0.292 HD
ENDBRANCH  15  18
BRANCH  17  20
ATOM     20  O   UNL     1      31.592  -8.898 -22.251  0.00  0.00    -0.503 OA
ATOM     21  H   UNL     1      31.029  -8.445 -22.847  0.00  0.00    +0.292 HD
ENDBRANCH  17  20
ENDBRANCH   3  12
BRANCH   6  22
ATOM     22  O   UNL     1      32.915 -13.853 -25.832  0.00  0.00    -0.501 OA
ATOM     23  H   UNL     1      31.992 -13.836 -25.990  0.00  0.00    +0.292 HD
ENDBRANCH   6  22
BRANCH  10  24
ATOM     24  O   UNL     1      36.017 -18.556 -20.492  0.00  0.00    -0.505 OA
ATOM     25  H   UNL     1      35.452 -19.070 -19.948  0.00  0.00    +0.292 HD
ENDBRANCH  10  24
TORSDOF 5
ENDMDL
MODEL 4
REMARK VINA RESULT:      -9.5      1.455      2.833
REMARK  Name = 5281614
REMARK  5 active torsions:
REMARK  status: ('A' for Active; 'I' for Inactive)
REMARK    1  A    between atoms: C_3  and  C_12
REMARK    2  A    between atoms: C_6  and  O_22
REMARK    3  A    between atoms: C_10  and  O_24
REMARK    4  A    between atoms: C_15  and  O_18
REMARK    5  A    between atoms: C_17  and  O_20
REMARK                            x       y       z     vdW  Elec       q    Type
REMARK                         _______ _______ _______ _____ _____    ______ ____
ROOT
ATOM      1  O   UNL     1      34.313 -17.180 -23.187  0.00  0.00    -0.450 OA
ATOM      2  O   UNL     1      34.319 -13.651 -21.150  0.00  0.00    -0.283 OA
ATOM      3  C   UNL     1      34.569 -17.132 -21.827  0.00  0.00    +0.182 A 
ATOM      4  C   UNL     1      34.027 -14.770 -23.205  0.00  0.00    +0.077 A 
ATOM      5  C   UNL     1      34.043 -16.008 -23.844  0.00  0.00    +0.152 A 
ATOM      6  C   UNL     1      34.594 -16.002 -21.094  0.00  0.00    +0.208 A 
ATOM      7  C   UNL     1      34.313 -14.710 -21.763  0.00  0.00    +0.235 A 
ATOM      8  C   UNL     1      33.745 -13.607 -23.927  0.00  0.00    +0.009 C 
ATOM      9  C   UNL     1      33.777 -16.091 -25.212  0.00  0.00    +0.074 C 
ATOM     10  C   UNL     1      33.496 -14.932 -25.935  0.00  0.00    +0.137 C 
ATOM     11  C   UNL     1      33.480 -13.693 -25.294  0.00  0.00    +0.037 C 
ENDROOT
BRANCH   3  12
ATOM     12  C   UNL     1      34.845 -18.458 -21.246  0.00  0.00    +0.041 C 
ATOM     13  C   UNL     1      33.789 -19.301 -20.898  0.00  0.00    +0.043 C 
ATOM     14  C   UNL     1      36.162 -18.872 -21.043  0.00  0.00    +0.006 C 
ATOM     15  C   UNL     1      34.049 -20.556 -20.348  0.00  0.00    +0.168 C 
ATOM     16  C   UNL     1      36.423 -20.127 -20.494  0.00  0.00    +0.040 C 
ATOM     17  C   UNL     1      35.366 -20.969 -20.146  0.00  0.00    +0.167 C 
BRANCH  15  18
ATOM     18  O   UNL     1      33.011 -21.370 -20.011  0.00  0.00    -0.503 OA
ATOM     19  H   UNL     1      32.848 -21.575 -19.111  0.00  0.00    +0.292 HD
ENDBRANCH  15  18
BRANCH  17  20
ATOM     20  O   UNL     1      35.634 -22.193 -19.611  0.00  0.00    -0.503 OA
ATOM     21  H   UNL     1      34.975 -22.645 -19.122  0.00  0.00    +0.292 HD
ENDBRANCH  17  20
ENDBRANCH   3  12
BRANCH   6  22
ATOM     22  O   UNL     1      34.886 -15.986 -19.748  0.00  0.00    -0.501 OA
ATOM     23  H   UNL     1      35.431 -16.652 -19.378  0.00  0.00    +0.292 HD
ENDBRANCH   6  22
BRANCH  10  24
ATOM     24  O   UNL     1      33.237 -15.010 -27.269  0.00  0.00    -0.505 OA
ATOM     25  H   UNL     1      32.377 -15.238 -27.567  0.00  0.00    +0.292 HD
ENDBRANCH  10  24
TORSDOF 5
ENDMDL
MODEL 5
REMARK VINA RESULT:      -9.5      4.141      6.836
REMARK  Name = 5281614
REMARK  5 active torsions:
REMARK  status: ('A' for Active; 'I' for Inactive)
REMARK    1  A    between atoms: C_3  and  C_12
REMARK    2  A    between atoms: C_6  and  O_22
REMARK    3  A    between atoms: C_10  and  O_24
REMARK    4  A    between atoms: C_15  and  O_18
REMARK    5  A    between atoms: C_17  and  O_20
REMARK                            x       y       z     vdW  Elec       q    Type
REMARK                         _______ _______ _______ _____ _____    ______ ____
ROOT
ATOM      1  O   UNL     1      33.926 -11.374 -24.079  0.00  0.00    -0.450 OA
ATOM      2  O   UNL     1      31.088 -10.710 -21.232  0.00  0.00    -0.283 OA
ATOM      3  C   UNL     1      33.193 -12.415 -23.533  0.00  0.00    +0.182 A 
ATOM      4  C   UNL     1      32.710  -9.804 -22.684  0.00  0.00    +0.077 A 
ATOM      5  C   UNL     1      33.668 -10.097 -23.652  0.00  0.00    +0.152 A 
ATOM      6  C   UNL     1      32.248 -12.269 -22.586  0.00  0.00    +0.208 A 
ATOM      7  C   UNL     1      31.938 -10.906 -22.090  0.00  0.00    +0.235 A 
ATOM      8  C   UNL     1      32.490  -8.482 -22.287  0.00  0.00    +0.009 C 
ATOM      9  C   UNL     1      34.415  -9.069 -24.230  0.00  0.00    +0.074 C 
ATOM     10  C   UNL     1      34.198  -7.749 -23.835  0.00  0.00    +0.137 C 
ATOM     11  C   UNL     1      33.238  -7.457 -22.865  0.00  0.00    +0.037 C 
ENDROOT
BRANCH   3  12
ATOM     12  C   UNL     1      33.570 -13.731 -24.078  0.00  0.00    +0.041 C 
ATOM     13  C   UNL     1      34.470 -14.542 -23.386  0.00  0.00    +0.043 C 
ATOM     14  C   UNL     1      33.027 -14.169 -25.286  0.00  0.00    +0.006 C 
ATOM     15  C   UNL     1      34.827 -15.788 -23.901  0.00  0.00    +0.168 C 
ATOM     16  C   UNL     1      33.383 -15.414 -25.802  0.00  0.00    +0.040 C 
ATOM     17  C   UNL     1      34.284 -16.225 -25.109  0.00  0.00    +0.167 C 
BRANCH  15  18
ATOM     18  O   UNL     1      35.708 -16.570 -23.217  0.00  0.00    -0.503 OA
ATOM     19  H   UNL     1      35.439 -17.000 -22.429  0.00  0.00    +0.292 HD
ENDBRANCH  15  18
BRANCH  17  20
ATOM     20  O   UNL     1      34.623 -17.439 -25.623  0.00  0.00    -0.503 OA
ATOM     21  H   UNL     1      34.068 -18.180 -25.479  0.00  0.00    +0.292 HD
ENDBRANCH  17  20
ENDBRANCH   3  12
BRANCH   6  22
ATOM     22  O   UNL     1      31.560 -13.330 -22.039  0.00  0.00    -0.501 OA
ATOM     23  H   UNL     1      31.719 -14.200 -22.348  0.00  0.00    +0.292 HD
ENDBRANCH   6  22
BRANCH  10  24
ATOM     24  O   UNL     1      34.925  -6.744 -24.396  0.00  0.00    -0.505 OA
ATOM     25  H   UNL     1      34.489  -5.998 -24.760  0.00  0.00    +0.292 HD
ENDBRANCH  10  24
TORSDOF 5
ENDMDL
MODEL 6
REMARK VINA RESULT:      -9.5      1.977      6.703
REMARK  Name = 5281614
REMARK  5 active torsions:
REMARK  status: ('A' for Active; 'I' for Inactive)
REMARK    1  A    between atoms: C_3  and  C_12
REMARK    2  A    between atoms: C_6  and  O_22
REMARK    3  A    between atoms: C_10  and  O_24
REMARK    4  A    between atoms: C_15  and  O_18
REMARK    5  A    between atoms: C_17  and  O_20
REMARK                            x       y       z     vdW  Elec       q    Type
REMARK                         _______ _______ _______ _____ _____    ______ ____
ROOT
ATOM      1  O   UNL     1      34.067 -19.452 -21.575  0.00  0.00    -0.450 OA
ATOM      2  O   UNL     1      37.873 -20.028 -20.238  0.00  0.00    -0.283 OA
ATOM      3  C   UNL     1      35.142 -18.792 -22.148  0.00  0.00    +0.182 A 
ATOM      4  C   UNL     1      35.586 -20.568 -20.045  0.00  0.00    +0.077 A 
ATOM      5  C   UNL     1      34.308 -20.325 -20.546  0.00  0.00    +0.152 A 
ATOM      6  C   UNL     1      36.421 -18.929 -21.752  0.00  0.00    +0.208 A 
ATOM      7  C   UNL     1      36.729 -19.860 -20.640  0.00  0.00    +0.235 A 
ATOM      8  C   UNL     1      35.771 -21.470 -18.993  0.00  0.00    +0.009 C 
ATOM      9  C   UNL     1      33.207 -20.983 -19.997  0.00  0.00    +0.074 C 
ATOM     10  C   UNL     1      33.389 -21.884 -18.947  0.00  0.00    +0.137 C 
ATOM     11  C   UNL     1      34.669 -22.126 -18.447  0.00  0.00    +0.037 C 
ENDROOT
BRANCH   3  12
ATOM     12  C   UNL     1      34.744 -17.885 -23.239  0.00  0.00    +0.041 C 
ATOM     13  C   UNL     1      34.559 -16.526 -22.984  0.00  0.00    +0.043 C 
ATOM     14  C   UNL     1      34.552 -18.385 -24.527  0.00  0.00    +0.006 C 
ATOM     15  C   UNL     1      34.183 -15.667 -24.017  0.00  0.00    +0.168 C 
ATOM     16  C   UNL     1      34.176 -17.527 -25.560  0.00  0.00    +0.040 C 
ATOM     17  C   UNL     1      33.991 -16.167 -25.305  0.00  0.00    +0.167 C 
BRANCH  15  18
ATOM     18  O   UNL     1      34.005 -14.342 -23.757  0.00  0.00    -0.503 OA
ATOM     19  H   UNL     1      33.143 -13.974 -23.768  0.00  0.00    +0.292 HD
ENDBRANCH  15  18
BRANCH  17  20
ATOM     20  O   UNL     1      33.625 -15.339 -26.322  0.00  0.00    -0.503 OA
ATOM     21  H   UNL     1      33.969 -14.469 -26.365  0.00  0.00    +0.292 HD
ENDBRANCH  17  20
ENDBRANCH   3  12
BRANCH   6  22
ATOM     22  O   UNL     1      37.464 -18.232 -22.322  0.00  0.00    -0.501 OA
ATOM     23  H   UNL     1      38.318 -18.613 -22.360  0.00  0.00    +0.292 HD
ENDBRANCH   6  22
BRANCH  10  24
ATOM     24  O   UNL     1      32.316 -22.527 -18.410  0.00  0.00    -0.505 OA
ATOM     25  H   UNL     1      32.081 -23.382 -18.716  0.00  0.00    +0.292 HD
ENDBRANCH  10  24
TORSDOF 5
ENDMDL
MODEL 7
REMARK VINA RESULT:      -9.4      1.623      6.666
REMARK  Name = 5281614
REMARK  5 active torsions:
REMARK  status: ('A' for Active; 'I' for Inactive)
REMARK    1  A    between atoms: C_3  and  C_12
REMARK    2  A    between atoms: C_6  and  O_22
REMARK    3  A    between atoms: C_10  and  O_24
REMARK    4  A    between atoms: C_15  and  O_18
REMARK    5  A    between atoms: C_17  and  O_20
REMARK                            x       y       z     vdW  Elec       q    Type
REMARK                         _______ _______ _______ _____ _____    ______ ____
ROOT
ATOM      1  O   UNL     1      33.868 -18.868 -21.304  0.00  0.00    -0.450 OA
ATOM      2  O   UNL     1      37.778 -19.888 -20.776  0.00  0.00    -0.283 OA
ATOM      3  C   UNL     1      34.888 -18.160 -21.917  0.00  0.00    +0.182 A 
ATOM      4  C   UNL     1      35.513 -20.344 -20.299  0.00  0.00    +0.077 A 
ATOM      5  C   UNL     1      34.197 -19.942 -20.518  0.00  0.00    +0.152 A 
ATOM      6  C   UNL     1      36.199 -18.437 -21.780  0.00  0.00    +0.208 A 
ATOM      7  C   UNL     1      36.602 -19.587 -20.936  0.00  0.00    +0.235 A 
ATOM      8  C   UNL     1      35.789 -21.447 -19.487  0.00  0.00    +0.009 C 
ATOM      9  C   UNL     1      33.146 -20.643 -19.924  0.00  0.00    +0.074 C 
ATOM     10  C   UNL     1      33.418 -21.744 -19.112  0.00  0.00    +0.137 C 
ATOM     11  C   UNL     1      34.737 -22.145 -18.895  0.00  0.00    +0.037 C 
ENDROOT
BRANCH   3  12
ATOM     12  C   UNL     1      34.398 -17.033 -22.730  0.00  0.00    +0.041 C 
ATOM     13  C   UNL     1      34.441 -17.106 -24.122  0.00  0.00    +0.043 C 
ATOM     14  C   UNL     1      33.890 -15.892 -22.107  0.00  0.00    +0.006 C 
ATOM     15  C   UNL     1      33.976 -16.039 -24.892  0.00  0.00    +0.168 C 
ATOM     16  C   UNL     1      33.426 -14.825 -22.876  0.00  0.00    +0.040 C 
ATOM     17  C   UNL     1      33.469 -14.899 -24.269  0.00  0.00    +0.167 C 
BRANCH  15  18
ATOM     18  O   UNL     1      34.024 -16.121 -26.250  0.00  0.00    -0.503 OA
ATOM     19  H   UNL     1      34.760 -16.521 -26.670  0.00  0.00    +0.292 HD
ENDBRANCH  15  18
BRANCH  17  20
ATOM     20  O   UNL     1      33.012 -13.850 -25.009  0.00  0.00    -0.503 OA
ATOM     21  H   UNL     1      33.482 -13.575 -25.771  0.00  0.00    +0.292 HD
ENDBRANCH  17  20
ENDBRANCH   3  12
BRANCH   6  22
ATOM     22  O   UNL     1      37.191 -17.690 -22.378  0.00  0.00    -0.501 OA
ATOM     23  H   UNL     1      37.556 -16.953 -21.931  0.00  0.00    +0.292 HD
ENDBRANCH   6  22
BRANCH  10  24
ATOM     24  O   UNL     1      32.395 -22.429 -18.531  0.00  0.00    -0.505 OA
ATOM     25  H   UNL     1      31.515 -22.293 -18.823  0.00  0.00    +0.292 HD
ENDBRANCH  10  24
TORSDOF 5
ENDMDL
MODEL 8
REMARK VINA RESULT:      -9.3      4.298      6.990
REMARK  Name = 5281614
REMARK  5 active torsions:
REMARK  status: ('A' for Active; 'I' for Inactive)
REMARK    1  A    between atoms: C_3  and  C_12
REMARK    2  A    between atoms: C_6  and  O_22
REMARK    3  A    between atoms: C_10  and  O_24
REMARK    4  A    between atoms: C_15  and  O_18
REMARK    5  A    between atoms: C_17  and  O_20
REMARK                            x       y       z     vdW  Elec       q    Type
REMARK                         _______ _______ _______ _____ _____    ______ ____
ROOT
ATOM      1  O   UNL     1      33.912 -11.288 -24.033  0.00  0.00    -0.450 OA
ATOM      2  O   UNL     1      31.092 -10.550 -21.186  0.00  0.00    -0.283 OA
ATOM      3  C   UNL     1      33.177 -12.313 -23.461  0.00  0.00    +0.182 A 
ATOM      4  C   UNL     1      32.711  -9.682 -22.665  0.00  0.00    +0.077 A 
ATOM      5  C   UNL     1      33.663 -10.001 -23.631  0.00  0.00    +0.152 A 
ATOM      6  C   UNL     1      32.237 -12.142 -22.512  0.00  0.00    +0.208 A 
ATOM      7  C   UNL     1      31.937 -10.768 -22.044  0.00  0.00    +0.235 A 
ATOM      8  C   UNL     1      32.500  -8.352 -22.295  0.00  0.00    +0.009 C 
ATOM      9  C   UNL     1      34.411  -8.990 -24.234  0.00  0.00    +0.074 C 
ATOM     10  C   UNL     1      34.203  -7.660 -23.867  0.00  0.00    +0.137 C 
ATOM     11  C   UNL     1      33.249  -7.343 -22.899  0.00  0.00    +0.037 C 
ENDROOT
BRANCH   3  12
ATOM     12  C   UNL     1      33.544 -13.643 -23.980  0.00  0.00    +0.041 C 
ATOM     13  C   UNL     1      33.056 -14.070 -25.215  0.00  0.00    +0.043 C 
ATOM     14  C   UNL     1      34.382 -14.475 -23.237  0.00  0.00    +0.006 C 
ATOM     15  C   UNL     1      33.404 -15.329 -25.706  0.00  0.00    +0.168 C 
ATOM     16  C   UNL     1      34.730 -15.733 -23.727  0.00  0.00    +0.040 C 
ATOM     17  C   UNL     1      34.241 -16.160 -24.962  0.00  0.00    +0.167 C 
BRANCH  15  18
ATOM     18  O   UNL     1      32.920 -15.736 -26.912  0.00  0.00    -0.503 OA
ATOM     19  H   UNL     1      32.011 -15.944 -27.006  0.00  0.00    +0.292 HD
ENDBRANCH  15  18
BRANCH  17  20
ATOM     20  O   UNL     1      34.589 -17.391 -25.431  0.00  0.00    -0.503 OA
ATOM     21  H   UNL     1      35.459 -17.544 -25.743  0.00  0.00    +0.292 HD
ENDBRANCH  17  20
ENDBRANCH   3  12
BRANCH   6  22
ATOM     22  O   UNL     1      31.547 -13.189 -21.940  0.00  0.00    -0.501 OA
ATOM     23  H   UNL     1      31.139 -13.080 -21.104  0.00  0.00    +0.292 HD
ENDBRANCH   6  22
BRANCH  10  24
ATOM     24  O   UNL     1      34.932  -6.671 -24.453  0.00  0.00    -0.505 OA
ATOM     25  H   UNL     1      35.438  -6.086 -23.923  0.00  0.00    +0.292 HD
ENDBRANCH  10  24
TORSDOF 5
ENDMDL
MODEL 9
REMARK VINA RESULT:      -9.3      7.912     11.650
REMARK  Name = 5281614
REMARK  5 active torsions:
REMARK  status: ('A' for Active; 'I' for Inactive)
REMARK    1  A    between atoms: C_3  and  C_12
REMARK    2  A    between atoms: C_6  and  O_22
REMARK    3  A    between atoms: C_10  and  O_24
REMARK    4  A    between atoms: C_15  and  O_18
REMARK    5  A    between atoms: C_17  and  O_20
REMARK                            x       y       z     vdW  Elec       q    Type
REMARK                         _______ _______ _______ _____ _____    ______ ____
ROOT
ATOM      1  O   UNL     1      36.077 -24.420 -15.105  0.00  0.00    -0.450 OA
ATOM      2  O   UNL     1      36.664 -24.243 -11.077  0.00  0.00    -0.283 OA
ATOM      3  C   UNL     1      35.075 -23.999 -14.247  0.00  0.00    +0.182 A 
ATOM      4  C   UNL     1      37.557 -24.726 -13.205  0.00  0.00    +0.077 A 
ATOM      5  C   UNL     1      37.292 -24.767 -14.573  0.00  0.00    +0.152 A 
ATOM      6  C   UNL     1      35.198 -23.924 -12.908  0.00  0.00    +0.208 A 
ATOM      7  C   UNL     1      36.492 -24.294 -12.287  0.00  0.00    +0.235 A 
ATOM      8  C   UNL     1      38.815 -25.092 -12.719  0.00  0.00    +0.009 C 
ATOM      9  C   UNL     1      38.285 -25.176 -15.464  0.00  0.00    +0.074 C 
ATOM     10  C   UNL     1      39.542 -25.542 -14.982  0.00  0.00    +0.137 C 
ATOM     11  C   UNL     1      39.805 -25.501 -13.612  0.00  0.00    +0.037 C 
ENDROOT
BRANCH   3  12
ATOM     12  C   UNL     1      33.824 -23.658 -14.947  0.00  0.00    +0.041 C 
ATOM     13  C   UNL     1      33.847 -23.344 -16.306  0.00  0.00    +0.043 C 
ATOM     14  C   UNL     1      32.614 -23.650 -14.251  0.00  0.00    +0.006 C 
ATOM     15  C   UNL     1      32.663 -23.022 -16.969  0.00  0.00    +0.168 C 
ATOM     16  C   UNL     1      31.430 -23.328 -14.913  0.00  0.00    +0.040 C 
ATOM     17  C   UNL     1      31.454 -23.013 -16.273  0.00  0.00    +0.167 C 
BRANCH  15  18
ATOM     18  O   UNL     1      32.699 -22.715 -18.295  0.00  0.00    -0.503 OA
ATOM     19  H   UNL     1      32.669 -21.820 -18.570  0.00  0.00    +0.292 HD
ENDBRANCH  15  18
BRANCH  17  20
ATOM     20  O   UNL     1      30.291 -22.701 -16.909  0.00  0.00    -0.503 OA
ATOM     21  H   UNL     1      30.313 -22.316 -17.762  0.00  0.00    +0.292 HD
ENDBRANCH  17  20
ENDBRANCH   3  12
BRANCH   6  22
ATOM     22  O   UNL     1      34.169 -23.532 -12.079  0.00  0.00    -0.501 OA
ATOM     23  H   UNL     1      34.326 -22.907 -11.400  0.00  0.00    +0.292 HD
ENDBRANCH   6  22
BRANCH  10  24
ATOM     24  O   UNL     1      40.512 -25.942 -15.849  0.00  0.00    -0.505 OA
ATOM     25  H   UNL     1      40.328 -26.606 -16.484  0.00  0.00    +0.292 HD
ENDBRANCH  10  24
TORSDOF 5
ENDMDL
