MODEL 1
REMARK VINA RESULT:      -3.8      0.000      0.000
REMARK  Name = 8083
REMARK  0 active torsions:
REMARK  status: ('A' for Active; 'I' for Inactive)
REMARK                            x       y       z     vdW  Elec       q    Type
REMARK                         _______ _______ _______ _____ _____    ______ ____
ROOT
ATOM      1  O   UNL     1      35.413 -20.353 -19.888  0.00  0.00    -0.358 OA
ATOM      2  N   UNL     1      32.946 -21.791 -19.862  0.00  0.00    +0.387 N 
ATOM      3  C   UNL     1      33.007 -20.362 -20.184  0.00  0.00    -0.049 C 
ATOM      4  C   UNL     1      34.059 -22.147 -18.978  0.00  0.00    -0.049 C 
ATOM      5  C   UNL     1      34.359 -20.001 -20.787  0.00  0.00    +0.119 C 
ATOM      6  C   UNL     1      35.392 -21.753 -19.603  0.00  0.00    +0.119 C 
ATOM      7  H   UNL     1      33.009 -22.335 -20.723  0.00  0.00    -0.084 HD
ATOM      8  H   UNL     1      32.063 -21.994 -19.394  0.00  0.00    -0.084 HD
ENDROOT
TORSDOF 0
ENDMDL
MODEL 2
REMARK VINA RESULT:      -3.8      1.665      2.074
REMARK  Name = 8083
REMARK  0 active torsions:
REMARK  status: ('A' for Active; 'I' for Inactive)
REMARK                            x       y       z     vdW  Elec       q    Type
REMARK                         _______ _______ _______ _____ _____    ______ ____
ROOT
ATOM      1  O   UNL     1      32.734 -21.612 -20.064  0.00  0.00    -0.358 OA
ATOM      2  N   UNL     1      35.345 -20.477 -19.845  0.00  0.00    +0.387 N 
ATOM      3  C   UNL     1      34.377 -20.009 -20.842  0.00  0.00    -0.049 C 
ATOM      4  C   UNL     1      35.082 -21.881 -19.519  0.00  0.00    -0.049 C 
ATOM      5  C   UNL     1      32.950 -20.230 -20.356  0.00  0.00    +0.119 C 
ATOM      6  C   UNL     1      33.641 -22.067 -19.057  0.00  0.00    +0.119 C 
ATOM      7  H   UNL     1      35.259 -19.911 -18.999  0.00  0.00    -0.084 HD
ATOM      8  H   UNL     1      36.288 -20.387 -20.221  0.00  0.00    -0.084 HD
ENDROOT
TORSDOF 0
ENDMDL
MODEL 3
REMARK VINA RESULT:      -3.7      9.009      9.094
REMARK  Name = 8083
REMARK  0 active torsions:
REMARK  status: ('A' for Active; 'I' for Inactive)
REMARK                            x       y       z     vdW  Elec       q    Type
REMARK                         _______ _______ _______ _____ _____    ______ ____
ROOT
ATOM      1  O   UNL     1      37.887 -24.315 -11.252  0.00  0.00    -0.358 OA
ATOM      2  N   UNL     1      35.873 -25.311 -13.016  0.00  0.00    +0.387 N 
ATOM      3  C   UNL     1      35.540 -24.534 -11.818  0.00  0.00    -0.049 C 
ATOM      4  C   UNL     1      37.141 -26.017 -12.810  0.00  0.00    -0.049 C 
ATOM      5  C   UNL     1      36.676 -23.584 -11.456  0.00  0.00    +0.119 C 
ATOM      6  C   UNL     1      38.248 -25.040 -12.430  0.00  0.00    +0.119 C 
ATOM      7  H   UNL     1      35.961 -24.682 -13.814  0.00  0.00    -0.084 HD
ATOM      8  H   UNL     1      35.133 -25.990 -13.195  0.00  0.00    -0.084 HD
ENDROOT
TORSDOF 0
ENDMDL
MODEL 4
REMARK VINA RESULT:      -3.6      9.635     10.043
REMARK  Name = 8083
REMARK  0 active torsions:
REMARK  status: ('A' for Active; 'I' for Inactive)
REMARK                            x       y       z     vdW  Elec       q    Type
REMARK                         _______ _______ _______ _____ _____    ______ ____
ROOT
ATOM      1  O   UNL     1      42.221 -16.581 -15.954  0.00  0.00    -0.358 OA
ATOM      2  N   UNL     1      41.128 -14.470 -17.536  0.00  0.00    +0.387 N 
ATOM      3  C   UNL     1      42.141 -15.390 -18.064  0.00  0.00    -0.049 C 
ATOM      4  C   UNL     1      41.275 -14.352 -16.083  0.00  0.00    -0.049 C 
ATOM      5  C   UNL     1      42.060 -16.742 -17.364  0.00  0.00    +0.119 C 
ATOM      6  C   UNL     1      41.210 -15.723 -15.420  0.00  0.00    +0.119 C 
ATOM      7  H   UNL     1      40.197 -14.830 -17.754  0.00  0.00    -0.084 HD
ATOM      8  H   UNL     1      41.249 -13.553 -17.965  0.00  0.00    -0.084 HD
ENDROOT
TORSDOF 0
ENDMDL
MODEL 5
REMARK VINA RESULT:      -3.6     10.443     10.844
REMARK  Name = 8083
REMARK  0 active torsions:
REMARK  status: ('A' for Active; 'I' for Inactive)
REMARK                            x       y       z     vdW  Elec       q    Type
REMARK                         _______ _______ _______ _____ _____    ______ ____
ROOT
ATOM      1  O   UNL     1      41.023 -15.590 -16.732  0.00  0.00    -0.358 OA
ATOM      2  N   UNL     1      41.954 -13.126 -15.630  0.00  0.00    +0.387 N 
ATOM      3  C   UNL     1      40.953 -13.952 -14.947  0.00  0.00    -0.049 C 
ATOM      4  C   UNL     1      41.874 -13.345 -17.077  0.00  0.00    -0.049 C 
ATOM      5  C   UNL     1      41.122 -15.421 -15.317  0.00  0.00    +0.119 C 
ATOM      6  C   UNL     1      42.026 -14.826 -17.407  0.00  0.00    +0.119 C 
ATOM      7  H   UNL     1      42.886 -13.381 -15.299  0.00  0.00    -0.084 HD
ATOM      8  H   UNL     1      41.777 -12.143 -15.426  0.00  0.00    -0.084 HD
ENDROOT
TORSDOF 0
ENDMDL
MODEL 6
REMARK VINA RESULT:      -3.6      8.383      8.710
REMARK  Name = 8083
REMARK  0 active torsions:
REMARK  status: ('A' for Active; 'I' for Inactive)
REMARK                            x       y       z     vdW  Elec       q    Type
REMARK                         _______ _______ _______ _____ _____    ______ ____
ROOT
ATOM      1  O   UNL     1      38.613 -24.460 -13.800  0.00  0.00    -0.358 OA
ATOM      2  N   UNL     1      37.140 -26.882 -13.453  0.00  0.00    +0.387 N 
ATOM      3  C   UNL     1      37.579 -26.424 -14.776  0.00  0.00    -0.049 C 
ATOM      4  C   UNL     1      36.956 -25.730 -12.566  0.00  0.00    -0.049 C 
ATOM      5  C   UNL     1      38.841 -25.577 -14.663  0.00  0.00    +0.119 C 
ATOM      6  C   UNL     1      38.230 -24.896 -12.494  0.00  0.00    +0.119 C 
ATOM      7  H   UNL     1      37.847 -27.504 -13.059  0.00  0.00    -0.084 HD
ATOM      8  H   UNL     1      36.257 -27.383 -13.546  0.00  0.00    -0.084 HD
ENDROOT
TORSDOF 0
ENDMDL
MODEL 7
REMARK VINA RESULT:      -3.6      0.819      2.105
REMARK  Name = 8083
REMARK  0 active torsions:
REMARK  status: ('A' for Active; 'I' for Inactive)
REMARK                            x       y       z     vdW  Elec       q    Type
REMARK                         _______ _______ _______ _____ _____    ______ ____
ROOT
ATOM      1  O   UNL     1      35.197 -20.404 -20.922  0.00  0.00    -0.358 OA
ATOM      2  N   UNL     1      32.731 -20.821 -19.542  0.00  0.00    +0.387 N 
ATOM      3  C   UNL     1      33.819 -21.803 -19.499  0.00  0.00    -0.049 C 
ATOM      4  C   UNL     1      32.800 -20.061 -20.794  0.00  0.00    -0.049 C 
ATOM      5  C   UNL     1      35.170 -21.122 -19.686  0.00  0.00    +0.119 C 
ATOM      6  C   UNL     1      34.170 -19.411 -20.956  0.00  0.00    +0.119 C 
ATOM      7  H   UNL     1      32.821 -20.181 -18.752  0.00  0.00    -0.084 HD
ATOM      8  H   UNL     1      31.836 -21.307 -19.490  0.00  0.00    -0.084 HD
ENDROOT
TORSDOF 0
ENDMDL
MODEL 8
REMARK VINA RESULT:      -3.6      1.673      2.826
REMARK  Name = 8083
REMARK  0 active torsions:
REMARK  status: ('A' for Active; 'I' for Inactive)
REMARK                            x       y       z     vdW  Elec       q    Type
REMARK                         _______ _______ _______ _____ _____    ______ ____
ROOT
ATOM      1  O   UNL     1      32.709 -20.772 -19.500  0.00  0.00    -0.358 OA
ATOM      2  N   UNL     1      35.269 -20.557 -20.747  0.00  0.00    +0.387 N 
ATOM      3  C   UNL     1      35.072 -21.311 -19.505  0.00  0.00    -0.049 C 
ATOM      4  C   UNL     1      34.269 -19.489 -20.842  0.00  0.00    -0.049 C 
ATOM      5  C   UNL     1      33.647 -21.846 -19.418  0.00  0.00    +0.119 C 
ATOM      6  C   UNL     1      32.859 -20.057 -20.730  0.00  0.00    +0.119 C 
ATOM      7  H   UNL     1      35.169 -21.186 -21.545  0.00  0.00    -0.084 HD
ATOM      8  H   UNL     1      36.203 -20.147 -20.750  0.00  0.00    -0.084 HD
ENDROOT
TORSDOF 0
ENDMDL
MODEL 9
REMARK VINA RESULT:      -3.6      7.090      7.710
REMARK  Name = 8083
REMARK  0 active torsions:
REMARK  status: ('A' for Active; 'I' for Inactive)
REMARK                            x       y       z     vdW  Elec       q    Type
REMARK                         _______ _______ _______ _____ _____    ______ ____
ROOT
ATOM      1  O   UNL     1      34.109 -15.921 -26.219  0.00  0.00    -0.358 OA
ATOM      2  N   UNL     1      33.406 -14.942 -23.630  0.00  0.00    +0.387 N 
ATOM      3  C   UNL     1      33.193 -14.147 -24.844  0.00  0.00    -0.049 C 
ATOM      4  C   UNL     1      34.529 -15.861 -23.831  0.00  0.00    -0.049 C 
ATOM      5  C   UNL     1      32.986 -15.053 -26.053  0.00  0.00    +0.119 C 
ATOM      6  C   UNL     1      34.298 -16.735 -25.059  0.00  0.00    +0.119 C 
ATOM      7  H   UNL     1      32.562 -15.477 -23.423  0.00  0.00    -0.084 HD
ATOM      8  H   UNL     1      33.614 -14.318 -22.851  0.00  0.00    -0.084 HD
ENDROOT
TORSDOF 0
ENDMDL
