MODEL 1
REMARK VINA RESULT:      -7.6      0.000      0.000
REMARK  Name = 449137
REMARK  3 active torsions:
REMARK  status: ('A' for Active; 'I' for Inactive)
REMARK    1  A    between atoms: C_2  and  C_4
REMARK    2  A    between atoms: C_2  and  C_14
REMARK    3  A    between atoms: C_13  and  C_15
REMARK                            x       y       z     vdW  Elec       q    Type
REMARK                         _______ _______ _______ _____ _____    ______ ____
ROOT
ATOM      1  O   UNL     1      32.390 -14.081 -21.837  0.00  0.00    -0.289 OA
ATOM      2  C   UNL     1      33.441 -14.537 -22.279  0.00  0.00    +0.208 C 
ENDROOT
BRANCH   2   4
ATOM      3  N   UNL     1      34.626 -15.088 -24.291  0.00  0.00    +0.390 N 
ATOM      4  C   UNL     1      34.058 -13.979 -23.525  0.00  0.00    +0.007 C 
ATOM      5  C   UNL     1      33.014 -13.342 -24.435  0.00  0.00    -0.016 C 
ATOM      6  C   UNL     1      32.939 -14.252 -25.656  0.00  0.00    -0.025 C 
ATOM      7  C   UNL     1      33.580 -15.547 -25.199  0.00  0.00    -0.081 C 
ATOM      8  H   UNL     1      34.905 -15.843 -23.665  0.00  0.00    -0.084 HD
ATOM      9  H   UNL     1      35.455 -14.792 -24.806  0.00  0.00    -0.084 HD
ENDBRANCH   2   4
BRANCH   2  14
ATOM     10  O   UNL     1      33.968 -16.879 -22.083  0.00  0.00    -0.417 OA
ATOM     11  N   UNL     1      35.240 -16.807 -20.245  0.00  0.00    -0.111 NA
ATOM     12  N   UNL     1      34.828 -15.519 -20.530  0.00  0.00    -0.104 NA
ATOM     13  C   UNL     1      34.715 -17.567 -21.177  0.00  0.00    +0.226 A 
ATOM     14  C   UNL     1      34.120 -15.662 -21.576  0.00  0.00    +0.283 A 
BRANCH  13  15
ATOM     15  C   UNL     1      34.819 -19.018 -21.372  0.00  0.00    +0.070 C 
ATOM     16  C   UNL     1      33.608 -19.801 -20.744  0.00  0.00    +0.009 C 
ATOM     17  C   UNL     1      36.091 -19.709 -20.744  0.00  0.00    +0.009 C 
ATOM     18  C   UNL     1      34.873 -19.421 -22.891  0.00  0.00    +0.009 C 
ENDBRANCH  13  15
ENDBRANCH   2  14
TORSDOF 3
ENDMDL
MODEL 2
REMARK VINA RESULT:      -7.5      1.412      2.091
REMARK  Name = 449137
REMARK  3 active torsions:
REMARK  status: ('A' for Active; 'I' for Inactive)
REMARK    1  A    between atoms: C_2  and  C_4
REMARK    2  A    between atoms: C_2  and  C_14
REMARK    3  A    between atoms: C_13  and  C_15
REMARK                            x       y       z     vdW  Elec       q    Type
REMARK                         _______ _______ _______ _____ _____    ______ ____
ROOT
ATOM      1  O   UNL     1      32.535 -13.671 -20.450  0.00  0.00    -0.289 OA
ATOM      2  C   UNL     1      32.954 -14.376 -21.366  0.00  0.00    +0.208 C 
ENDROOT
BRANCH   2   4
ATOM      3  N   UNL     1      31.802 -12.852 -22.817  0.00  0.00    +0.390 N 
ATOM      4  C   UNL     1      32.586 -14.086 -22.788  0.00  0.00    +0.007 C 
ATOM      5  C   UNL     1      33.818 -13.812 -23.646  0.00  0.00    -0.016 C 
ATOM      6  C   UNL     1      33.734 -12.332 -24.003  0.00  0.00    -0.025 C 
ATOM      7  C   UNL     1      32.751 -11.759 -23.002  0.00  0.00    -0.081 C 
ATOM      8  H   UNL     1      31.297 -12.735 -21.939  0.00  0.00    -0.084 HD
ATOM      9  H   UNL     1      31.114 -12.872 -23.570  0.00  0.00    -0.084 HD
ENDBRANCH   2   4
BRANCH   2  14
ATOM     10  O   UNL     1      33.512 -16.706 -21.605  0.00  0.00    -0.417 OA
ATOM     11  N   UNL     1      35.361 -16.762 -20.348  0.00  0.00    -0.111 NA
ATOM     12  N   UNL     1      34.876 -15.468 -20.336  0.00  0.00    -0.104 NA
ATOM     13  C   UNL     1      34.534 -17.449 -21.100  0.00  0.00    +0.226 A 
ATOM     14  C   UNL     1      33.839 -15.538 -21.068  0.00  0.00    +0.283 A 
BRANCH  13  15
ATOM     15  C   UNL     1      34.560 -18.871 -21.463  0.00  0.00    +0.070 C 
ATOM     16  C   UNL     1      34.616 -19.098 -23.019  0.00  0.00    +0.009 C 
ATOM     17  C   UNL     1      33.319 -19.726 -20.994  0.00  0.00    +0.009 C 
ATOM     18  C   UNL     1      35.799 -19.626 -20.857  0.00  0.00    +0.009 C 
ENDBRANCH  13  15
ENDBRANCH   2  14
TORSDOF 3
ENDMDL
MODEL 3
REMARK VINA RESULT:      -7.2      9.762     11.542
REMARK  Name = 449137
REMARK  3 active torsions:
REMARK  status: ('A' for Active; 'I' for Inactive)
REMARK    1  A    between atoms: C_2  and  C_4
REMARK    2  A    between atoms: C_2  and  C_14
REMARK    3  A    between atoms: C_13  and  C_15
REMARK                            x       y       z     vdW  Elec       q    Type
REMARK                         _______ _______ _______ _____ _____    ______ ____
ROOT
ATOM      1  O   UNL     1      36.790 -23.166 -16.189  0.00  0.00    -0.289 OA
ATOM      2  C   UNL     1      35.850 -23.708 -15.612  0.00  0.00    +0.208 C 
ENDROOT
BRANCH   2   4
ATOM      3  N   UNL     1      35.616 -25.917 -14.706  0.00  0.00    +0.390 N 
ATOM      4  C   UNL     1      36.079 -24.563 -14.404  0.00  0.00    +0.007 C 
ATOM      5  C   UNL     1      37.564 -24.699 -14.082  0.00  0.00    -0.016 C 
ATOM      6  C   UNL     1      37.905 -26.155 -14.378  0.00  0.00    -0.025 C 
ATOM      7  C   UNL     1      36.762 -26.641 -15.246  0.00  0.00    -0.081 C 
ATOM      8  H   UNL     1      34.863 -25.886 -15.393  0.00  0.00    -0.084 HD
ATOM      9  H   UNL     1      35.252 -26.375 -13.870  0.00  0.00    -0.084 HD
ENDBRANCH   2   4
BRANCH   2  14
ATOM     10  O   UNL     1      33.470 -23.696 -15.247  0.00  0.00    -0.417 OA
ATOM     11  N   UNL     1      32.795 -23.146 -17.307  0.00  0.00    -0.111 NA
ATOM     12  N   UNL     1      34.175 -23.205 -17.312  0.00  0.00    -0.104 NA
ATOM     13  C   UNL     1      32.426 -23.440 -16.082  0.00  0.00    +0.226 A 
ATOM     14  C   UNL     1      34.459 -23.520 -16.113  0.00  0.00    +0.283 A 
BRANCH  13  15
ATOM     15  C   UNL     1      31.080 -23.527 -15.505  0.00  0.00    +0.070 C 
ATOM     16  C   UNL     1      30.991 -22.874 -14.076  0.00  0.00    +0.009 C 
ATOM     17  C   UNL     1      30.510 -24.984 -15.298  0.00  0.00    +0.009 C 
ATOM     18  C   UNL     1      29.995 -22.812 -16.390  0.00  0.00    +0.009 C 
ENDBRANCH  13  15
ENDBRANCH   2  14
TORSDOF 3
ENDMDL
MODEL 4
REMARK VINA RESULT:      -7.2      1.709      2.680
REMARK  Name = 449137
REMARK  3 active torsions:
REMARK  status: ('A' for Active; 'I' for Inactive)
REMARK    1  A    between atoms: C_2  and  C_4
REMARK    2  A    between atoms: C_2  and  C_14
REMARK    3  A    between atoms: C_13  and  C_15
REMARK                            x       y       z     vdW  Elec       q    Type
REMARK                         _______ _______ _______ _____ _____    ______ ____
ROOT
ATOM      1  O   UNL     1      34.464 -13.623 -23.295  0.00  0.00    -0.289 OA
ATOM      2  C   UNL     1      33.739 -14.247 -22.524  0.00  0.00    +0.208 C 
ENDROOT
BRANCH   2   4
ATOM      3  N   UNL     1      31.967 -13.991 -20.927  0.00  0.00    +0.390 N 
ATOM      4  C   UNL     1      32.300 -13.870 -22.346  0.00  0.00    +0.007 C 
ATOM      5  C   UNL     1      32.051 -12.408 -22.704  0.00  0.00    -0.016 C 
ATOM      6  C   UNL     1      31.723 -11.724 -21.382  0.00  0.00    -0.025 C 
ATOM      7  C   UNL     1      32.224 -12.687 -20.325  0.00  0.00    -0.081 C 
ATOM      8  H   UNL     1      32.550 -14.703 -20.488  0.00  0.00    -0.084 HD
ATOM      9  H   UNL     1      30.993 -14.268 -20.801  0.00  0.00    -0.084 HD
ENDBRANCH   2   4
BRANCH   2  14
ATOM     10  O   UNL     1      34.197 -16.600 -22.297  0.00  0.00    -0.417 OA
ATOM     11  N   UNL     1      35.180 -16.580 -20.288  0.00  0.00    -0.111 NA
ATOM     12  N   UNL     1      34.833 -15.281 -20.606  0.00  0.00    -0.104 NA
ATOM     13  C   UNL     1      34.790 -17.316 -21.302  0.00  0.00    +0.226 A 
ATOM     14  C   UNL     1      34.288 -15.395 -21.749  0.00  0.00    +0.283 A 
BRANCH  13  15
ATOM     15  C   UNL     1      34.903 -18.765 -21.507  0.00  0.00    +0.070 C 
ATOM     16  C   UNL     1      34.908 -19.162 -23.029  0.00  0.00    +0.009 C 
ATOM     17  C   UNL     1      33.748 -19.642 -20.885  0.00  0.00    +0.009 C 
ATOM     18  C   UNL     1      36.218 -19.362 -20.886  0.00  0.00    +0.009 C 
ENDBRANCH  13  15
ENDBRANCH   2  14
TORSDOF 3
ENDMDL
MODEL 5
REMARK VINA RESULT:      -7.2     10.363     12.302
REMARK  Name = 449137
REMARK  3 active torsions:
REMARK  status: ('A' for Active; 'I' for Inactive)
REMARK    1  A    between atoms: C_2  and  C_4
REMARK    2  A    between atoms: C_2  and  C_14
REMARK    3  A    between atoms: C_13  and  C_15
REMARK                            x       y       z     vdW  Elec       q    Type
REMARK                         _______ _______ _______ _____ _____    ______ ____
ROOT
ATOM      1  O   UNL     1      36.145 -23.818 -15.831  0.00  0.00    -0.289 OA
ATOM      2  C   UNL     1      35.790 -24.158 -14.704  0.00  0.00    +0.208 C 
ENDROOT
BRANCH   2   4
ATOM      3  N   UNL     1      36.503 -26.044 -13.405  0.00  0.00    +0.390 N 
ATOM      4  C   UNL     1      36.788 -24.640 -13.697  0.00  0.00    +0.007 C 
ATOM      5  C   UNL     1      38.208 -24.616 -14.253  0.00  0.00    -0.016 C 
ATOM      6  C   UNL     1      38.608 -26.080 -14.391  0.00  0.00    -0.025 C 
ATOM      7  C   UNL     1      37.295 -26.835 -14.340  0.00  0.00    -0.081 C 
ATOM      8  H   UNL     1      35.510 -26.236 -13.534  0.00  0.00    -0.084 HD
ATOM      9  H   UNL     1      36.738 -26.273 -12.439  0.00  0.00    -0.084 HD
ENDBRANCH   2   4
BRANCH   2  14
ATOM     10  O   UNL     1      33.475 -23.854 -15.293  0.00  0.00    -0.417 OA
ATOM     11  N   UNL     1      32.554 -24.120 -13.272  0.00  0.00    -0.111 NA
ATOM     12  N   UNL     1      33.922 -24.263 -13.140  0.00  0.00    -0.104 NA
ATOM     13  C   UNL     1      32.338 -23.882 -14.545  0.00  0.00    +0.226 A 
ATOM     14  C   UNL     1      34.350 -24.096 -14.326  0.00  0.00    +0.283 A 
BRANCH  13  15
ATOM     15  C   UNL     1      31.074 -23.649 -15.252  0.00  0.00    +0.070 C 
ATOM     16  C   UNL     1      31.286 -23.012 -16.675  0.00  0.00    +0.009 C 
ATOM     17  C   UNL     1      30.054 -22.676 -14.544  0.00  0.00    +0.009 C 
ATOM     18  C   UNL     1      30.254 -24.972 -15.474  0.00  0.00    +0.009 C 
ENDBRANCH  13  15
ENDBRANCH   2  14
TORSDOF 3
ENDMDL
MODEL 6
REMARK VINA RESULT:      -7.0      6.578      9.103
REMARK  Name = 449137
REMARK  3 active torsions:
REMARK  status: ('A' for Active; 'I' for Inactive)
REMARK    1  A    between atoms: C_2  and  C_4
REMARK    2  A    between atoms: C_2  and  C_14
REMARK    3  A    between atoms: C_13  and  C_15
REMARK                            x       y       z     vdW  Elec       q    Type
REMARK                         _______ _______ _______ _____ _____    ______ ____
ROOT
ATOM      1  O   UNL     1      35.192 -22.656 -17.254  0.00  0.00    -0.289 OA
ATOM      2  C   UNL     1      34.157 -22.751 -17.910  0.00  0.00    +0.208 C 
ENDROOT
BRANCH   2   4
ATOM      3  N   UNL     1      32.985 -21.931 -19.836  0.00  0.00    +0.390 N 
ATOM      4  C   UNL     1      34.182 -22.651 -19.405  0.00  0.00    +0.007 C 
ATOM      5  C   UNL     1      35.362 -21.818 -19.895  0.00  0.00    -0.016 C 
ATOM      6  C   UNL     1      34.744 -20.548 -20.467  0.00  0.00    -0.025 C 
ATOM      7  C   UNL     1      33.343 -20.518 -19.890  0.00  0.00    -0.081 C 
ATOM      8  H   UNL     1      32.227 -22.078 -19.170  0.00  0.00    -0.084 HD
ATOM      9  H   UNL     1      32.665 -22.264 -20.746  0.00  0.00    -0.084 HD
ENDBRANCH   2   4
BRANCH   2  14
ATOM     10  O   UNL     1      32.866 -23.681 -16.103  0.00  0.00    -0.417 OA
ATOM     11  N   UNL     1      30.838 -22.950 -16.699  0.00  0.00    -0.111 NA
ATOM     12  N   UNL     1      31.746 -22.506 -17.641  0.00  0.00    -0.104 NA
ATOM     13  C   UNL     1      31.535 -23.632 -15.821  0.00  0.00    +0.226 A 
ATOM     14  C   UNL     1      32.854 -22.966 -17.220  0.00  0.00    +0.283 A 
BRANCH  13  15
ATOM     15  C   UNL     1      31.090 -24.329 -14.609  0.00  0.00    +0.070 C 
ATOM     16  C   UNL     1      29.998 -25.422 -14.906  0.00  0.00    +0.009 C 
ATOM     17  C   UNL     1      30.436 -23.425 -13.493  0.00  0.00    +0.009 C 
ATOM     18  C   UNL     1      32.266 -25.063 -13.868  0.00  0.00    +0.009 C 
ENDBRANCH  13  15
ENDBRANCH   2  14
TORSDOF 3
ENDMDL
MODEL 7
REMARK VINA RESULT:      -7.0     10.121     12.060
REMARK  Name = 449137
REMARK  3 active torsions:
REMARK  status: ('A' for Active; 'I' for Inactive)
REMARK    1  A    between atoms: C_2  and  C_4
REMARK    2  A    between atoms: C_2  and  C_14
REMARK    3  A    between atoms: C_13  and  C_15
REMARK                            x       y       z     vdW  Elec       q    Type
REMARK                         _______ _______ _______ _____ _____    ______ ____
ROOT
ATOM      1  O   UNL     1      37.582 -22.839 -14.934  0.00  0.00    -0.289 OA
ATOM      2  C   UNL     1      36.598 -23.391 -14.447  0.00  0.00    +0.208 C 
ENDROOT
BRANCH   2   4
ATOM      3  N   UNL     1      36.084 -25.407 -13.251  0.00  0.00    +0.390 N 
ATOM      4  C   UNL     1      36.681 -24.078 -13.118  0.00  0.00    +0.007 C 
ATOM      5  C   UNL     1      38.127 -24.318 -12.696  0.00  0.00    -0.016 C 
ATOM      6  C   UNL     1      38.317 -25.829 -12.762  0.00  0.00    -0.025 C 
ATOM      7  C   UNL     1      37.165 -26.317 -13.616  0.00  0.00    -0.081 C 
ATOM      8  H   UNL     1      35.369 -25.400 -13.978  0.00  0.00    -0.084 HD
ATOM      9  H   UNL     1      35.637 -25.697 -12.381  0.00  0.00    -0.084 HD
ENDBRANCH   2   4
BRANCH   2  14
ATOM     10  O   UNL     1      34.192 -23.479 -14.458  0.00  0.00    -0.417 OA
ATOM     11  N   UNL     1      33.838 -23.332 -16.661  0.00  0.00    -0.111 NA
ATOM     12  N   UNL     1      35.203 -23.297 -16.444  0.00  0.00    -0.104 NA
ATOM     13  C   UNL     1      33.288 -23.439 -15.474  0.00  0.00    +0.226 A 
ATOM     14  C   UNL     1      35.300 -23.386 -15.180  0.00  0.00    +0.283 A 
BRANCH  13  15
ATOM     15  C   UNL     1      31.870 -23.518 -15.103  0.00  0.00    +0.070 C 
ATOM     16  C   UNL     1      30.910 -23.280 -16.327  0.00  0.00    +0.009 C 
ATOM     17  C   UNL     1      31.380 -22.479 -14.022  0.00  0.00    +0.009 C 
ATOM     18  C   UNL     1      31.482 -24.916 -14.497  0.00  0.00    +0.009 C 
ENDBRANCH  13  15
ENDBRANCH   2  14
TORSDOF 3
ENDMDL
MODEL 8
REMARK VINA RESULT:      -6.9      6.487      8.879
REMARK  Name = 449137
REMARK  3 active torsions:
REMARK  status: ('A' for Active; 'I' for Inactive)
REMARK    1  A    between atoms: C_2  and  C_4
REMARK    2  A    between atoms: C_2  and  C_14
REMARK    3  A    between atoms: C_13  and  C_15
REMARK                            x       y       z     vdW  Elec       q    Type
REMARK                         _______ _______ _______ _____ _____    ______ ____
ROOT
ATOM      1  O   UNL     1      37.142 -20.556 -17.469  0.00  0.00    -0.289 OA
ATOM      2  C   UNL     1      36.584 -21.563 -17.896  0.00  0.00    +0.208 C 
ENDROOT
BRANCH   2   4
ATOM      3  N   UNL     1      34.984 -22.217 -19.560  0.00  0.00    +0.390 N 
ATOM      4  C   UNL     1      36.357 -21.753 -19.364  0.00  0.00    +0.007 C 
ATOM      5  C   UNL     1      36.458 -20.435 -20.126  0.00  0.00    -0.016 C 
ATOM      6  C   UNL     1      35.041 -20.140 -20.604  0.00  0.00    -0.025 C 
ATOM      7  C   UNL     1      34.162 -21.025 -19.744  0.00  0.00    -0.081 C 
ATOM      8  H   UNL     1      34.669 -22.739 -18.743  0.00  0.00    -0.084 HD
ATOM      9  H   UNL     1      34.917 -22.837 -20.368  0.00  0.00    -0.084 HD
ENDBRANCH   2   4
BRANCH   2  14
ATOM     10  O   UNL     1      37.044 -23.247 -16.237  0.00  0.00    -0.417 OA
ATOM     11  N   UNL     1      34.955 -23.934 -15.835  0.00  0.00    -0.111 NA
ATOM     12  N   UNL     1      34.899 -22.937 -16.790  0.00  0.00    -0.104 NA
ATOM     13  C   UNL     1      36.225 -24.082 -15.542  0.00  0.00    +0.226 A 
ATOM     14  C   UNL     1      36.119 -22.617 -16.949  0.00  0.00    +0.283 A 
BRANCH  13  15
ATOM     15  C   UNL     1      36.867 -24.999 -14.592  0.00  0.00    +0.070 C 
ATOM     16  C   UNL     1      36.221 -24.934 -13.159  0.00  0.00    +0.009 C 
ATOM     17  C   UNL     1      38.405 -24.760 -14.333  0.00  0.00    +0.009 C 
ATOM     18  C   UNL     1      36.783 -26.500 -15.052  0.00  0.00    +0.009 C 
ENDBRANCH  13  15
ENDBRANCH   2  14
TORSDOF 3
ENDMDL
MODEL 9
REMARK VINA RESULT:      -6.9      2.019      3.373
REMARK  Name = 449137
REMARK  3 active torsions:
REMARK  status: ('A' for Active; 'I' for Inactive)
REMARK    1  A    between atoms: C_2  and  C_4
REMARK    2  A    between atoms: C_2  and  C_14
REMARK    3  A    between atoms: C_13  and  C_15
REMARK                            x       y       z     vdW  Elec       q    Type
REMARK                         _______ _______ _______ _____ _____    ______ ____
ROOT
ATOM      1  O   UNL     1      34.132 -13.009 -23.994  0.00  0.00    -0.289 OA
ATOM      2  C   UNL     1      33.460 -13.994 -23.700  0.00  0.00    +0.208 C 
ENDROOT
BRANCH   2   4
ATOM      3  N   UNL     1      32.305 -14.805 -21.759  0.00  0.00    +0.390 N 
ATOM      4  C   UNL     1      32.219 -13.860 -22.872  0.00  0.00    +0.007 C 
ATOM      5  C   UNL     1      32.114 -12.479 -22.232  0.00  0.00    -0.016 C 
ATOM      6  C   UNL     1      32.306 -12.716 -20.738  0.00  0.00    -0.025 C 
ATOM      7  C   UNL     1      32.935 -14.092 -20.653  0.00  0.00    -0.081 C 
ATOM      8  H   UNL     1      32.870 -15.611 -22.026  0.00  0.00    -0.084 HD
ATOM      9  H   UNL     1      31.381 -15.148 -21.496  0.00  0.00    -0.084 HD
ENDBRANCH   2   4
BRANCH   2  14
ATOM     10  O   UNL     1      34.232 -16.228 -23.239  0.00  0.00    -0.417 OA
ATOM     11  N   UNL     1      34.349 -17.006 -25.332  0.00  0.00    -0.111 NA
ATOM     12  N   UNL     1      33.910 -15.696 -25.387  0.00  0.00    -0.104 NA
ATOM     13  C   UNL     1      34.524 -17.274 -24.059  0.00  0.00    +0.226 A 
ATOM     14  C   UNL     1      33.877 -15.347 -24.165  0.00  0.00    +0.283 A 
BRANCH  13  15
ATOM     15  C   UNL     1      34.978 -18.512 -23.417  0.00  0.00    +0.070 C 
ATOM     16  C   UNL     1      35.069 -19.718 -24.424  0.00  0.00    +0.009 C 
ATOM     17  C   UNL     1      34.071 -19.056 -22.246  0.00  0.00    +0.009 C 
ATOM     18  C   UNL     1      36.402 -18.367 -22.765  0.00  0.00    +0.009 C 
ENDBRANCH  13  15
ENDBRANCH   2  14
TORSDOF 3
ENDMDL
