MODEL 1
REMARK VINA RESULT:     -11.6      0.000      0.000
REMARK  Name = 5326866
REMARK  5 active torsions:
REMARK  status: ('A' for Active; 'I' for Inactive)
REMARK    1  A    between atoms: N_5  and  C_14
REMARK    2  A    between atoms: C_6  and  C_28
REMARK    3  A    between atoms: C_15  and  C_20
REMARK    4  A    between atoms: C_20  and  O_21
REMARK    5  A    between atoms: O_21  and  C_23
REMARK                            x       y       z     vdW  Elec       q    Type
REMARK                         _______ _______ _______ _____ _____    ______ ____
ROOT
ATOM      1  O   UNL     1      32.521 -13.674 -22.814  0.00  0.00    -0.252 OA
ATOM      2  N   UNL     1      31.543  -9.601 -22.354  0.00  0.00    -0.239 N 
ATOM      3  N   UNL     1      31.907 -10.883 -22.535  0.00  0.00    -0.166 NA
ATOM      4  N   UNL     1      33.750 -11.878 -23.681  0.00  0.00    -0.252 N 
ATOM      5  N   UNL     1      34.471 -14.038 -24.051  0.00  0.00    -0.268 N 
ATOM      6  C   UNL     1      32.398  -8.777 -22.941  0.00  0.00    +0.045 C 
ATOM      7  C   UNL     1      33.371  -9.445 -23.540  0.00  0.00    +0.048 C 
ATOM      8  C   UNL     1      33.024 -10.781 -23.261  0.00  0.00    +0.154 C 
ATOM      9  C   UNL     1      33.479 -13.247 -23.448  0.00  0.00    +0.309 C 
ATOM     10  H   UNL     1      30.746  -9.314 -21.852  0.00  0.00    +0.174 HD
ATOM     11  H   UNL     1      34.558 -11.682 -24.209  0.00  0.00    +0.158 HD
ATOM     12  H   UNL     1      35.182 -13.551 -24.527  0.00  0.00    +0.156 HD
ENDROOT
BRANCH   5  14
ATOM     13 CL   UNL     1      34.903 -19.933 -24.118  0.00  0.00    -0.082 Cl
ATOM     14  C   UNL     1      34.576 -15.449 -24.057  0.00  0.00    +0.051 C 
ATOM     15  C   UNL     1      34.971 -17.505 -22.884  0.00  0.00    +0.033 C 
ATOM     16  C   UNL     1      34.867 -16.113 -22.877  0.00  0.00    +0.015 C 
ATOM     17  C   UNL     1      34.387 -16.137 -25.244  0.00  0.00    +0.016 C 
ATOM     18  C   UNL     1      34.783 -18.212 -24.071  0.00  0.00    +0.057 C 
ATOM     19  C   UNL     1      34.491 -17.528 -25.251  0.00  0.00    +0.012 C 
BRANCH  15  20
ATOM     20  C   UNL     1      35.284 -18.199 -21.598  0.00  0.00    +0.233 C 
BRANCH  20  21
ATOM     21  O   UNL     1      34.087 -18.733 -21.049  0.00  0.00    -0.469 OA
BRANCH  21  23
ATOM     22  N   UNL     1      33.056 -21.851 -19.468  0.00  0.00    -0.239 NA
ATOM     23  C   UNL     1      34.175 -19.966 -20.457  0.00  0.00    +0.158 C 
ATOM     24  C   UNL     1      35.408 -20.557 -20.248  0.00  0.00    +0.040 C 
ATOM     25  C   UNL     1      33.039 -20.635 -20.059  0.00  0.00    +0.136 C 
ATOM     26  C   UNL     1      35.467 -21.807 -19.643  0.00  0.00    +0.024 C 
ATOM     27  C   UNL     1      34.273 -22.407 -19.276  0.00  0.00    +0.099 C 
ENDBRANCH  21  23
ENDBRANCH  20  21
ENDBRANCH  15  20
ENDBRANCH   5  14
BRANCH   6  28
ATOM     28  C   UNL     1      32.162  -7.249 -22.856  0.00  0.00    +0.033 C 
ATOM     29  C   UNL     1      33.203  -6.507 -23.720  0.00  0.00    +0.006 C 
ATOM     30  C   UNL     1      32.285  -6.781 -21.389  0.00  0.00    +0.006 C 
ATOM     31  C   UNL     1      30.765  -6.818 -23.355  0.00  0.00    +0.006 C 
ENDBRANCH   6  28
TORSDOF 5
ENDMDL
MODEL 2
REMARK VINA RESULT:     -10.8      3.150     11.205
REMARK  Name = 5326866
REMARK  5 active torsions:
REMARK  status: ('A' for Active; 'I' for Inactive)
REMARK    1  A    between atoms: N_5  and  C_14
REMARK    2  A    between atoms: C_6  and  C_28
REMARK    3  A    between atoms: C_15  and  C_20
REMARK    4  A    between atoms: C_20  and  O_21
REMARK    5  A    between atoms: O_21  and  C_23
REMARK                            x       y       z     vdW  Elec       q    Type
REMARK                         _______ _______ _______ _____ _____    ______ ____
ROOT
ATOM      1  O   UNL     1      34.372 -20.872 -19.972  0.00  0.00    -0.252 OA
ATOM      2  N   UNL     1      35.152 -23.304 -16.620  0.00  0.00    -0.239 N 
ATOM      3  N   UNL     1      34.963 -22.504 -17.684  0.00  0.00    -0.166 NA
ATOM      4  N   UNL     1      36.385 -20.925 -18.772  0.00  0.00    -0.252 N 
ATOM      5  N   UNL     1      36.173 -19.514 -20.587  0.00  0.00    -0.268 N 
ATOM      6  C   UNL     1      36.368 -23.148 -16.118  0.00  0.00    +0.045 C 
ATOM      7  C   UNL     1      37.057 -22.250 -16.804  0.00  0.00    +0.048 C 
ATOM      8  C   UNL     1      36.129 -21.862 -17.792  0.00  0.00    +0.154 C 
ATOM      9  C   UNL     1      35.520 -20.476 -19.799  0.00  0.00    +0.309 C 
ATOM     10  H   UNL     1      34.475 -23.923 -16.261  0.00  0.00    +0.174 HD
ATOM     11  H   UNL     1      37.281 -20.517 -18.756  0.00  0.00    +0.158 HD
ATOM     12  H   UNL     1      37.098 -19.298 -20.326  0.00  0.00    +0.156 HD
ENDROOT
BRANCH   5  14
ATOM     13 CL   UNL     1      34.058 -16.640 -25.299  0.00  0.00    -0.082 Cl
ATOM     14  C   UNL     1      35.667 -18.818 -21.709  0.00  0.00    +0.051 C 
ATOM     15  C   UNL     1      34.841 -16.792 -22.693  0.00  0.00    +0.033 C 
ATOM     16  C   UNL     1      35.341 -17.478 -21.586  0.00  0.00    +0.015 C 
ATOM     17  C   UNL     1      35.506 -19.492 -22.909  0.00  0.00    +0.016 C 
ATOM     18  C   UNL     1      34.673 -17.456 -23.908  0.00  0.00    +0.057 C 
ATOM     19  C   UNL     1      35.006 -18.807 -24.015  0.00  0.00    +0.012 C 
BRANCH  15  20
ATOM     20  C   UNL     1      34.497 -15.345 -22.536  0.00  0.00    +0.233 C 
BRANCH  20  21
ATOM     21  O   UNL     1      33.088 -15.209 -22.408  0.00  0.00    -0.469 OA
BRANCH  21  23
ATOM     22  N   UNL     1      31.893 -11.769 -22.554  0.00  0.00    -0.239 NA
ATOM     23  C   UNL     1      32.621 -13.991 -21.990  0.00  0.00    +0.158 C 
ATOM     24  C   UNL     1      32.412 -13.744 -20.645  0.00  0.00    +0.040 C 
ATOM     25  C   UNL     1      32.354 -12.992 -22.900  0.00  0.00    +0.136 C 
ATOM     26  C   UNL     1      31.939 -12.498 -20.249  0.00  0.00    +0.024 C 
ATOM     27  C   UNL     1      31.697 -11.553 -21.234  0.00  0.00    +0.099 C 
ENDBRANCH  21  23
ENDBRANCH  20  21
ENDBRANCH  15  20
ENDBRANCH   5  14
BRANCH   6  28
ATOM     28  C   UNL     1      36.792 -23.978 -14.882  0.00  0.00    +0.033 C 
ATOM     29  C   UNL     1      38.293 -24.325 -14.972  0.00  0.00    +0.006 C 
ATOM     30  C   UNL     1      35.967 -25.282 -14.817  0.00  0.00    +0.006 C 
ATOM     31  C   UNL     1      36.575 -23.236 -13.544  0.00  0.00    +0.006 C 
ENDBRANCH   6  28
TORSDOF 5
ENDMDL
MODEL 3
REMARK VINA RESULT:     -10.6      2.999     11.256
REMARK  Name = 5326866
REMARK  5 active torsions:
REMARK  status: ('A' for Active; 'I' for Inactive)
REMARK    1  A    between atoms: N_5  and  C_14
REMARK    2  A    between atoms: C_6  and  C_28
REMARK    3  A    between atoms: C_15  and  C_20
REMARK    4  A    between atoms: C_20  and  O_21
REMARK    5  A    between atoms: O_21  and  C_23
REMARK                            x       y       z     vdW  Elec       q    Type
REMARK                         _______ _______ _______ _____ _____    ______ ____
ROOT
ATOM      1  O   UNL     1      34.375 -20.916 -20.016  0.00  0.00    -0.252 OA
ATOM      2  N   UNL     1      35.194 -23.267 -16.616  0.00  0.00    -0.239 N 
ATOM      3  N   UNL     1      34.993 -22.492 -17.696  0.00  0.00    -0.166 NA
ATOM      4  N   UNL     1      36.392 -20.919 -18.822  0.00  0.00    -0.252 N 
ATOM      5  N   UNL     1      36.158 -19.550 -20.665  0.00  0.00    -0.268 N 
ATOM      6  C   UNL     1      36.410 -23.086 -16.121  0.00  0.00    +0.045 C 
ATOM      7  C   UNL     1      37.085 -22.194 -16.828  0.00  0.00    +0.048 C 
ATOM      8  C   UNL     1      36.151 -21.839 -17.821  0.00  0.00    +0.154 C 
ATOM      9  C   UNL     1      35.519 -20.503 -19.855  0.00  0.00    +0.309 C 
ATOM     10  H   UNL     1      34.526 -23.887 -16.242  0.00  0.00    +0.174 HD
ATOM     11  H   UNL     1      37.283 -20.501 -18.817  0.00  0.00    +0.158 HD
ATOM     12  H   UNL     1      37.081 -19.317 -20.411  0.00  0.00    +0.156 HD
ENDROOT
BRANCH   5  14
ATOM     13 CL   UNL     1      33.989 -16.802 -25.428  0.00  0.00    -0.082 Cl
ATOM     14  C   UNL     1      35.641 -18.884 -21.800  0.00  0.00    +0.051 C 
ATOM     15  C   UNL     1      34.973 -16.851 -22.887  0.00  0.00    +0.033 C 
ATOM     16  C   UNL     1      35.485 -17.508 -21.767  0.00  0.00    +0.015 C 
ATOM     17  C   UNL     1      35.298 -19.622 -22.921  0.00  0.00    +0.016 C 
ATOM     18  C   UNL     1      34.624 -17.580 -24.024  0.00  0.00    +0.057 C 
ATOM     19  C   UNL     1      34.787 -18.966 -24.040  0.00  0.00    +0.012 C 
BRANCH  15  20
ATOM     20  C   UNL     1      34.815 -15.366 -22.828  0.00  0.00    +0.233 C 
BRANCH  20  21
ATOM     21  O   UNL     1      33.467 -15.050 -22.509  0.00  0.00    -0.469 OA
BRANCH  21  23
ATOM     22  N   UNL     1      31.724 -11.917 -21.849  0.00  0.00    -0.239 NA
ATOM     23  C   UNL     1      33.098 -13.735 -22.620  0.00  0.00    +0.158 C 
ATOM     24  C   UNL     1      33.686 -12.920 -23.570  0.00  0.00    +0.040 C 
ATOM     25  C   UNL     1      32.134 -13.205 -21.791  0.00  0.00    +0.136 C 
ATOM     26  C   UNL     1      33.291 -11.590 -23.661  0.00  0.00    +0.024 C 
ATOM     27  C   UNL     1      32.315 -11.141 -22.785  0.00  0.00    +0.099 C 
ENDBRANCH  21  23
ENDBRANCH  20  21
ENDBRANCH  15  20
ENDBRANCH   5  14
BRANCH   6  28
ATOM     28  C   UNL     1      36.847 -23.884 -14.869  0.00  0.00    +0.033 C 
ATOM     29  C   UNL     1      38.306 -24.360 -15.033  0.00  0.00    +0.006 C 
ATOM     30  C   UNL     1      35.926 -25.110 -14.680  0.00  0.00    +0.006 C 
ATOM     31  C   UNL     1      36.780 -23.060 -13.565  0.00  0.00    +0.006 C 
ENDBRANCH   6  28
TORSDOF 5
ENDMDL
MODEL 4
REMARK VINA RESULT:     -10.0      7.020     10.694
REMARK  Name = 5326866
REMARK  5 active torsions:
REMARK  status: ('A' for Active; 'I' for Inactive)
REMARK    1  A    between atoms: N_5  and  C_14
REMARK    2  A    between atoms: C_6  and  C_28
REMARK    3  A    between atoms: C_15  and  C_20
REMARK    4  A    between atoms: C_20  and  O_21
REMARK    5  A    between atoms: O_21  and  C_23
REMARK                            x       y       z     vdW  Elec       q    Type
REMARK                         _______ _______ _______ _____ _____    ______ ____
ROOT
ATOM      1  O   UNL     1      35.004 -22.647 -17.674  0.00  0.00    -0.252 OA
ATOM      2  N   UNL     1      34.238 -20.204 -21.022  0.00  0.00    -0.239 N 
ATOM      3  N   UNL     1      34.542 -20.957 -19.950  0.00  0.00    -0.166 NA
ATOM      4  N   UNL     1      36.516 -21.125 -18.617  0.00  0.00    -0.252 N 
ATOM      5  N   UNL     1      37.143 -22.364 -16.774  0.00  0.00    -0.268 N 
ATOM      6  C   UNL     1      35.257 -19.428 -21.361  0.00  0.00    +0.045 C 
ATOM      7  C   UNL     1      36.288 -19.612 -20.551  0.00  0.00    +0.048 C 
ATOM      8  C   UNL     1      35.795 -20.592 -19.667  0.00  0.00    +0.154 C 
ATOM      9  C   UNL     1      36.104 -22.106 -17.684  0.00  0.00    +0.309 C 
ATOM     10  H   UNL     1      33.373 -20.227 -21.491  0.00  0.00    +0.174 HD
ATOM     11  H   UNL     1      37.430 -20.778 -18.503  0.00  0.00    +0.158 HD
ATOM     12  H   UNL     1      37.972 -21.850 -16.909  0.00  0.00    +0.156 HD
ENDROOT
BRANCH   5  14
ATOM     13 CL   UNL     1      37.195 -26.162 -12.245  0.00  0.00    -0.082 Cl
ATOM     14  C   UNL     1      37.146 -23.272 -15.690  0.00  0.00    +0.051 C 
ATOM     15  C   UNL     1      35.980 -24.378 -13.907  0.00  0.00    +0.033 C 
ATOM     16  C   UNL     1      35.976 -23.483 -14.978  0.00  0.00    +0.015 C 
ATOM     17  C   UNL     1      38.320 -23.929 -15.359  0.00  0.00    +0.016 C 
ATOM     18  C   UNL     1      37.154 -25.048 -13.563  0.00  0.00    +0.057 C 
ATOM     19  C   UNL     1      38.323 -24.823 -14.289  0.00  0.00    +0.012 C 
BRANCH  15  20
ATOM     20  C   UNL     1      34.705 -24.589 -13.156  0.00  0.00    +0.233 C 
BRANCH  20  21
ATOM     21  O   UNL     1      33.796 -23.544 -13.471  0.00  0.00    -0.469 OA
BRANCH  21  23
ATOM     22  N   UNL     1      30.819 -25.445 -14.370  0.00  0.00    -0.239 NA
ATOM     23  C   UNL     1      32.647 -23.901 -14.127  0.00  0.00    +0.158 C 
ATOM     24  C   UNL     1      32.165 -23.129 -15.168  0.00  0.00    +0.040 C 
ATOM     25  C   UNL     1      31.956 -25.036 -13.763  0.00  0.00    +0.136 C 
ATOM     26  C   UNL     1      30.998 -23.517 -15.817  0.00  0.00    +0.024 C 
ATOM     27  C   UNL     1      30.368 -24.672 -15.384  0.00  0.00    +0.099 C 
ENDBRANCH  21  23
ENDBRANCH  20  21
ENDBRANCH  15  20
ENDBRANCH   5  14
BRANCH   6  28
ATOM     28  C   UNL     1      35.117 -18.479 -22.576  0.00  0.00    +0.033 C 
ATOM     29  C   UNL     1      36.508 -17.959 -22.999  0.00  0.00    +0.006 C 
ATOM     30  C   UNL     1      34.214 -17.283 -22.205  0.00  0.00    +0.006 C 
ATOM     31  C   UNL     1      34.489 -19.157 -23.813  0.00  0.00    +0.006 C 
ENDBRANCH   6  28
TORSDOF 5
ENDMDL
MODEL 5
REMARK VINA RESULT:      -9.9      3.073      4.971
REMARK  Name = 5326866
REMARK  5 active torsions:
REMARK  status: ('A' for Active; 'I' for Inactive)
REMARK    1  A    between atoms: N_5  and  C_14
REMARK    2  A    between atoms: C_6  and  C_28
REMARK    3  A    between atoms: C_15  and  C_20
REMARK    4  A    between atoms: C_20  and  O_21
REMARK    5  A    between atoms: O_21  and  C_23
REMARK                            x       y       z     vdW  Elec       q    Type
REMARK                         _______ _______ _______ _____ _____    ______ ____
ROOT
ATOM      1  O   UNL     1      32.974 -16.536 -20.761  0.00  0.00    -0.252 OA
ATOM      2  N   UNL     1      32.885 -12.734 -22.577  0.00  0.00    -0.239 N 
ATOM      3  N   UNL     1      32.955 -13.966 -22.044  0.00  0.00    -0.166 NA
ATOM      4  N   UNL     1      34.165 -15.922 -22.684  0.00  0.00    -0.252 N 
ATOM      5  N   UNL     1      34.364 -18.065 -21.853  0.00  0.00    -0.268 N 
ATOM      6  C   UNL     1      33.647 -12.639 -23.657  0.00  0.00    +0.045 C 
ATOM      7  C   UNL     1      34.263 -13.783 -23.908  0.00  0.00    +0.048 C 
ATOM      8  C   UNL     1      33.798 -14.603 -22.861  0.00  0.00    +0.154 C 
ATOM      9  C   UNL     1      33.752 -16.815 -21.667  0.00  0.00    +0.309 C 
ATOM     10  H   UNL     1      32.339 -11.999 -22.213  0.00  0.00    +0.174 HD
ATOM     11  H   UNL     1      34.795 -16.286 -23.347  0.00  0.00    +0.158 HD
ATOM     12  H   UNL     1      34.967 -18.140 -22.628  0.00  0.00    +0.156 HD
ENDROOT
BRANCH   5  14
ATOM     13 CL   UNL     1      33.730 -22.937 -18.566  0.00  0.00    -0.082 Cl
ATOM     14  C   UNL     1      34.222 -19.231 -21.064  0.00  0.00    +0.051 C 
ATOM     15  C   UNL     1      35.209 -20.977 -19.747  0.00  0.00    +0.033 C 
ATOM     16  C   UNL     1      35.350 -19.826 -20.524  0.00  0.00    +0.015 C 
ATOM     17  C   UNL     1      32.957 -19.755 -20.851  0.00  0.00    +0.016 C 
ATOM     18  C   UNL     1      33.942 -21.516 -19.522  0.00  0.00    +0.057 C 
ATOM     19  C   UNL     1      32.817 -20.904 -20.075  0.00  0.00    +0.012 C 
BRANCH  15  20
ATOM     20  C   UNL     1      36.441 -21.601 -19.174  0.00  0.00    +0.233 C 
BRANCH  20  21
ATOM     21  O   UNL     1      36.663 -21.086 -17.868  0.00  0.00    -0.469 OA
BRANCH  21  23
ATOM     22  N   UNL     1      38.148 -23.353 -15.431  0.00  0.00    -0.239 NA
ATOM     23  C   UNL     1      36.757 -22.000 -16.852  0.00  0.00    +0.158 C 
ATOM     24  C   UNL     1      35.616 -22.485 -16.238  0.00  0.00    +0.040 C 
ATOM     25  C   UNL     1      37.986 -22.452 -16.426  0.00  0.00    +0.136 C 
ATOM     26  C   UNL     1      35.741 -23.413 -15.210  0.00  0.00    +0.024 C 
ATOM     27  C   UNL     1      37.018 -23.811 -14.847  0.00  0.00    +0.099 C 
ENDBRANCH  21  23
ENDBRANCH  20  21
ENDBRANCH  15  20
ENDBRANCH   5  14
BRANCH   6  28
ATOM     28  C   UNL     1      33.709 -11.298 -24.427  0.00  0.00    +0.033 C 
ATOM     29  C   UNL     1      32.579 -10.363 -23.946  0.00  0.00    +0.006 C 
ATOM     30  C   UNL     1      33.551 -11.556 -25.942  0.00  0.00    +0.006 C 
ATOM     31  C   UNL     1      35.040 -10.541 -24.232  0.00  0.00    +0.006 C 
ENDBRANCH   6  28
TORSDOF 5
ENDMDL
MODEL 6
REMARK VINA RESULT:      -9.6      3.276      5.773
REMARK  Name = 5326866
REMARK  5 active torsions:
REMARK  status: ('A' for Active; 'I' for Inactive)
REMARK    1  A    between atoms: N_5  and  C_14
REMARK    2  A    between atoms: C_6  and  C_28
REMARK    3  A    between atoms: C_15  and  C_20
REMARK    4  A    between atoms: C_20  and  O_21
REMARK    5  A    between atoms: O_21  and  C_23
REMARK                            x       y       z     vdW  Elec       q    Type
REMARK                         _______ _______ _______ _____ _____    ______ ____
ROOT
ATOM      1  O   UNL     1      33.174  -8.819 -23.686  0.00  0.00    -0.252 OA
ATOM      2  N   UNL     1      32.926  -4.989 -25.427  0.00  0.00    -0.239 N 
ATOM      3  N   UNL     1      32.947  -6.201 -24.844  0.00  0.00    -0.166 NA
ATOM      4  N   UNL     1      31.390  -7.322 -23.423  0.00  0.00    -0.252 N 
ATOM      5  N   UNL     1      31.319  -9.378 -22.378  0.00  0.00    -0.268 N 
ATOM      6  C   UNL     1      31.814  -4.336 -25.125  0.00  0.00    +0.045 C 
ATOM      7  C   UNL     1      31.036  -5.058 -24.335  0.00  0.00    +0.048 C 
ATOM      8  C   UNL     1      31.791  -6.237 -24.178  0.00  0.00    +0.154 C 
ATOM      9  C   UNL     1      32.079  -8.540 -23.211  0.00  0.00    +0.309 C 
ATOM     10  H   UNL     1      33.643  -4.635 -26.002  0.00  0.00    +0.174 HD
ATOM     11  H   UNL     1      30.517  -7.237 -22.977  0.00  0.00    +0.158 HD
ATOM     12  H   UNL     1      30.455  -9.016 -22.074  0.00  0.00    +0.156 HD
ENDROOT
BRANCH   5  14
ATOM     13 CL   UNL     1      32.655 -14.799 -20.435  0.00  0.00    -0.082 Cl
ATOM     14  C   UNL     1      31.641 -10.678 -21.923  0.00  0.00    +0.051 C 
ATOM     15  C   UNL     1      32.308 -12.935 -22.392  0.00  0.00    +0.033 C 
ATOM     16  C   UNL     1      31.991 -11.652 -22.843  0.00  0.00    +0.015 C 
ATOM     17  C   UNL     1      31.596 -10.950 -20.565  0.00  0.00    +0.016 C 
ATOM     18  C   UNL     1      32.269 -13.224 -21.029  0.00  0.00    +0.057 C 
ATOM     19  C   UNL     1      31.913 -12.232 -20.115  0.00  0.00    +0.012 C 
BRANCH  15  20
ATOM     20  C   UNL     1      32.684 -13.969 -23.404  0.00  0.00    +0.233 C 
BRANCH  20  21
ATOM     21  O   UNL     1      34.036 -14.357 -23.198  0.00  0.00    -0.469 OA
BRANCH  21  23
ATOM     22  N   UNL     1      34.376 -17.315 -25.300  0.00  0.00    -0.239 NA
ATOM     23  C   UNL     1      34.381 -15.624 -23.590  0.00  0.00    +0.158 C 
ATOM     24  C   UNL     1      35.051 -16.468 -22.722  0.00  0.00    +0.040 C 
ATOM     25  C   UNL     1      34.066 -16.078 -24.851  0.00  0.00    +0.136 C 
ATOM     26  C   UNL     1      35.386 -17.749 -23.146  0.00  0.00    +0.024 C 
ATOM     27  C   UNL     1      35.030 -18.121 -24.433  0.00  0.00    +0.099 C 
ENDBRANCH  21  23
ENDBRANCH  20  21
ENDBRANCH  15  20
ENDBRANCH   5  14
BRANCH   6  28
ATOM     28  C   UNL     1      31.590  -2.914 -25.694  0.00  0.00    +0.033 C 
ATOM     29  C   UNL     1      31.913  -2.896 -27.203  0.00  0.00    +0.006 C 
ATOM     30  C   UNL     1      32.502  -1.906 -24.962  0.00  0.00    +0.006 C 
ATOM     31  C   UNL     1      30.138  -2.413 -25.534  0.00  0.00    +0.006 C 
ENDBRANCH   6  28
TORSDOF 5
ENDMDL
MODEL 7
REMARK VINA RESULT:      -9.2      3.066     10.849
REMARK  Name = 5326866
REMARK  5 active torsions:
REMARK  status: ('A' for Active; 'I' for Inactive)
REMARK    1  A    between atoms: N_5  and  C_14
REMARK    2  A    between atoms: C_6  and  C_28
REMARK    3  A    between atoms: C_15  and  C_20
REMARK    4  A    between atoms: C_20  and  O_21
REMARK    5  A    between atoms: O_21  and  C_23
REMARK                            x       y       z     vdW  Elec       q    Type
REMARK                         _______ _______ _______ _____ _____    ______ ____
ROOT
ATOM      1  O   UNL     1      35.319 -15.649 -21.896  0.00  0.00    -0.252 OA
ATOM      2  N   UNL     1      36.092 -19.495 -20.356  0.00  0.00    -0.239 N 
ATOM      3  N   UNL     1      35.783 -18.283 -20.850  0.00  0.00    -0.166 NA
ATOM      4  N   UNL     1      33.708 -17.307 -21.517  0.00  0.00    -0.252 N 
ATOM      5  N   UNL     1      33.062 -15.261 -22.366  0.00  0.00    -0.268 N 
ATOM      6  C   UNL     1      35.010 -20.250 -20.236  0.00  0.00    +0.045 C 
ATOM      7  C   UNL     1      33.928 -19.600 -20.635  0.00  0.00    +0.048 C 
ATOM      8  C   UNL     1      34.460 -18.354 -21.020  0.00  0.00    +0.154 C 
ATOM      9  C   UNL     1      34.153 -16.028 -21.925  0.00  0.00    +0.309 C 
ATOM     10  H   UNL     1      37.003 -19.782 -20.115  0.00  0.00    +0.174 HD
ATOM     11  H   UNL     1      32.740 -17.473 -21.596  0.00  0.00    +0.158 HD
ATOM     12  H   UNL     1      32.183 -15.702 -22.330  0.00  0.00    +0.156 HD
ENDROOT
BRANCH   5  14
ATOM     13 CL   UNL     1      33.124  -9.727 -24.441  0.00  0.00    -0.082 Cl
ATOM     14  C   UNL     1      33.071 -13.934 -22.855  0.00  0.00    +0.051 C 
ATOM     15  C   UNL     1      32.266 -11.676 -22.742  0.00  0.00    +0.033 C 
ATOM     16  C   UNL     1      32.258 -12.985 -22.257  0.00  0.00    +0.015 C 
ATOM     17  C   UNL     1      33.891 -13.611 -23.924  0.00  0.00    +0.016 C 
ATOM     18  C   UNL     1      33.087 -11.335 -23.817  0.00  0.00    +0.057 C 
ATOM     19  C   UNL     1      33.899 -12.304 -24.407  0.00  0.00    +0.012 C 
BRANCH  15  20
ATOM     20  C   UNL     1      31.381 -10.670 -22.080  0.00  0.00    +0.233 C 
BRANCH  20  21
ATOM     21  O   UNL     1      32.167  -9.835 -21.239  0.00  0.00    -0.469 OA
BRANCH  21  23
ATOM     22  N   UNL     1      32.212  -6.287 -20.406  0.00  0.00    -0.239 NA
ATOM     23  C   UNL     1      31.973  -8.484 -21.356  0.00  0.00    +0.158 C 
ATOM     24  C   UNL     1      31.369  -7.957 -22.483  0.00  0.00    +0.040 C 
ATOM     25  C   UNL     1      32.375  -7.628 -20.354  0.00  0.00    +0.136 C 
ATOM     26  C   UNL     1      31.183  -6.582 -22.574  0.00  0.00    +0.024 C 
ATOM     27  C   UNL     1      31.619  -5.798 -21.518  0.00  0.00    +0.099 C 
ENDBRANCH  21  23
ENDBRANCH  20  21
ENDBRANCH  15  20
ENDBRANCH   5  14
BRANCH   6  28
ATOM     28  C   UNL     1      35.146 -21.689 -19.684  0.00  0.00    +0.033 C 
ATOM     29  C   UNL     1      33.778 -22.185 -19.168  0.00  0.00    +0.006 C 
ATOM     30  C   UNL     1      36.169 -21.714 -18.528  0.00  0.00    +0.006 C 
ATOM     31  C   UNL     1      35.629 -22.706 -20.741  0.00  0.00    +0.006 C 
ENDBRANCH   6  28
TORSDOF 5
ENDMDL
MODEL 8
REMARK VINA RESULT:      -9.2      3.494      9.563
REMARK  Name = 5326866
REMARK  5 active torsions:
REMARK  status: ('A' for Active; 'I' for Inactive)
REMARK    1  A    between atoms: N_5  and  C_14
REMARK    2  A    between atoms: C_6  and  C_28
REMARK    3  A    between atoms: C_15  and  C_20
REMARK    4  A    between atoms: C_20  and  O_21
REMARK    5  A    between atoms: O_21  and  C_23
REMARK                            x       y       z     vdW  Elec       q    Type
REMARK                         _______ _______ _______ _____ _____    ______ ____
ROOT
ATOM      1  O   UNL     1      33.525 -12.722 -22.032  0.00  0.00    -0.252 OA
ATOM      2  N   UNL     1      33.946 -16.824 -21.165  0.00  0.00    -0.239 N 
ATOM      3  N   UNL     1      33.841 -15.526 -21.498  0.00  0.00    -0.166 NA
ATOM      4  N   UNL     1      34.527 -14.309 -23.435  0.00  0.00    -0.252 N 
ATOM      5  N   UNL     1      34.399 -12.106 -24.111  0.00  0.00    -0.268 N 
ATOM      6  C   UNL     1      34.550 -17.513 -22.122  0.00  0.00    +0.045 C 
ATOM      7  C   UNL     1      34.881 -16.731 -23.137  0.00  0.00    +0.048 C 
ATOM      8  C   UNL     1      34.414 -15.475 -22.704  0.00  0.00    +0.154 C 
ATOM      9  C   UNL     1      34.090 -13.010 -23.081  0.00  0.00    +0.309 C 
ATOM     10  H   UNL     1      33.617 -17.211 -20.322  0.00  0.00    +0.174 HD
ATOM     11  H   UNL     1      34.967 -14.392 -24.312  0.00  0.00    +0.158 HD
ATOM     12  H   UNL     1      34.855 -12.486 -24.896  0.00  0.00    +0.156 HD
ENDROOT
BRANCH   5  14
ATOM     13 CL   UNL     1      33.336  -6.296 -24.331  0.00  0.00    -0.082 Cl
ATOM     14  C   UNL     1      34.136 -10.717 -24.159  0.00  0.00    +0.051 C 
ATOM     15  C   UNL     1      32.657  -8.871 -23.757  0.00  0.00    +0.033 C 
ATOM     16  C   UNL     1      32.916 -10.242 -23.708  0.00  0.00    +0.015 C 
ATOM     17  C   UNL     1      35.104  -9.861 -24.659  0.00  0.00    +0.016 C 
ATOM     18  C   UNL     1      33.621  -7.996 -24.257  0.00  0.00    +0.057 C 
ATOM     19  C   UNL     1      34.845  -8.492 -24.708  0.00  0.00    +0.012 C 
BRANCH  15  20
ATOM     20  C   UNL     1      31.334  -8.382 -23.263  0.00  0.00    +0.233 C 
BRANCH  20  21
ATOM     21  O   UNL     1      31.462  -7.966 -21.911  0.00  0.00    -0.469 OA
BRANCH  21  23
ATOM     22  N   UNL     1      32.355  -9.681 -18.821  0.00  0.00    -0.239 NA
ATOM     23  C   UNL     1      31.544  -8.954 -20.966  0.00  0.00    +0.158 C 
ATOM     24  C   UNL     1      30.935 -10.178 -21.177  0.00  0.00    +0.040 C 
ATOM     25  C   UNL     1      32.235  -8.748 -19.792  0.00  0.00    +0.136 C 
ATOM     26  C   UNL     1      31.036 -11.164 -20.202  0.00  0.00    +0.024 C 
ATOM     27  C   UNL     1      31.751 -10.868 -19.052  0.00  0.00    +0.099 C 
ENDBRANCH  21  23
ENDBRANCH  20  21
ENDBRANCH  15  20
ENDBRANCH   5  14
BRANCH   6  28
ATOM     28  C   UNL     1      34.775 -19.034 -21.937  0.00  0.00    +0.033 C 
ATOM     29  C   UNL     1      36.045 -19.278 -21.096  0.00  0.00    +0.006 C 
ATOM     30  C   UNL     1      34.934 -19.712 -23.316  0.00  0.00    +0.006 C 
ATOM     31  C   UNL     1      33.607 -19.740 -21.215  0.00  0.00    +0.006 C 
ENDBRANCH   6  28
TORSDOF 5
ENDMDL
MODEL 9
REMARK VINA RESULT:      -9.2      7.009     10.694
REMARK  Name = 5326866
REMARK  5 active torsions:
REMARK  status: ('A' for Active; 'I' for Inactive)
REMARK    1  A    between atoms: N_5  and  C_14
REMARK    2  A    between atoms: C_6  and  C_28
REMARK    3  A    between atoms: C_15  and  C_20
REMARK    4  A    between atoms: C_20  and  O_21
REMARK    5  A    between atoms: O_21  and  C_23
REMARK                            x       y       z     vdW  Elec       q    Type
REMARK                         _______ _______ _______ _____ _____    ______ ____
ROOT
ATOM      1  O   UNL     1      33.938 -22.424 -17.889  0.00  0.00    -0.252 OA
ATOM      2  N   UNL     1      35.605 -20.277 -21.110  0.00  0.00    -0.239 N 
ATOM      3  N   UNL     1      35.015 -20.937 -20.098  0.00  0.00    -0.166 NA
ATOM      4  N   UNL     1      32.751 -21.022 -19.345  0.00  0.00    -0.252 N 
ATOM      5  N   UNL     1      31.635 -22.109 -17.643  0.00  0.00    -0.268 N 
ATOM      6  C   UNL     1      34.723 -19.553 -21.783  0.00  0.00    +0.045 C 
ATOM      7  C   UNL     1      33.509 -19.683 -21.272  0.00  0.00    +0.048 C 
ATOM      8  C   UNL     1      33.735 -20.570 -20.201  0.00  0.00    +0.154 C 
ATOM      9  C   UNL     1      32.885 -21.909 -18.250  0.00  0.00    +0.309 C 
ATOM     10  H   UNL     1      36.566 -20.326 -21.322  0.00  0.00    +0.174 HD
ATOM     11  H   UNL     1      31.842 -20.686 -19.518  0.00  0.00    +0.158 HD
ATOM     12  H   UNL     1      30.877 -21.627 -18.046  0.00  0.00    +0.156 HD
ENDROOT
BRANCH   5  14
ATOM     13 CL   UNL     1      30.320 -25.499 -12.982  0.00  0.00    -0.082 Cl
ATOM     14  C   UNL     1      31.329 -22.919 -16.524  0.00  0.00    +0.051 C 
ATOM     15  C   UNL     1      32.017 -23.994 -14.492  0.00  0.00    +0.033 C 
ATOM     16  C   UNL     1      32.319 -23.194 -15.595  0.00  0.00    +0.015 C 
ATOM     17  C   UNL     1      30.046 -23.422 -16.381  0.00  0.00    +0.016 C 
ATOM     18  C   UNL     1      30.730 -24.507 -14.334  0.00  0.00    +0.057 C 
ATOM     19  C   UNL     1      29.745 -24.220 -15.279  0.00  0.00    +0.012 C 
BRANCH  15  20
ATOM     20  C   UNL     1      33.102 -24.277 -13.503  0.00  0.00    +0.233 C 
BRANCH  20  21
ATOM     21  O   UNL     1      34.360 -23.955 -14.082  0.00  0.00    -0.469 OA
BRANCH  21  23
ATOM     22  N   UNL     1      36.745 -25.462 -11.774  0.00  0.00    -0.239 NA
ATOM     23  C   UNL     1      35.445 -24.661 -13.632  0.00  0.00    +0.158 C 
ATOM     24  C   UNL     1      36.310 -25.262 -14.529  0.00  0.00    +0.040 C 
ATOM     25  C   UNL     1      35.693 -24.782 -12.283  0.00  0.00    +0.136 C 
ATOM     26  C   UNL     1      37.404 -25.971 -14.045  0.00  0.00    +0.024 C 
ATOM     27  C   UNL     1      37.575 -26.041 -12.671  0.00  0.00    +0.099 C 
ENDBRANCH  21  23
ENDBRANCH  20  21
ENDBRANCH  15  20
ENDBRANCH   5  14
BRANCH   6  28
ATOM     28  C   UNL     1      35.197 -18.710 -22.992  0.00  0.00    +0.033 C 
ATOM     29  C   UNL     1      34.867 -19.448 -24.307  0.00  0.00    +0.006 C 
ATOM     30  C   UNL     1      36.721 -18.476 -22.903  0.00  0.00    +0.006 C 
ATOM     31  C   UNL     1      34.527 -17.321 -23.069  0.00  0.00    +0.006 C 
ENDBRANCH   6  28
TORSDOF 5
ENDMDL
