MODEL 1
REMARK VINA RESULT:     -10.4      0.000      0.000
REMARK  Name = 1498
REMARK  6 active torsions:
REMARK  status: ('A' for Active; 'I' for Inactive)
REMARK    1  A    between atoms: C_1  and  O_15
REMARK    2  A    between atoms: C_4  and  C_13
REMARK    3  A    between atoms: O_15  and  C_16
REMARK    4  A    between atoms: C_16  and  C_17
REMARK    5  A    between atoms: C_17  and  C_18
REMARK    6  A    between atoms: C_18  and  C_21
REMARK                            x       y       z     vdW  Elec       q    Type
REMARK                         _______ _______ _______ _____ _____    ______ ____
ROOT
ATOM      1  C   UNL     1      34.670 -16.088 -23.070  0.00  0.00    +0.131 C 
ATOM      2  C   UNL     1      34.719 -15.978 -21.681  0.00  0.00    +0.012 C 
ATOM      3  C   UNL     1      34.793 -17.340 -23.674  0.00  0.00    +0.012 C 
ATOM      4  C   UNL     1      35.018 -18.369 -21.500  0.00  0.00    +0.065 C 
ATOM      5  C   UNL     1      34.894 -17.118 -20.895  0.00  0.00    +0.009 C 
ATOM      6  C   UNL     1      34.968 -18.480 -22.889  0.00  0.00    +0.009 C 
ATOM      7  C   UNL     1      34.588 -14.647 -21.015  0.00  0.00    +0.034 C 
ATOM      8  C   UNL     1      34.743 -17.479 -25.160  0.00  0.00    +0.034 C 
ENDROOT
BRANCH   4  13
ATOM      9  N   UNL     1      34.222 -20.411 -20.429  0.00  0.00    -0.106 NA
ATOM     10  N   UNL     1      36.396 -19.857 -20.125  0.00  0.00    -0.086 NA
ATOM     11  N   UNL     1      34.904 -21.276 -19.666  0.00  0.00    -0.113 N 
ATOM     12  N   UNL     1      36.197 -20.988 -19.459  0.00  0.00    -0.018 NA
ATOM     13  C   UNL     1      35.199 -19.541 -20.691  0.00  0.00    +0.074 C 
ATOM     14  C   UNL     1      34.286 -22.446 -19.101  0.00  0.00    +0.163 C 
ENDBRANCH   4  13
BRANCH   1  15
ATOM     15  O   UNL     1      34.499 -14.974 -23.838  0.00  0.00    -0.476 OA
BRANCH  15  16
ATOM     16  C   UNL     1      33.158 -14.586 -24.125  0.00  0.00    +0.206 C 
BRANCH  16  17
ATOM     17  C   UNL     1      33.000 -13.102 -23.823  0.00  0.00    +0.055 C 
BRANCH  17  18
ATOM     18  C   UNL     1      33.894 -12.247 -24.722  0.00  0.00    +0.071 C 
BRANCH  18  21
ATOM     19  O   UNL     1      32.966 -10.455 -23.419  0.00  0.00    -0.358 OA
ATOM     20  N   UNL     1      33.171  -9.125 -23.071  0.00  0.00    -0.082 NA
ATOM     21  C   UNL     1      33.959 -10.821 -24.241  0.00  0.00    +0.154 C 
ATOM     22  C   UNL     1      34.826  -9.822 -24.473  0.00  0.00    +0.054 C 
ATOM     23  C   UNL     1      34.287  -8.768 -23.713  0.00  0.00    +0.101 C 
ATOM     24  C   UNL     1      34.810  -7.400 -23.570  0.00  0.00    +0.056 C 
ENDBRANCH  18  21
ENDBRANCH  17  18
ENDBRANCH  16  17
ENDBRANCH  15  16
ENDBRANCH   1  15
TORSDOF 6
ENDMDL
MODEL 2
REMARK VINA RESULT:     -10.4      0.032      1.754
REMARK  Name = 1498
REMARK  6 active torsions:
REMARK  status: ('A' for Active; 'I' for Inactive)
REMARK    1  A    between atoms: C_1  and  O_15
REMARK    2  A    between atoms: C_4  and  C_13
REMARK    3  A    between atoms: O_15  and  C_16
REMARK    4  A    between atoms: C_16  and  C_17
REMARK    5  A    between atoms: C_17  and  C_18
REMARK    6  A    between atoms: C_18  and  C_21
REMARK                            x       y       z     vdW  Elec       q    Type
REMARK                         _______ _______ _______ _____ _____    ______ ____
ROOT
ATOM      1  C   UNL     1      34.664 -16.088 -23.052  0.00  0.00    +0.131 C 
ATOM      2  C   UNL     1      34.804 -17.337 -23.656  0.00  0.00    +0.012 C 
ATOM      3  C   UNL     1      34.704 -15.978 -21.662  0.00  0.00    +0.012 C 
ATOM      4  C   UNL     1      35.023 -18.366 -21.481  0.00  0.00    +0.065 C 
ATOM      5  C   UNL     1      34.983 -18.477 -22.871  0.00  0.00    +0.009 C 
ATOM      6  C   UNL     1      34.883 -17.117 -20.877  0.00  0.00    +0.009 C 
ATOM      7  C   UNL     1      34.764 -17.475 -25.143  0.00  0.00    +0.034 C 
ATOM      8  C   UNL     1      34.556 -14.650 -20.996  0.00  0.00    +0.034 C 
ENDROOT
BRANCH   4  13
ATOM      9  N   UNL     1      34.229 -20.408 -20.410  0.00  0.00    -0.106 NA
ATOM     10  N   UNL     1      36.404 -19.855 -20.109  0.00  0.00    -0.086 NA
ATOM     11  N   UNL     1      34.913 -21.274 -19.648  0.00  0.00    -0.113 N 
ATOM     12  N   UNL     1      36.206 -20.985 -19.443  0.00  0.00    -0.018 NA
ATOM     13  C   UNL     1      35.206 -19.539 -20.673  0.00  0.00    +0.074 C 
ATOM     14  C   UNL     1      34.296 -22.444 -19.082  0.00  0.00    +0.163 C 
ENDBRANCH   4  13
BRANCH   1  15
ATOM     15  O   UNL     1      34.489 -14.974 -23.819  0.00  0.00    -0.476 OA
BRANCH  15  16
ATOM     16  C   UNL     1      33.146 -14.593 -24.110  0.00  0.00    +0.206 C 
BRANCH  16  17
ATOM     17  C   UNL     1      32.983 -13.108 -23.818  0.00  0.00    +0.055 C 
BRANCH  17  18
ATOM     18  C   UNL     1      33.903 -12.258 -24.695  0.00  0.00    +0.071 C 
BRANCH  18  21
ATOM     19  O   UNL     1      33.001 -10.485 -23.348  0.00  0.00    -0.358 OA
ATOM     20  N   UNL     1      33.197  -9.153 -23.004  0.00  0.00    -0.082 NA
ATOM     21  C   UNL     1      33.963 -10.831 -24.213  0.00  0.00    +0.154 C 
ATOM     22  C   UNL     1      34.801  -9.817 -24.479  0.00  0.00    +0.054 C 
ATOM     23  C   UNL     1      34.278  -8.775 -23.693  0.00  0.00    +0.101 C 
ATOM     24  C   UNL     1      34.782  -7.398 -23.569  0.00  0.00    +0.056 C 
ENDBRANCH  18  21
ENDBRANCH  17  18
ENDBRANCH  16  17
ENDBRANCH  15  16
ENDBRANCH   1  15
TORSDOF 6
ENDMDL
MODEL 3
REMARK VINA RESULT:     -10.2      2.056      3.136
REMARK  Name = 1498
REMARK  6 active torsions:
REMARK  status: ('A' for Active; 'I' for Inactive)
REMARK    1  A    between atoms: C_1  and  O_15
REMARK    2  A    between atoms: C_4  and  C_13
REMARK    3  A    between atoms: O_15  and  C_16
REMARK    4  A    between atoms: C_16  and  C_17
REMARK    5  A    between atoms: C_17  and  C_18
REMARK    6  A    between atoms: C_18  and  C_21
REMARK                            x       y       z     vdW  Elec       q    Type
REMARK                         _______ _______ _______ _____ _____    ______ ____
ROOT
ATOM      1  C   UNL     1      34.776 -16.282 -22.861  0.00  0.00    +0.131 C 
ATOM      2  C   UNL     1      34.693 -17.502 -23.532  0.00  0.00    +0.012 C 
ATOM      3  C   UNL     1      34.580 -16.231 -21.481  0.00  0.00    +0.012 C 
ATOM      4  C   UNL     1      34.217 -18.620 -21.444  0.00  0.00    +0.065 C 
ATOM      5  C   UNL     1      34.413 -18.671 -22.824  0.00  0.00    +0.009 C 
ATOM      6  C   UNL     1      34.299 -17.400 -20.773  0.00  0.00    +0.009 C 
ATOM      7  C   UNL     1      34.901 -17.576 -25.010  0.00  0.00    +0.034 C 
ATOM      8  C   UNL     1      34.664 -14.935 -20.744  0.00  0.00    +0.034 C 
ENDROOT
BRANCH   4  13
ATOM      9  N   UNL     1      34.830 -20.471 -19.979  0.00  0.00    -0.106 NA
ATOM     10  N   UNL     1      32.693 -20.399 -20.723  0.00  0.00    -0.086 NA
ATOM     11  N   UNL     1      34.064 -21.478 -19.539  0.00  0.00    -0.113 N 
ATOM     12  N   UNL     1      32.790 -21.477 -19.955  0.00  0.00    -0.018 NA
ATOM     13  C   UNL     1      33.927 -19.823 -20.716  0.00  0.00    +0.074 C 
ATOM     14  C   UNL     1      34.580 -22.504 -18.670  0.00  0.00    +0.163 C 
ENDBRANCH   4  13
BRANCH   1  15
ATOM     15  O   UNL     1      35.050 -15.139 -23.553  0.00  0.00    -0.476 OA
BRANCH  15  16
ATOM     16  C   UNL     1      33.978 -14.558 -24.292  0.00  0.00    +0.206 C 
BRANCH  16  17
ATOM     17  C   UNL     1      33.543 -13.274 -23.598  0.00  0.00    +0.055 C 
BRANCH  17  18
ATOM     18  C   UNL     1      32.159 -13.420 -22.963  0.00  0.00    +0.071 C 
BRANCH  18  21
ATOM     19  O   UNL     1      31.795 -11.121 -22.366  0.00  0.00    -0.358 OA
ATOM     20  N   UNL     1      31.586 -10.285 -21.275  0.00  0.00    -0.082 NA
ATOM     21  C   UNL     1      31.925 -12.372 -21.905  0.00  0.00    +0.154 C 
ATOM     22  C   UNL     1      31.817 -12.438 -20.568  0.00  0.00    +0.054 C 
ATOM     23  C   UNL     1      31.604 -11.095 -20.212  0.00  0.00    +0.101 C 
ATOM     24  C   UNL     1      31.411 -10.538 -18.864  0.00  0.00    +0.056 C 
ENDBRANCH  18  21
ENDBRANCH  17  18
ENDBRANCH  16  17
ENDBRANCH  15  16
ENDBRANCH   1  15
TORSDOF 6
ENDMDL
MODEL 4
REMARK VINA RESULT:      -9.9     10.770     13.534
REMARK  Name = 1498
REMARK  6 active torsions:
REMARK  status: ('A' for Active; 'I' for Inactive)
REMARK    1  A    between atoms: C_1  and  O_15
REMARK    2  A    between atoms: C_4  and  C_13
REMARK    3  A    between atoms: O_15  and  C_16
REMARK    4  A    between atoms: C_16  and  C_17
REMARK    5  A    between atoms: C_17  and  C_18
REMARK    6  A    between atoms: C_18  and  C_21
REMARK                            x       y       z     vdW  Elec       q    Type
REMARK                         _______ _______ _______ _____ _____    ______ ____
ROOT
ATOM      1  C   UNL     1      32.345 -23.977 -15.292  0.00  0.00    +0.131 C 
ATOM      2  C   UNL     1      31.300 -24.252 -14.411  0.00  0.00    +0.012 C 
ATOM      3  C   UNL     1      32.103 -23.247 -16.456  0.00  0.00    +0.012 C 
ATOM      4  C   UNL     1      29.769 -23.067 -15.857  0.00  0.00    +0.065 C 
ATOM      5  C   UNL     1      30.011 -23.797 -14.694  0.00  0.00    +0.009 C 
ATOM      6  C   UNL     1      30.814 -22.792 -16.738  0.00  0.00    +0.009 C 
ATOM      7  C   UNL     1      31.540 -25.032 -13.160  0.00  0.00    +0.034 C 
ATOM      8  C   UNL     1      33.209 -22.942 -17.412  0.00  0.00    +0.034 C 
ENDROOT
BRANCH   4  13
ATOM      9  N   UNL     1      28.106 -22.016 -17.299  0.00  0.00    -0.106 NA
ATOM     10  N   UNL     1      27.417 -22.721 -15.261  0.00  0.00    -0.086 NA
ATOM     11  N   UNL     1      26.808 -21.790 -17.052  0.00  0.00    -0.113 N 
ATOM     12  N   UNL     1      26.356 -22.191 -15.857  0.00  0.00    -0.018 NA
ATOM     13  C   UNL     1      28.443 -22.600 -16.148  0.00  0.00    +0.074 C 
ATOM     14  C   UNL     1      25.949 -21.151 -18.015  0.00  0.00    +0.163 C 
ENDBRANCH   4  13
BRANCH   1  15
ATOM     15  O   UNL     1      33.605 -24.422 -15.016  0.00  0.00    -0.476 OA
BRANCH  15  16
ATOM     16  C   UNL     1      34.468 -23.527 -14.318  0.00  0.00    +0.206 C 
BRANCH  16  17
ATOM     17  C   UNL     1      35.164 -24.289 -13.198  0.00  0.00    +0.055 C 
BRANCH  17  18
ATOM     18  C   UNL     1      36.450 -23.590 -12.757  0.00  0.00    +0.071 C 
BRANCH  18  21
ATOM     19  O   UNL     1      38.025 -23.576 -14.571  0.00  0.00    -0.358 OA
ATOM     20  N   UNL     1      39.146 -24.235 -15.063  0.00  0.00    -0.082 NA
ATOM     21  C   UNL     1      37.661 -24.181 -13.433  0.00  0.00    +0.154 C 
ATOM     22  C   UNL     1      38.463 -25.211 -13.121  0.00  0.00    +0.054 C 
ATOM     23  C   UNL     1      39.388 -25.209 -14.180  0.00  0.00    +0.101 C 
ATOM     24  C   UNL     1      40.524 -26.121 -14.388  0.00  0.00    +0.056 C 
ENDBRANCH  18  21
ENDBRANCH  17  18
ENDBRANCH  16  17
ENDBRANCH  15  16
ENDBRANCH   1  15
TORSDOF 6
ENDMDL
MODEL 5
REMARK VINA RESULT:      -9.8      3.929      5.998
REMARK  Name = 1498
REMARK  6 active torsions:
REMARK  status: ('A' for Active; 'I' for Inactive)
REMARK    1  A    between atoms: C_1  and  O_15
REMARK    2  A    between atoms: C_4  and  C_13
REMARK    3  A    between atoms: O_15  and  C_16
REMARK    4  A    between atoms: C_16  and  C_17
REMARK    5  A    between atoms: C_17  and  C_18
REMARK    6  A    between atoms: C_18  and  C_21
REMARK                            x       y       z     vdW  Elec       q    Type
REMARK                         _______ _______ _______ _____ _____    ______ ____
ROOT
ATOM      1  C   UNL     1      34.708 -20.647 -20.472  0.00  0.00    +0.131 C 
ATOM      2  C   UNL     1      33.333 -20.543 -20.262  0.00  0.00    +0.012 C 
ATOM      3  C   UNL     1      35.479 -21.463 -19.644  0.00  0.00    +0.012 C 
ATOM      4  C   UNL     1      33.501 -22.069 -18.396  0.00  0.00    +0.065 C 
ATOM      5  C   UNL     1      32.729 -21.254 -19.224  0.00  0.00    +0.009 C 
ATOM      6  C   UNL     1      34.875 -22.174 -18.606  0.00  0.00    +0.009 C 
ATOM      7  C   UNL     1      32.490 -19.675 -21.138  0.00  0.00    +0.034 C 
ATOM      8  C   UNL     1      36.953 -21.587 -19.852  0.00  0.00    +0.034 C 
ENDROOT
BRANCH   4  13
ATOM      9  N   UNL     1      31.558 -22.882 -17.165  0.00  0.00    -0.106 NA
ATOM     10  N   UNL     1      33.602 -23.471 -16.388  0.00  0.00    -0.086 NA
ATOM     11  N   UNL     1      31.525 -23.647 -16.066  0.00  0.00    -0.113 N 
ATOM     12  N   UNL     1      32.713 -24.020 -15.570  0.00  0.00    -0.018 NA
ATOM     13  C   UNL     1      32.880 -22.800 -17.327  0.00  0.00    +0.074 C 
ATOM     14  C   UNL     1      30.286 -24.045 -15.451  0.00  0.00    +0.163 C 
ENDBRANCH   4  13
BRANCH   1  15
ATOM     15  O   UNL     1      35.298 -19.952 -21.486  0.00  0.00    -0.476 OA
BRANCH  15  16
ATOM     16  C   UNL     1      35.780 -18.646 -21.181  0.00  0.00    +0.206 C 
BRANCH  16  17
ATOM     17  C   UNL     1      36.170 -17.950 -22.478  0.00  0.00    +0.055 C 
BRANCH  17  18
ATOM     18  C   UNL     1      35.285 -18.395 -23.643  0.00  0.00    +0.071 C 
BRANCH  18  21
ATOM     19  O   UNL     1      34.472 -17.338 -25.642  0.00  0.00    -0.358 OA
ATOM     20  N   UNL     1      33.857 -16.180 -26.104  0.00  0.00    -0.082 NA
ATOM     21  C   UNL     1      34.626 -17.218 -24.316  0.00  0.00    +0.154 C 
ATOM     22  C   UNL     1      34.154 -16.051 -23.849  0.00  0.00    +0.054 C 
ATOM     23  C   UNL     1      33.677 -15.426 -25.016  0.00  0.00    +0.101 C 
ATOM     24  C   UNL     1      33.039 -14.106 -25.135  0.00  0.00    +0.056 C 
ENDBRANCH  18  21
ENDBRANCH  17  18
ENDBRANCH  16  17
ENDBRANCH  15  16
ENDBRANCH   1  15
TORSDOF 6
ENDMDL
MODEL 6
REMARK VINA RESULT:      -9.8      3.103      4.905
REMARK  Name = 1498
REMARK  6 active torsions:
REMARK  status: ('A' for Active; 'I' for Inactive)
REMARK    1  A    between atoms: C_1  and  O_15
REMARK    2  A    between atoms: C_4  and  C_13
REMARK    3  A    between atoms: O_15  and  C_16
REMARK    4  A    between atoms: C_16  and  C_17
REMARK    5  A    between atoms: C_17  and  C_18
REMARK    6  A    between atoms: C_18  and  C_21
REMARK                            x       y       z     vdW  Elec       q    Type
REMARK                         _______ _______ _______ _____ _____    ______ ____
ROOT
ATOM      1  C   UNL     1      34.974 -19.652 -21.182  0.00  0.00    +0.131 C 
ATOM      2  C   UNL     1      36.271 -19.847 -20.708  0.00  0.00    +0.012 C 
ATOM      3  C   UNL     1      33.901 -20.296 -20.564  0.00  0.00    +0.012 C 
ATOM      4  C   UNL     1      35.424 -21.330 -18.999  0.00  0.00    +0.065 C 
ATOM      5  C   UNL     1      36.496 -20.686 -19.616  0.00  0.00    +0.009 C 
ATOM      6  C   UNL     1      34.127 -21.135 -19.473  0.00  0.00    +0.009 C 
ATOM      7  C   UNL     1      37.431 -19.166 -21.356  0.00  0.00    +0.034 C 
ATOM      8  C   UNL     1      32.505 -20.101 -21.057  0.00  0.00    +0.034 C 
ENDROOT
BRANCH   4  13
ATOM      9  N   UNL     1      36.794 -22.204 -17.180  0.00  0.00    -0.106 NA
ATOM     10  N   UNL     1      34.722 -23.080 -17.433  0.00  0.00    -0.086 NA
ATOM     11  N   UNL     1      36.489 -23.154 -16.285  0.00  0.00    -0.113 N 
ATOM     12  N   UNL     1      35.271 -23.701 -16.397  0.00  0.00    -0.018 NA
ATOM     13  C   UNL     1      35.657 -22.195 -17.876  0.00  0.00    +0.074 C 
ATOM     14  C   UNL     1      37.416 -23.563 -15.263  0.00  0.00    +0.163 C 
ENDBRANCH   4  13
BRANCH   1  15
ATOM     15  O   UNL     1      34.753 -18.832 -22.250  0.00  0.00    -0.476 OA
BRANCH  15  16
ATOM     16  C   UNL     1      35.013 -19.370 -23.544  0.00  0.00    +0.206 C 
BRANCH  16  17
ATOM     17  C   UNL     1      34.195 -18.599 -24.570  0.00  0.00    +0.055 C 
BRANCH  17  18
ATOM     18  C   UNL     1      34.947 -17.369 -25.080  0.00  0.00    +0.071 C 
BRANCH  18  21
ATOM     19  O   UNL     1      35.268 -15.744 -23.339  0.00  0.00    -0.358 OA
ATOM     20  N   UNL     1      34.724 -14.583 -22.801  0.00  0.00    -0.082 NA
ATOM     21  C   UNL     1      34.500 -16.115 -24.372  0.00  0.00    +0.154 C 
ATOM     22  C   UNL     1      33.469 -15.279 -24.570  0.00  0.00    +0.054 C 
ATOM     23  C   UNL     1      33.650 -14.325 -23.552  0.00  0.00    +0.101 C 
ATOM     24  C   UNL     1      32.818 -13.146 -23.262  0.00  0.00    +0.056 C 
ENDBRANCH  18  21
ENDBRANCH  17  18
ENDBRANCH  16  17
ENDBRANCH  15  16
ENDBRANCH   1  15
TORSDOF 6
ENDMDL
MODEL 7
REMARK VINA RESULT:      -9.7     10.729     13.720
REMARK  Name = 1498
REMARK  6 active torsions:
REMARK  status: ('A' for Active; 'I' for Inactive)
REMARK    1  A    between atoms: C_1  and  O_15
REMARK    2  A    between atoms: C_4  and  C_13
REMARK    3  A    between atoms: O_15  and  C_16
REMARK    4  A    between atoms: C_16  and  C_17
REMARK    5  A    between atoms: C_17  and  C_18
REMARK    6  A    between atoms: C_18  and  C_21
REMARK                            x       y       z     vdW  Elec       q    Type
REMARK                         _______ _______ _______ _____ _____    ______ ____
ROOT
ATOM      1  C   UNL     1      32.609 -23.842 -15.453  0.00  0.00    +0.131 C 
ATOM      2  C   UNL     1      32.268 -23.203 -16.645  0.00  0.00    +0.012 C 
ATOM      3  C   UNL     1      31.632 -24.080 -14.485  0.00  0.00    +0.012 C 
ATOM      4  C   UNL     1      29.975 -23.036 -15.901  0.00  0.00    +0.065 C 
ATOM      5  C   UNL     1      30.951 -22.799 -16.869  0.00  0.00    +0.009 C 
ATOM      6  C   UNL     1      30.315 -23.676 -14.710  0.00  0.00    +0.009 C 
ATOM      7  C   UNL     1      33.299 -22.941 -17.693  0.00  0.00    +0.034 C 
ATOM      8  C   UNL     1      31.977 -24.763 -13.203  0.00  0.00    +0.034 C 
ENDROOT
BRANCH   4  13
ATOM      9  N   UNL     1      28.220 -22.008 -17.247  0.00  0.00    -0.106 NA
ATOM     10  N   UNL     1      27.632 -22.819 -15.216  0.00  0.00    -0.086 NA
ATOM     11  N   UNL     1      26.923 -21.849 -16.950  0.00  0.00    -0.113 N 
ATOM     12  N   UNL     1      26.529 -22.315 -15.756  0.00  0.00    -0.018 NA
ATOM     13  C   UNL     1      28.621 -22.619 -16.131  0.00  0.00    +0.074 C 
ATOM     14  C   UNL     1      26.005 -21.215 -17.859  0.00  0.00    +0.163 C 
ENDBRANCH   4  13
BRANCH   1  15
ATOM     15  O   UNL     1      33.896 -24.237 -15.234  0.00  0.00    -0.476 OA
BRANCH  15  16
ATOM     16  C   UNL     1      34.861 -23.209 -15.027  0.00  0.00    +0.206 C 
BRANCH  16  17
ATOM     17  C   UNL     1      35.474 -23.381 -13.644  0.00  0.00    +0.055 C 
BRANCH  17  18
ATOM     18  C   UNL     1      35.661 -24.857 -13.292  0.00  0.00    +0.071 C 
BRANCH  18  21
ATOM     19  O   UNL     1      36.984 -26.447 -14.514  0.00  0.00    -0.358 OA
ATOM     20  N   UNL     1      38.297 -26.781 -14.824  0.00  0.00    -0.082 NA
ATOM     21  C   UNL     1      37.012 -25.362 -13.728  0.00  0.00    +0.154 C 
ATOM     22  C   UNL     1      38.263 -24.939 -13.484  0.00  0.00    +0.054 C 
ATOM     23  C   UNL     1      39.043 -25.867 -14.197  0.00  0.00    +0.101 C 
ATOM     24  C   UNL     1      40.510 -25.916 -14.308  0.00  0.00    +0.056 C 
ENDBRANCH  18  21
ENDBRANCH  17  18
ENDBRANCH  16  17
ENDBRANCH  15  16
ENDBRANCH   1  15
TORSDOF 6
ENDMDL
MODEL 8
REMARK VINA RESULT:      -9.7      4.849      7.985
REMARK  Name = 1498
REMARK  6 active torsions:
REMARK  status: ('A' for Active; 'I' for Inactive)
REMARK    1  A    between atoms: C_1  and  O_15
REMARK    2  A    between atoms: C_4  and  C_13
REMARK    3  A    between atoms: O_15  and  C_16
REMARK    4  A    between atoms: C_16  and  C_17
REMARK    5  A    between atoms: C_17  and  C_18
REMARK    6  A    between atoms: C_18  and  C_21
REMARK                            x       y       z     vdW  Elec       q    Type
REMARK                         _______ _______ _______ _____ _____    ______ ____
ROOT
ATOM      1  C   UNL     1      34.530 -22.316 -18.268  0.00  0.00    +0.131 C 
ATOM      2  C   UNL     1      35.878 -22.004 -18.094  0.00  0.00    +0.012 C 
ATOM      3  C   UNL     1      33.809 -22.900 -17.226  0.00  0.00    +0.012 C 
ATOM      4  C   UNL     1      35.785 -22.859 -15.836  0.00  0.00    +0.065 C 
ATOM      5  C   UNL     1      36.506 -22.276 -16.877  0.00  0.00    +0.009 C 
ATOM      6  C   UNL     1      34.437 -23.172 -16.010  0.00  0.00    +0.009 C 
ATOM      7  C   UNL     1      36.666 -21.378 -19.197  0.00  0.00    +0.034 C 
ATOM      8  C   UNL     1      32.365 -23.242 -17.393  0.00  0.00    +0.034 C 
ENDROOT
BRANCH   4  13
ATOM      9  N   UNL     1      35.769 -23.383 -13.453  0.00  0.00    -0.106 NA
ATOM     10  N   UNL     1      37.787 -23.181 -14.459  0.00  0.00    -0.086 NA
ATOM     11  N   UNL     1      36.810 -23.574 -12.632  0.00  0.00    -0.113 N 
ATOM     12  N   UNL     1      38.026 -23.463 -13.184  0.00  0.00    -0.018 NA
ATOM     13  C   UNL     1      36.432 -23.140 -14.585  0.00  0.00    +0.074 C 
ATOM     14  C   UNL     1      36.634 -23.878 -11.236  0.00  0.00    +0.163 C 
ENDBRANCH   4  13
BRANCH   1  15
ATOM     15  O   UNL     1      33.916 -22.050 -19.456  0.00  0.00    -0.476 OA
BRANCH  15  16
ATOM     16  C   UNL     1      33.051 -20.918 -19.498  0.00  0.00    +0.206 C 
BRANCH  16  17
ATOM     17  C   UNL     1      33.209 -20.228 -20.846  0.00  0.00    +0.055 C 
BRANCH  17  18
ATOM     18  C   UNL     1      34.639 -19.728 -21.057  0.00  0.00    +0.071 C 
BRANCH  18  21
ATOM     19  O   UNL     1      34.835 -17.427 -21.722  0.00  0.00    -0.358 OA
ATOM     20  N   UNL     1      34.881 -16.603 -22.840  0.00  0.00    -0.082 NA
ATOM     21  C   UNL     1      34.706 -18.691 -22.149  0.00  0.00    +0.154 C 
ATOM     22  C   UNL     1      34.661 -18.776 -23.488  0.00  0.00    +0.054 C 
ATOM     23  C   UNL     1      34.774 -17.431 -23.883  0.00  0.00    +0.101 C 
ATOM     24  C   UNL     1      34.787 -16.892 -25.252  0.00  0.00    +0.056 C 
ENDBRANCH  18  21
ENDBRANCH  17  18
ENDBRANCH  16  17
ENDBRANCH  15  16
ENDBRANCH   1  15
TORSDOF 6
ENDMDL
MODEL 9
REMARK VINA RESULT:      -9.6     10.167     12.970
REMARK  Name = 1498
REMARK  6 active torsions:
REMARK  status: ('A' for Active; 'I' for Inactive)
REMARK    1  A    between atoms: C_1  and  O_15
REMARK    2  A    between atoms: C_4  and  C_13
REMARK    3  A    between atoms: O_15  and  C_16
REMARK    4  A    between atoms: C_16  and  C_17
REMARK    5  A    between atoms: C_17  and  C_18
REMARK    6  A    between atoms: C_18  and  C_21
REMARK                            x       y       z     vdW  Elec       q    Type
REMARK                         _______ _______ _______ _____ _____    ______ ____
ROOT
ATOM      1  C   UNL     1      33.683 -23.462 -16.067  0.00  0.00    +0.131 C 
ATOM      2  C   UNL     1      33.085 -22.999 -17.239  0.00  0.00    +0.012 C 
ATOM      3  C   UNL     1      32.897 -23.756 -14.952  0.00  0.00    +0.012 C 
ATOM      4  C   UNL     1      30.915 -23.125 -16.182  0.00  0.00    +0.065 C 
ATOM      5  C   UNL     1      31.701 -22.830 -17.297  0.00  0.00    +0.009 C 
ATOM      6  C   UNL     1      31.513 -23.587 -15.010  0.00  0.00    +0.009 C 
ATOM      7  C   UNL     1      33.909 -22.679 -18.442  0.00  0.00    +0.034 C 
ATOM      8  C   UNL     1      33.518 -24.252 -13.688  0.00  0.00    +0.034 C 
ENDROOT
BRANCH   4  13
ATOM      9  N   UNL     1      28.892 -22.083 -17.060  0.00  0.00    -0.106 NA
ATOM     10  N   UNL     1      28.637 -23.663 -15.458  0.00  0.00    -0.086 NA
ATOM     11  N   UNL     1      27.616 -22.317 -16.721  0.00  0.00    -0.113 N 
ATOM     12  N   UNL     1      27.417 -23.245 -15.775  0.00  0.00    -0.018 NA
ATOM     13  C   UNL     1      29.491 -22.949 -16.242  0.00  0.00    +0.074 C 
ATOM     14  C   UNL     1      26.523 -21.612 -17.337  0.00  0.00    +0.163 C 
ENDBRANCH   4  13
BRANCH   1  15
ATOM     15  O   UNL     1      35.036 -23.627 -16.010  0.00  0.00    -0.476 OA
BRANCH  15  16
ATOM     16  C   UNL     1      35.802 -22.524 -15.535  0.00  0.00    +0.206 C 
BRANCH  16  17
ATOM     17  C   UNL     1      37.279 -22.812 -15.772  0.00  0.00    +0.055 C 
BRANCH  17  18
ATOM     18  C   UNL     1      37.758 -24.004 -14.943  0.00  0.00    +0.071 C 
BRANCH  18  21
ATOM     19  O   UNL     1      37.918 -22.863 -12.835  0.00  0.00    -0.358 OA
ATOM     20  N   UNL     1      37.436 -22.883 -11.531  0.00  0.00    -0.082 NA
ATOM     21  C   UNL     1      37.345 -23.875 -13.499  0.00  0.00    +0.154 C 
ATOM     22  C   UNL     1      36.503 -24.582 -12.728  0.00  0.00    +0.054 C 
ATOM     23  C   UNL     1      36.593 -23.919 -11.491  0.00  0.00    +0.101 C 
ATOM     24  C   UNL     1      35.887 -24.242 -10.241  0.00  0.00    +0.056 C 
ENDBRANCH  18  21
ENDBRANCH  17  18
ENDBRANCH  16  17
ENDBRANCH  15  16
ENDBRANCH   1  15
TORSDOF 6
ENDMDL
