MODEL 1
REMARK VINA RESULT:      -7.7      0.000      0.000
REMARK  Name = 159596
REMARK  10 active torsions:
REMARK  status: ('A' for Active; 'I' for Inactive)
REMARK    1  A    between atoms: N_2  and  C_5
REMARK    2  A    between atoms: C_3  and  C_15
REMARK    3  A    between atoms: C_5  and  C_8
REMARK    4  A    between atoms: C_5  and  C_11
REMARK    5  A    between atoms: C_15  and  C_16
REMARK    6  A    between atoms: C_15  and  C_20
REMARK    7  A    between atoms: C_16  and  C_17
REMARK    8  A    between atoms: C_17  and  C_18
REMARK    9  A    between atoms: C_20  and  N_22
REMARK   10  A    between atoms: N_22  and  O_24
REMARK                            x       y       z     vdW  Elec       q    Type
REMARK                         _______ _______ _______ _____ _____    ______ ____
ROOT
ATOM      1  O   UNL     1      33.707 -24.065 -18.526  0.00  0.00    -0.275 OA
ATOM      2  N   UNL     1      32.540 -22.551 -17.216  0.00  0.00    -0.298 N 
ATOM      3  C   UNL     1      33.397 -22.909 -18.239  0.00  0.00    +0.224 C 
ATOM      4  H   UNL     1      32.356 -21.594 -17.067  0.00  0.00    +0.150 HD
ENDROOT
BRANCH   2   5
ATOM      5  C   UNL     1      31.901 -23.524 -16.354  0.00  0.00    +0.149 C 
BRANCH   5   8
ATOM      6  O   UNL     1      30.036 -22.111 -16.885  0.00  0.00    -0.273 OA
ATOM      7  N   UNL     1      29.495 -24.233 -16.143  0.00  0.00    -0.275 N 
ATOM      8  C   UNL     1      30.400 -23.223 -16.482  0.00  0.00    +0.244 C 
ATOM      9  C   UNL     1      28.048 -24.055 -16.236  0.00  0.00    +0.115 C 
ATOM     10  C   UNL     1      29.922 -25.544 -15.669  0.00  0.00    +0.115 C 
ENDBRANCH   5   8
BRANCH   5  11
ATOM     11  C   UNL     1      32.444 -23.467 -14.892  0.00  0.00    +0.025 C 
ATOM     12  C   UNL     1      31.580 -22.489 -14.065  0.00  0.00    +0.002 C 
ATOM     13  C   UNL     1      32.414 -24.841 -14.193  0.00  0.00    +0.002 C 
ATOM     14  C   UNL     1      33.894 -22.946 -14.863  0.00  0.00    +0.002 C 
ENDBRANCH   5  11
ENDBRANCH   2   5
BRANCH   3  15
ATOM     15  C   UNL     1      33.965 -21.727 -19.026  0.00  0.00    +0.099 C 
BRANCH  15  16
ATOM     16  C   UNL     1      33.059 -21.324 -20.206  0.00  0.00    +0.011 C 
BRANCH  16  17
ATOM     17  C   UNL     1      33.050 -19.810 -20.448  0.00  0.00    +0.001 C 
BRANCH  17  18
ATOM     18  C   UNL     1      34.028 -19.422 -21.557  0.00  0.00    +0.000 C 
ATOM     19  C   UNL     1      34.617 -18.039 -21.321  0.00  0.00    +0.000 C 
ENDBRANCH  17  18
ENDBRANCH  16  17
ENDBRANCH  15  16
BRANCH  15  20
ATOM     20  C   UNL     1      35.392 -22.048 -19.492  0.00  0.00    +0.133 C 
BRANCH  20  22
ATOM     21  O   UNL     1      36.634 -22.674 -16.959  0.00  0.00    -0.263 OA
ATOM     22  N   UNL     1      36.384 -21.278 -18.790  0.00  0.00    -0.164 N 
ATOM     23  C   UNL     1      36.912 -21.661 -17.591  0.00  0.00    +0.327 C 
BRANCH  22  24
ATOM     24  O   UNL     1      36.760 -20.097 -19.447  0.00  0.00    -0.291 OA
ATOM     25  H   UNL     1      36.087 -19.415 -19.296  0.00  0.00    +0.242 HD
ENDBRANCH  22  24
ENDBRANCH  20  22
ENDBRANCH  15  20
ENDBRANCH   3  15
TORSDOF 10
ENDMDL
MODEL 2
REMARK VINA RESULT:      -7.2      3.507      6.269
REMARK  Name = 159596
REMARK  10 active torsions:
REMARK  status: ('A' for Active; 'I' for Inactive)
REMARK    1  A    between atoms: N_2  and  C_5
REMARK    2  A    between atoms: C_3  and  C_15
REMARK    3  A    between atoms: C_5  and  C_8
REMARK    4  A    between atoms: C_5  and  C_11
REMARK    5  A    between atoms: C_15  and  C_16
REMARK    6  A    between atoms: C_15  and  C_20
REMARK    7  A    between atoms: C_16  and  C_17
REMARK    8  A    between atoms: C_17  and  C_18
REMARK    9  A    between atoms: C_20  and  N_22
REMARK   10  A    between atoms: N_22  and  O_24
REMARK                            x       y       z     vdW  Elec       q    Type
REMARK                         _______ _______ _______ _____ _____    ______ ____
ROOT
ATOM      1  O   UNL     1      33.341 -24.622 -13.644  0.00  0.00    -0.275 OA
ATOM      2  N   UNL     1      35.350 -23.887 -14.535  0.00  0.00    -0.298 N 
ATOM      3  C   UNL     1      33.971 -23.940 -14.451  0.00  0.00    +0.224 C 
ATOM      4  H   UNL     1      35.760 -23.307 -15.219  0.00  0.00    +0.150 HD
ENDROOT
BRANCH   2   5
ATOM      5  C   UNL     1      36.216 -24.650 -13.661  0.00  0.00    +0.149 C 
BRANCH   5   8
ATOM      6  O   UNL     1      37.468 -22.713 -13.001  0.00  0.00    -0.273 OA
ATOM      7  N   UNL     1      36.301 -23.765 -11.306  0.00  0.00    -0.275 N 
ATOM      8  C   UNL     1      36.721 -23.627 -12.633  0.00  0.00    +0.244 C 
ATOM      9  C   UNL     1      36.714 -22.843 -10.251  0.00  0.00    +0.115 C 
ATOM     10  C   UNL     1      35.419 -24.841 -10.869  0.00  0.00    +0.115 C 
ENDBRANCH   5   8
BRANCH   5  11
ATOM     11  C   UNL     1      37.350 -25.384 -14.443  0.00  0.00    +0.025 C 
ATOM     12  C   UNL     1      38.385 -25.939 -13.440  0.00  0.00    +0.002 C 
ATOM     13  C   UNL     1      36.824 -26.562 -15.288  0.00  0.00    +0.002 C 
ATOM     14  C   UNL     1      38.089 -24.412 -15.384  0.00  0.00    +0.002 C 
ENDBRANCH   5  11
ENDBRANCH   2   5
BRANCH   3  15
ATOM     15  C   UNL     1      33.245 -23.059 -15.469  0.00  0.00    +0.099 C 
BRANCH  15  16
ATOM     16  C   UNL     1      31.751 -22.889 -15.131  0.00  0.00    +0.011 C 
BRANCH  16  17
ATOM     17  C   UNL     1      30.842 -23.184 -16.330  0.00  0.00    +0.001 C 
BRANCH  17  18
ATOM     18  C   UNL     1      29.671 -24.082 -15.927  0.00  0.00    +0.000 C 
ATOM     19  C   UNL     1      30.114 -25.176 -14.967  0.00  0.00    +0.000 C 
ENDBRANCH  17  18
ENDBRANCH  16  17
ENDBRANCH  15  16
BRANCH  15  20
ATOM     20  C   UNL     1      33.445 -23.623 -16.883  0.00  0.00    +0.133 C 
BRANCH  20  22
ATOM     21  O   UNL     1      32.704 -22.174 -19.270  0.00  0.00    -0.263 OA
ATOM     22  N   UNL     1      34.287 -22.784 -17.694  0.00  0.00    -0.164 N 
ATOM     23  C   UNL     1      33.839 -22.139 -18.810  0.00  0.00    +0.327 C 
BRANCH  22  24
ATOM     24  O   UNL     1      35.609 -22.690 -17.236  0.00  0.00    -0.291 OA
ATOM     25  H   UNL     1      36.216 -22.969 -17.939  0.00  0.00    +0.242 HD
ENDBRANCH  22  24
ENDBRANCH  20  22
ENDBRANCH  15  20
ENDBRANCH   3  15
TORSDOF 10
ENDMDL
MODEL 3
REMARK VINA RESULT:      -7.0      3.286      6.005
REMARK  Name = 159596
REMARK  10 active torsions:
REMARK  status: ('A' for Active; 'I' for Inactive)
REMARK    1  A    between atoms: N_2  and  C_5
REMARK    2  A    between atoms: C_3  and  C_15
REMARK    3  A    between atoms: C_5  and  C_8
REMARK    4  A    between atoms: C_5  and  C_11
REMARK    5  A    between atoms: C_15  and  C_16
REMARK    6  A    between atoms: C_15  and  C_20
REMARK    7  A    between atoms: C_16  and  C_17
REMARK    8  A    between atoms: C_17  and  C_18
REMARK    9  A    between atoms: C_20  and  N_22
REMARK   10  A    between atoms: N_22  and  O_24
REMARK                            x       y       z     vdW  Elec       q    Type
REMARK                         _______ _______ _______ _____ _____    ______ ____
ROOT
ATOM      1  O   UNL     1      36.793 -22.057 -16.346  0.00  0.00    -0.275 OA
ATOM      2  N   UNL     1      35.686 -23.680 -15.116  0.00  0.00    -0.298 N 
ATOM      3  C   UNL     1      35.793 -22.739 -16.122  0.00  0.00    +0.224 C 
ATOM      4  H   UNL     1      34.840 -24.175 -15.020  0.00  0.00    +0.150 HD
ENDROOT
BRANCH   2   5
ATOM      5  C   UNL     1      36.768 -23.968 -14.197  0.00  0.00    +0.149 C 
BRANCH   5   8
ATOM      6  O   UNL     1      36.830 -25.981 -15.499  0.00  0.00    -0.273 OA
ATOM      7  N   UNL     1      38.846 -25.339 -14.567  0.00  0.00    -0.275 N 
ATOM      8  C   UNL     1      37.477 -25.184 -14.809  0.00  0.00    +0.244 C 
ATOM      9  C   UNL     1      39.618 -26.454 -15.109  0.00  0.00    +0.115 C 
ATOM     10  C   UNL     1      39.611 -24.400 -13.755  0.00  0.00    +0.115 C 
ENDBRANCH   5   8
BRANCH   5  11
ATOM     11  C   UNL     1      36.262 -24.189 -12.737  0.00  0.00    +0.025 C 
ATOM     12  C   UNL     1      34.719 -24.114 -12.715  0.00  0.00    +0.002 C 
ATOM     13  C   UNL     1      36.684 -25.556 -12.162  0.00  0.00    +0.002 C 
ATOM     14  C   UNL     1      36.795 -23.089 -11.797  0.00  0.00    +0.002 C 
ENDBRANCH   5  11
ENDBRANCH   2   5
BRANCH   3  15
ATOM     15  C   UNL     1      34.534 -22.588 -16.978  0.00  0.00    +0.099 C 
BRANCH  15  16
ATOM     16  C   UNL     1      33.414 -23.552 -16.540  0.00  0.00    +0.011 C 
BRANCH  16  17
ATOM     17  C   UNL     1      32.016 -23.010 -16.862  0.00  0.00    +0.001 C 
BRANCH  17  18
ATOM     18  C   UNL     1      31.053 -23.239 -15.696  0.00  0.00    +0.000 C 
ATOM     19  C   UNL     1      31.658 -22.784 -14.377  0.00  0.00    +0.000 C 
ENDBRANCH  17  18
ENDBRANCH  16  17
ENDBRANCH  15  16
BRANCH  15  20
ATOM     20  C   UNL     1      34.887 -22.767 -18.461  0.00  0.00    +0.133 C 
BRANCH  20  22
ATOM     21  O   UNL     1      32.745 -21.601 -20.011  0.00  0.00    -0.263 OA
ATOM     22  N   UNL     1      34.903 -21.518 -19.175  0.00  0.00    -0.164 N 
ATOM     23  C   UNL     1      33.833 -21.052 -19.882  0.00  0.00    +0.327 C 
BRANCH  22  24
ATOM     24  O   UNL     1      36.118 -20.823 -19.081  0.00  0.00    -0.291 OA
ATOM     25  H   UNL     1      36.084 -20.035 -19.645  0.00  0.00    +0.242 HD
ENDBRANCH  22  24
ENDBRANCH  20  22
ENDBRANCH  15  20
ENDBRANCH   3  15
TORSDOF 10
ENDMDL
MODEL 4
REMARK VINA RESULT:      -6.8      9.191     12.119
REMARK  Name = 159596
REMARK  10 active torsions:
REMARK  status: ('A' for Active; 'I' for Inactive)
REMARK    1  A    between atoms: N_2  and  C_5
REMARK    2  A    between atoms: C_3  and  C_15
REMARK    3  A    between atoms: C_5  and  C_8
REMARK    4  A    between atoms: C_5  and  C_11
REMARK    5  A    between atoms: C_15  and  C_16
REMARK    6  A    between atoms: C_15  and  C_20
REMARK    7  A    between atoms: C_16  and  C_17
REMARK    8  A    between atoms: C_17  and  C_18
REMARK    9  A    between atoms: C_20  and  N_22
REMARK   10  A    between atoms: N_22  and  O_24
REMARK                            x       y       z     vdW  Elec       q    Type
REMARK                         _______ _______ _______ _____ _____    ______ ____
ROOT
ATOM      1  O   UNL     1      34.107 -11.294 -23.783  0.00  0.00    -0.275 OA
ATOM      2  N   UNL     1      32.729 -12.564 -22.420  0.00  0.00    -0.298 N 
ATOM      3  C   UNL     1      33.097 -11.413 -23.091  0.00  0.00    +0.224 C 
ATOM      4  H   UNL     1      31.898 -12.557 -21.890  0.00  0.00    +0.150 HD
ENDROOT
BRANCH   2   5
ATOM      5  C   UNL     1      33.514 -13.780 -22.465  0.00  0.00    +0.149 C 
BRANCH   5   8
ATOM      6  O   UNL     1      32.047 -14.119 -24.332  0.00  0.00    -0.273 OA
ATOM      7  N   UNL     1      33.954 -15.426 -24.319  0.00  0.00    -0.275 N 
ATOM      8  C   UNL     1      33.103 -14.454 -23.782  0.00  0.00    +0.244 C 
ATOM      9  C   UNL     1      33.663 -16.121 -25.569  0.00  0.00    +0.115 C 
ATOM     10  C   UNL     1      35.200 -15.822 -23.672  0.00  0.00    +0.115 C 
ENDBRANCH   5   8
BRANCH   5  11
ATOM     11  C   UNL     1      33.305 -14.668 -21.198  0.00  0.00    +0.025 C 
ATOM     12  C   UNL     1      32.512 -13.868 -20.140  0.00  0.00    +0.002 C 
ATOM     13  C   UNL     1      32.527 -15.964 -21.502  0.00  0.00    +0.002 C 
ATOM     14  C   UNL     1      34.658 -15.058 -20.570  0.00  0.00    +0.002 C 
ENDBRANCH   5  11
ENDBRANCH   2   5
BRANCH   3  15
ATOM     15  C   UNL     1      32.129 -10.243 -22.908  0.00  0.00    +0.099 C 
BRANCH  15  16
ATOM     16  C   UNL     1      32.466  -9.059 -23.835  0.00  0.00    +0.011 C 
BRANCH  16  17
ATOM     17  C   UNL     1      33.126  -7.896 -23.084  0.00  0.00    +0.001 C 
BRANCH  17  18
ATOM     18  C   UNL     1      34.553  -7.658 -23.579  0.00  0.00    +0.000 C 
ATOM     19  C   UNL     1      34.576  -6.735 -24.788  0.00  0.00    +0.000 C 
ENDBRANCH  17  18
ENDBRANCH  16  17
ENDBRANCH  15  16
BRANCH  15  20
ATOM     20  C   UNL     1      32.097  -9.817 -21.434  0.00  0.00    +0.133 C 
BRANCH  20  22
ATOM     21  O   UNL     1      31.958 -10.021 -18.554  0.00  0.00    -0.263 OA
ATOM     22  N   UNL     1      31.178 -10.605 -20.656  0.00  0.00    -0.164 N 
ATOM     23  C   UNL     1      31.194 -10.633 -19.292  0.00  0.00    +0.327 C 
BRANCH  22  24
ATOM     24  O   UNL     1      30.265 -11.341 -21.424  0.00  0.00    -0.291 OA
ATOM     25  H   UNL     1      29.473 -10.805 -21.587  0.00  0.00    +0.242 HD
ENDBRANCH  22  24
ENDBRANCH  20  22
ENDBRANCH  15  20
ENDBRANCH   3  15
TORSDOF 10
ENDMDL
MODEL 5
REMARK VINA RESULT:      -6.6     10.265     13.210
REMARK  Name = 159596
REMARK  10 active torsions:
REMARK  status: ('A' for Active; 'I' for Inactive)
REMARK    1  A    between atoms: N_2  and  C_5
REMARK    2  A    between atoms: C_3  and  C_15
REMARK    3  A    between atoms: C_5  and  C_8
REMARK    4  A    between atoms: C_5  and  C_11
REMARK    5  A    between atoms: C_15  and  C_16
REMARK    6  A    between atoms: C_15  and  C_20
REMARK    7  A    between atoms: C_16  and  C_17
REMARK    8  A    between atoms: C_17  and  C_18
REMARK    9  A    between atoms: C_20  and  N_22
REMARK   10  A    between atoms: N_22  and  O_24
REMARK                            x       y       z     vdW  Elec       q    Type
REMARK                         _______ _______ _______ _____ _____    ______ ____
ROOT
ATOM      1  O   UNL     1      33.922 -10.141 -23.411  0.00  0.00    -0.275 OA
ATOM      2  N   UNL     1      32.643 -12.060 -23.184  0.00  0.00    -0.298 N 
ATOM      3  C   UNL     1      32.861 -10.696 -23.130  0.00  0.00    +0.224 C 
ATOM      4  H   UNL     1      31.754 -12.407 -22.939  0.00  0.00    +0.150 HD
ENDROOT
BRANCH   2   5
ATOM      5  C   UNL     1      33.669 -13.000 -23.587  0.00  0.00    +0.149 C 
BRANCH   5   8
ATOM      6  O   UNL     1      32.477 -14.453 -25.078  0.00  0.00    -0.273 OA
ATOM      7  N   UNL     1      33.691 -12.768 -26.094  0.00  0.00    -0.275 N 
ATOM      8  C   UNL     1      33.228 -13.475 -24.980  0.00  0.00    +0.244 C 
ATOM      9  C   UNL     1      33.327 -13.129 -27.461  0.00  0.00    +0.115 C 
ATOM     10  C   UNL     1      34.576 -11.614 -25.980  0.00  0.00    +0.115 C 
ENDBRANCH   5   8
BRANCH   5  11
ATOM     11  C   UNL     1      33.860 -14.149 -22.549  0.00  0.00    +0.025 C 
ATOM     12  C   UNL     1      34.530 -15.356 -23.242  0.00  0.00    +0.002 C 
ATOM     13  C   UNL     1      34.743 -13.732 -21.355  0.00  0.00    +0.002 C 
ATOM     14  C   UNL     1      32.502 -14.625 -21.997  0.00  0.00    +0.002 C 
ENDBRANCH   5  11
ENDBRANCH   2   5
BRANCH   3  15
ATOM     15  C   UNL     1      31.647  -9.884 -22.677  0.00  0.00    +0.099 C 
BRANCH  15  16
ATOM     16  C   UNL     1      31.494  -8.572 -23.471  0.00  0.00    +0.011 C 
BRANCH  16  17
ATOM     17  C   UNL     1      31.426  -7.340 -22.561  0.00  0.00    +0.001 C 
BRANCH  17  18
ATOM     18  C   UNL     1      32.566  -6.366 -22.864  0.00  0.00    +0.000 C 
ATOM     19  C   UNL     1      33.334  -6.779 -24.110  0.00  0.00    +0.000 C 
ENDBRANCH  17  18
ENDBRANCH  16  17
ENDBRANCH  15  16
BRANCH  15  20
ATOM     20  C   UNL     1      31.727  -9.625 -21.166  0.00  0.00    +0.133 C 
BRANCH  20  22
ATOM     21  O   UNL     1      32.093 -10.163 -18.350  0.00  0.00    -0.263 OA
ATOM     22  N   UNL     1      31.143 -10.690 -20.396  0.00  0.00    -0.164 N 
ATOM     23  C   UNL     1      31.380 -10.860 -19.063  0.00  0.00    +0.327 C 
BRANCH  22  24
ATOM     24  O   UNL     1      30.309 -11.540 -21.137  0.00  0.00    -0.291 OA
ATOM     25  H   UNL     1      30.526 -12.463 -20.935  0.00  0.00    +0.242 HD
ENDBRANCH  22  24
ENDBRANCH  20  22
ENDBRANCH  15  20
ENDBRANCH   3  15
TORSDOF 10
ENDMDL
MODEL 6
REMARK VINA RESULT:      -6.5      3.858      6.580
REMARK  Name = 159596
REMARK  10 active torsions:
REMARK  status: ('A' for Active; 'I' for Inactive)
REMARK    1  A    between atoms: N_2  and  C_5
REMARK    2  A    between atoms: C_3  and  C_15
REMARK    3  A    between atoms: C_5  and  C_8
REMARK    4  A    between atoms: C_5  and  C_11
REMARK    5  A    between atoms: C_15  and  C_16
REMARK    6  A    between atoms: C_15  and  C_20
REMARK    7  A    between atoms: C_16  and  C_17
REMARK    8  A    between atoms: C_17  and  C_18
REMARK    9  A    between atoms: C_20  and  N_22
REMARK   10  A    between atoms: N_22  and  O_24
REMARK                            x       y       z     vdW  Elec       q    Type
REMARK                         _______ _______ _______ _____ _____    ______ ____
ROOT
ATOM      1  O   UNL     1      35.881 -26.488 -15.928  0.00  0.00    -0.275 OA
ATOM      2  N   UNL     1      35.200 -24.859 -14.427  0.00  0.00    -0.298 N 
ATOM      3  C   UNL     1      35.985 -25.918 -14.842  0.00  0.00    +0.224 C 
ATOM      4  H   UNL     1      35.364 -24.471 -13.537  0.00  0.00    +0.150 HD
ENDROOT
BRANCH   2   5
ATOM      5  C   UNL     1      34.147 -24.297 -15.247  0.00  0.00    +0.149 C 
BRANCH   5   8
ATOM      6  O   UNL     1      35.613 -22.405 -15.405  0.00  0.00    -0.273 OA
ATOM      7  N   UNL     1      34.526 -22.984 -17.362  0.00  0.00    -0.275 N 
ATOM      8  C   UNL     1      34.824 -23.145 -16.005  0.00  0.00    +0.244 C 
ATOM      9  C   UNL     1      35.120 -21.928 -18.176  0.00  0.00    +0.115 C 
ATOM     10  C   UNL     1      33.597 -23.856 -18.070  0.00  0.00    +0.115 C 
ENDBRANCH   5   8
BRANCH   5  11
ATOM     11  C   UNL     1      32.905 -23.868 -14.406  0.00  0.00    +0.025 C 
ATOM     12  C   UNL     1      33.369 -23.426 -13.000  0.00  0.00    +0.002 C 
ATOM     13  C   UNL     1      32.130 -22.697 -15.044  0.00  0.00    +0.002 C 
ATOM     14  C   UNL     1      31.928 -25.047 -14.225  0.00  0.00    +0.002 C 
ENDBRANCH   5  11
ENDBRANCH   2   5
BRANCH   3  15
ATOM     15  C   UNL     1      37.036 -26.359 -13.823  0.00  0.00    +0.099 C 
BRANCH  15  16
ATOM     16  C   UNL     1      37.305 -25.277 -12.758  0.00  0.00    +0.011 C 
BRANCH  16  17
ATOM     17  C   UNL     1      36.248 -25.272 -11.648  0.00  0.00    +0.001 C 
BRANCH  17  18
ATOM     18  C   UNL     1      36.263 -23.951 -10.877  0.00  0.00    +0.000 C 
ATOM     19  C   UNL     1      37.080 -22.893 -11.602  0.00  0.00    +0.000 C 
ENDBRANCH  17  18
ENDBRANCH  16  17
ENDBRANCH  15  16
BRANCH  15  20
ATOM     20  C   UNL     1      38.325 -26.772 -14.548  0.00  0.00    +0.133 C 
BRANCH  20  22
ATOM     21  O   UNL     1      41.164 -26.423 -14.136  0.00  0.00    -0.263 OA
ATOM     22  N   UNL     1      39.131 -25.640 -14.921  0.00  0.00    -0.164 N 
ATOM     23  C   UNL     1      40.472 -25.571 -14.681  0.00  0.00    +0.327 C 
BRANCH  22  24
ATOM     24  O   UNL     1      38.414 -24.613 -15.553  0.00  0.00    -0.291 OA
ATOM     25  H   UNL     1      37.601 -24.433 -15.056  0.00  0.00    +0.242 HD
ENDBRANCH  22  24
ENDBRANCH  20  22
ENDBRANCH  15  20
ENDBRANCH   3  15
TORSDOF 10
ENDMDL
MODEL 7
REMARK VINA RESULT:      -6.5      5.796      9.499
REMARK  Name = 159596
REMARK  10 active torsions:
REMARK  status: ('A' for Active; 'I' for Inactive)
REMARK    1  A    between atoms: N_2  and  C_5
REMARK    2  A    between atoms: C_3  and  C_15
REMARK    3  A    between atoms: C_5  and  C_8
REMARK    4  A    between atoms: C_5  and  C_11
REMARK    5  A    between atoms: C_15  and  C_16
REMARK    6  A    between atoms: C_15  and  C_20
REMARK    7  A    between atoms: C_16  and  C_17
REMARK    8  A    between atoms: C_17  and  C_18
REMARK    9  A    between atoms: C_20  and  N_22
REMARK   10  A    between atoms: N_22  and  O_24
REMARK                            x       y       z     vdW  Elec       q    Type
REMARK                         _______ _______ _______ _____ _____    ______ ____
ROOT
ATOM      1  O   UNL     1      32.870 -16.666 -21.012  0.00  0.00    -0.275 OA
ATOM      2  N   UNL     1      34.286 -16.692 -22.846  0.00  0.00    -0.298 N 
ATOM      3  C   UNL     1      33.575 -16.079 -21.832  0.00  0.00    +0.224 C 
ATOM      4  H   UNL     1      34.824 -16.132 -23.452  0.00  0.00    +0.150 HD
ENDROOT
BRANCH   2   5
ATOM      5  C   UNL     1      34.273 -18.125 -23.054  0.00  0.00    +0.149 C 
BRANCH   5   8
ATOM      6  O   UNL     1      36.550 -18.236 -22.307  0.00  0.00    -0.273 OA
ATOM      7  N   UNL     1      35.065 -19.592 -21.167  0.00  0.00    -0.275 N 
ATOM      8  C   UNL     1      35.397 -18.654 -22.150  0.00  0.00    +0.244 C 
ATOM      9  C   UNL     1      36.054 -20.152 -20.250  0.00  0.00    +0.115 C 
ATOM     10  C   UNL     1      33.706 -20.086 -20.980  0.00  0.00    +0.115 C 
ENDBRANCH   5   8
BRANCH   5  11
ATOM     11  C   UNL     1      34.428 -18.508 -24.558  0.00  0.00    +0.025 C 
ATOM     12  C   UNL     1      35.158 -17.367 -25.302  0.00  0.00    +0.002 C 
ATOM     13  C   UNL     1      35.235 -19.806 -24.763  0.00  0.00    +0.002 C 
ATOM     14  C   UNL     1      33.050 -18.690 -25.225  0.00  0.00    +0.002 C 
ENDBRANCH   5  11
ENDBRANCH   2   5
BRANCH   3  15
ATOM     15  C   UNL     1      33.724 -14.557 -21.791  0.00  0.00    +0.099 C 
BRANCH  15  16
ATOM     16  C   UNL     1      32.361 -13.839 -21.761  0.00  0.00    +0.011 C 
BRANCH  16  17
ATOM     17  C   UNL     1      32.195 -12.947 -20.525  0.00  0.00    +0.001 C 
BRANCH  17  18
ATOM     18  C   UNL     1      31.461 -11.651 -20.874  0.00  0.00    +0.000 C 
ATOM     19  C   UNL     1      31.178 -10.821 -19.631  0.00  0.00    +0.000 C 
ENDBRANCH  17  18
ENDBRANCH  16  17
ENDBRANCH  15  16
BRANCH  15  20
ATOM     20  C   UNL     1      34.587 -14.086 -22.970  0.00  0.00    +0.133 C 
BRANCH  20  22
ATOM     21  O   UNL     1      32.971 -14.971 -25.197  0.00  0.00    -0.263 OA
ATOM     22  N   UNL     1      33.849 -13.268 -23.896  0.00  0.00    -0.164 N 
ATOM     23  C   UNL     1      33.112 -13.785 -24.921  0.00  0.00    +0.327 C 
BRANCH  22  24
ATOM     24  O   UNL     1      33.957 -11.891 -23.651  0.00  0.00    -0.291 OA
ATOM     25  H   UNL     1      33.805 -11.403 -24.476  0.00  0.00    +0.242 HD
ENDBRANCH  22  24
ENDBRANCH  20  22
ENDBRANCH  15  20
ENDBRANCH   3  15
TORSDOF 10
ENDMDL
MODEL 8
REMARK VINA RESULT:      -6.5      3.571      6.575
REMARK  Name = 159596
REMARK  10 active torsions:
REMARK  status: ('A' for Active; 'I' for Inactive)
REMARK    1  A    between atoms: N_2  and  C_5
REMARK    2  A    between atoms: C_3  and  C_15
REMARK    3  A    between atoms: C_5  and  C_8
REMARK    4  A    between atoms: C_5  and  C_11
REMARK    5  A    between atoms: C_15  and  C_16
REMARK    6  A    between atoms: C_15  and  C_20
REMARK    7  A    between atoms: C_16  and  C_17
REMARK    8  A    between atoms: C_17  and  C_18
REMARK    9  A    between atoms: C_20  and  N_22
REMARK   10  A    between atoms: N_22  and  O_24
REMARK                            x       y       z     vdW  Elec       q    Type
REMARK                         _______ _______ _______ _____ _____    ______ ____
ROOT
ATOM      1  O   UNL     1      35.161 -22.286 -15.503  0.00  0.00    -0.275 OA
ATOM      2  N   UNL     1      35.199 -24.382 -14.516  0.00  0.00    -0.298 N 
ATOM      3  C   UNL     1      34.622 -23.362 -15.248  0.00  0.00    +0.224 C 
ATOM      4  H   UNL     1      34.683 -25.208 -14.367  0.00  0.00    +0.150 HD
ENDROOT
BRANCH   2   5
ATOM      5  C   UNL     1      36.532 -24.286 -13.957  0.00  0.00    +0.149 C 
BRANCH   5   8
ATOM      6  O   UNL     1      36.596 -26.606 -14.564  0.00  0.00    -0.273 OA
ATOM      7  N   UNL     1      38.608 -25.480 -14.733  0.00  0.00    -0.275 N 
ATOM      8  C   UNL     1      37.243 -25.558 -14.440  0.00  0.00    +0.244 C 
ATOM      9  C   UNL     1      39.377 -26.627 -15.207  0.00  0.00    +0.115 C 
ATOM     10  C   UNL     1      39.372 -24.246 -14.589  0.00  0.00    +0.115 C 
ENDBRANCH   5   8
BRANCH   5  11
ATOM     11  C   UNL     1      36.513 -24.111 -12.406  0.00  0.00    +0.025 C 
ATOM     12  C   UNL     1      37.206 -25.325 -11.748  0.00  0.00    +0.002 C 
ATOM     13  C   UNL     1      37.242 -22.834 -11.942  0.00  0.00    +0.002 C 
ATOM     14  C   UNL     1      35.067 -24.057 -11.875  0.00  0.00    +0.002 C 
ENDBRANCH   5  11
ENDBRANCH   2   5
BRANCH   3  15
ATOM     15  C   UNL     1      33.208 -23.667 -15.744  0.00  0.00    +0.099 C 
BRANCH  15  16
ATOM     16  C   UNL     1      32.839 -22.844 -16.994  0.00  0.00    +0.011 C 
BRANCH  16  17
ATOM     17  C   UNL     1      33.638 -23.268 -18.232  0.00  0.00    +0.001 C 
BRANCH  17  18
ATOM     18  C   UNL     1      33.925 -22.071 -19.140  0.00  0.00    +0.000 C 
ATOM     19  C   UNL     1      35.412 -21.758 -19.194  0.00  0.00    +0.000 C 
ENDBRANCH  17  18
ENDBRANCH  16  17
ENDBRANCH  15  16
BRANCH  15  20
ATOM     20  C   UNL     1      32.199 -23.452 -14.607  0.00  0.00    +0.133 C 
BRANCH  20  22
ATOM     21  O   UNL     1      29.745 -24.679 -15.514  0.00  0.00    -0.263 OA
ATOM     22  N   UNL     1      31.617 -24.686 -14.151  0.00  0.00    -0.164 N 
ATOM     23  C   UNL     1      30.447 -25.184 -14.645  0.00  0.00    +0.327 C 
BRANCH  22  24
ATOM     24  O   UNL     1      32.360 -25.332 -13.151  0.00  0.00    -0.291 OA
ATOM     25  H   UNL     1      31.761 -25.837 -12.578  0.00  0.00    +0.242 HD
ENDBRANCH  22  24
ENDBRANCH  20  22
ENDBRANCH  15  20
ENDBRANCH   3  15
TORSDOF 10
ENDMDL
MODEL 9
REMARK VINA RESULT:      -6.4      9.674     14.097
REMARK  Name = 159596
REMARK  10 active torsions:
REMARK  status: ('A' for Active; 'I' for Inactive)
REMARK    1  A    between atoms: N_2  and  C_5
REMARK    2  A    between atoms: C_3  and  C_15
REMARK    3  A    between atoms: C_5  and  C_8
REMARK    4  A    between atoms: C_5  and  C_11
REMARK    5  A    between atoms: C_15  and  C_16
REMARK    6  A    between atoms: C_15  and  C_20
REMARK    7  A    between atoms: C_16  and  C_17
REMARK    8  A    between atoms: C_17  and  C_18
REMARK    9  A    between atoms: C_20  and  N_22
REMARK   10  A    between atoms: N_22  and  O_24
REMARK                            x       y       z     vdW  Elec       q    Type
REMARK                         _______ _______ _______ _____ _____    ______ ____
ROOT
ATOM      1  O   UNL     1      30.592 -10.746 -22.513  0.00  0.00    -0.275 OA
ATOM      2  N   UNL     1      32.808 -10.085 -22.665  0.00  0.00    -0.298 N 
ATOM      3  C   UNL     1      31.790 -11.017 -22.584  0.00  0.00    +0.224 C 
ATOM      4  H   UNL     1      33.738 -10.405 -22.717  0.00  0.00    +0.150 HD
ENDROOT
BRANCH   2   5
ATOM      5  C   UNL     1      32.562  -8.658 -22.676  0.00  0.00    +0.149 C 
BRANCH   5   8
ATOM      6  O   UNL     1      34.802  -8.611 -23.534  0.00  0.00    -0.273 OA
ATOM      7  N   UNL     1      33.390  -6.975 -24.355  0.00  0.00    -0.275 N 
ATOM      8  C   UNL     1      33.684  -8.082 -23.553  0.00  0.00    +0.244 C 
ATOM      9  C   UNL     1      34.380  -6.356 -25.232  0.00  0.00    +0.115 C 
ATOM     10  C   UNL     1      32.073  -6.350 -24.379  0.00  0.00    +0.115 C 
ENDBRANCH   5   8
BRANCH   5  11
ATOM     11  C   UNL     1      32.501  -8.056 -21.237  0.00  0.00    +0.025 C 
ATOM     12  C   UNL     1      31.362  -7.015 -21.168  0.00  0.00    +0.002 C 
ATOM     13  C   UNL     1      32.240  -9.124 -20.156  0.00  0.00    +0.002 C 
ATOM     14  C   UNL     1      33.816  -7.331 -20.887  0.00  0.00    +0.002 C 
ENDBRANCH   5  11
ENDBRANCH   2   5
BRANCH   3  15
ATOM     15  C   UNL     1      32.267 -12.470 -22.584  0.00  0.00    +0.099 C 
BRANCH  15  16
ATOM     16  C   UNL     1      32.274 -13.081 -21.169  0.00  0.00    +0.011 C 
BRANCH  16  17
ATOM     17  C   UNL     1      32.534 -14.591 -21.183  0.00  0.00    +0.001 C 
BRANCH  17  18
ATOM     18  C   UNL     1      33.874 -14.928 -20.527  0.00  0.00    +0.000 C 
ATOM     19  C   UNL     1      34.595 -16.040 -21.272  0.00  0.00    +0.000 C 
ENDBRANCH  17  18
ENDBRANCH  16  17
ENDBRANCH  15  16
BRANCH  15  20
ATOM     20  C   UNL     1      33.648 -12.565 -23.248  0.00  0.00    +0.133 C 
BRANCH  20  22
ATOM     21  O   UNL     1      33.212 -15.031 -24.691  0.00  0.00    -0.263 OA
ATOM     22  N   UNL     1      33.559 -12.742 -24.673  0.00  0.00    -0.164 N 
ATOM     23  C   UNL     1      33.350 -13.955 -25.261  0.00  0.00    +0.327 C 
BRANCH  22  24
ATOM     24  O   UNL     1      33.707 -11.554 -25.405  0.00  0.00    -0.291 OA
ATOM     25  H   UNL     1      32.860 -11.082 -25.432  0.00  0.00    +0.242 HD
ENDBRANCH  22  24
ENDBRANCH  20  22
ENDBRANCH  15  20
ENDBRANCH   3  15
TORSDOF 10
ENDMDL
