MODEL 1
REMARK VINA RESULT:     -11.5      0.000      0.000
REMARK  Name = 6918331
REMARK  7 active torsions:
REMARK  status: ('A' for Active; 'I' for Inactive)
REMARK    1  A    between atoms: C_1  and  C_2
REMARK    2  A    between atoms: C_1  and  N_19
REMARK    3  A    between atoms: C_3  and  O_17
REMARK    4  A    between atoms: C_5  and  N_8
REMARK    5  A    between atoms: C_12  and  C_16
REMARK    6  A    between atoms: N_19  and  C_23
REMARK    7  A    between atoms: C_24  and  C_30
REMARK                            x       y       z     vdW  Elec       q    Type
REMARK                         _______ _______ _______ _____ _____    ______ ____
ROOT
ATOM      1  C   UNL     1      33.923 -14.160 -22.371  0.00  0.00    -0.051 C 
ENDROOT
BRANCH   1   2
ATOM      2  C   UNL     1      34.292 -15.541 -22.846  0.00  0.00    -0.008 C 
ATOM      3  C   UNL     1      34.214 -15.860 -24.195  0.00  0.00    +0.133 C 
ATOM      4  C   UNL     1      34.709 -16.481 -21.913  0.00  0.00    +0.016 C 
ATOM      5  C   UNL     1      35.055 -17.764 -22.337  0.00  0.00    +0.086 C 
ATOM      6  C   UNL     1      34.560 -17.144 -24.619  0.00  0.00    +0.038 C 
ATOM      7  C   UNL     1      34.980 -18.095 -23.690  0.00  0.00    +0.022 C 
BRANCH   5   8
ATOM      8  N   UNL     1      35.471 -18.709 -21.417  0.00  0.00    -0.188 N 
ATOM      9  N   UNL     1      36.771 -18.895 -21.127  0.00  0.00    -0.039 NA
ATOM     10  N   UNL     1      35.513 -20.297 -19.933  0.00  0.00    -0.104 NA
ATOM     11  N   UNL     1      36.788 -19.865 -20.221  0.00  0.00    -0.022 NA
ATOM     12  C   UNL     1      34.716 -19.571 -20.681  0.00  0.00    +0.260 A 
BRANCH  12  16
ATOM     13  F   UNL     1      32.640 -18.427 -20.580  0.00  0.00    -0.163 F 
ATOM     14  F   UNL     1      32.780 -20.114 -21.942  0.00  0.00    -0.163 F 
ATOM     15  F   UNL     1      32.722 -20.458 -19.790  0.00  0.00    -0.163 F 
ATOM     16  C   UNL     1      33.246 -19.639 -20.750  0.00  0.00    +0.454 C 
ENDBRANCH  12  16
ENDBRANCH   5   8
BRANCH   3  17
ATOM     17  O   UNL     1      33.806 -14.943 -25.116  0.00  0.00    -0.472 OA
ATOM     18  C   UNL     1      33.047 -15.427 -26.222  0.00  0.00    +0.252 C 
ENDBRANCH   3  17
ENDBRANCH   1   2
BRANCH   1  19
ATOM     19  N   UNL     1      32.757 -13.642 -23.068  0.00  0.00    +0.387 N 
ATOM     20  H   UNL     1      33.063 -13.078 -23.860  0.00  0.00    -0.084 HD
ATOM     21  H   UNL     1      32.192 -14.427 -23.390  0.00  0.00    -0.084 HD
BRANCH  19  23
ATOM     22  N   UNL     1      30.931 -10.580 -21.768  0.00  0.00    +0.386 N 
ATOM     23  C   UNL     1      31.948 -12.815 -22.174  0.00  0.00    -0.077 C 
ATOM     24  C   UNL     1      31.705 -11.385 -22.738  0.00  0.00    -0.058 C 
ATOM     25  C   UNL     1      32.516 -12.833 -20.748  0.00  0.00    -0.025 C 
ATOM     26  C   UNL     1      31.720 -11.905 -19.836  0.00  0.00    -0.026 C 
ATOM     27  C   UNL     1      31.569 -10.518 -20.452  0.00  0.00    -0.081 C 
ATOM     28  H   UNL     1      30.005 -10.996 -21.662  0.00  0.00    -0.084 HD
ATOM     29  H   UNL     1      30.875  -9.628 -22.131  0.00  0.00    -0.084 HD
BRANCH  24  30
ATOM     30  C   UNL     1      32.861 -10.575 -23.321  0.00  0.00    -0.044 C 
ATOM     31  C   UNL     1      33.040  -9.251 -22.933  0.00  0.00    -0.006 C 
ATOM     32  C   UNL     1      33.726 -11.167 -24.236  0.00  0.00    -0.006 C 
ATOM     33  C   UNL     1      34.095  -8.511 -23.465  0.00  0.00    -0.000 C 
ATOM     34  C   UNL     1      34.782 -10.426 -24.767  0.00  0.00    -0.000 C 
ATOM     35  C   UNL     1      34.966  -9.098 -24.383  0.00  0.00    -0.000 C 
ENDBRANCH  24  30
ENDBRANCH  19  23
ENDBRANCH   1  19
TORSDOF 7
ENDMDL
MODEL 2
REMARK VINA RESULT:     -11.2      4.653      8.962
REMARK  Name = 6918331
REMARK  7 active torsions:
REMARK  status: ('A' for Active; 'I' for Inactive)
REMARK    1  A    between atoms: C_1  and  C_2
REMARK    2  A    between atoms: C_1  and  N_19
REMARK    3  A    between atoms: C_3  and  O_17
REMARK    4  A    between atoms: C_5  and  N_8
REMARK    5  A    between atoms: C_12  and  C_16
REMARK    6  A    between atoms: N_19  and  C_23
REMARK    7  A    between atoms: C_24  and  C_30
REMARK                            x       y       z     vdW  Elec       q    Type
REMARK                         _______ _______ _______ _____ _____    ______ ____
ROOT
ATOM      1  C   UNL     1      32.937 -12.099 -23.969  0.00  0.00    -0.051 C 
ENDROOT
BRANCH   1   2
ATOM      2  C   UNL     1      33.457 -10.694 -23.810  0.00  0.00    -0.008 C 
ATOM      3  C   UNL     1      34.503 -10.241 -24.604  0.00  0.00    +0.133 C 
ATOM      4  C   UNL     1      32.873  -9.867 -22.859  0.00  0.00    +0.016 C 
ATOM      5  C   UNL     1      33.343  -8.564 -22.700  0.00  0.00    +0.086 C 
ATOM      6  C   UNL     1      34.972  -8.938 -24.443  0.00  0.00    +0.038 C 
ATOM      7  C   UNL     1      34.393  -8.099 -23.492  0.00  0.00    +0.022 C 
BRANCH   5   8
ATOM      8  N   UNL     1      32.769  -7.731 -21.757  0.00  0.00    -0.188 N 
ATOM      9  N   UNL     1      33.034  -7.854 -20.444  0.00  0.00    -0.039 NA
ATOM     10  N   UNL     1      31.598  -6.181 -20.780  0.00  0.00    -0.104 NA
ATOM     11  N   UNL     1      32.316  -6.906 -19.855  0.00  0.00    -0.022 NA
ATOM     12  C   UNL     1      31.891  -6.707 -21.947  0.00  0.00    +0.260 A 
BRANCH  12  16
ATOM     13  F   UNL     1      32.359  -5.820 -24.096  0.00  0.00    -0.163 F 
ATOM     14  F   UNL     1      30.780  -7.307 -23.956  0.00  0.00    -0.163 F 
ATOM     15  F   UNL     1      30.454  -5.299 -23.173  0.00  0.00    -0.163 F 
ATOM     16  C   UNL     1      31.384  -6.294 -23.266  0.00  0.00    +0.454 C 
ENDBRANCH  12  16
ENDBRANCH   5   8
BRANCH   3  17
ATOM     17  O   UNL     1      35.081 -11.047 -25.538  0.00  0.00    -0.472 OA
ATOM     18  C   UNL     1      35.781 -10.407 -26.603  0.00  0.00    +0.252 C 
ENDBRANCH   3  17
ENDBRANCH   1   2
BRANCH   1  19
ATOM     19  N   UNL     1      33.979 -13.089 -23.754  0.00  0.00    +0.387 N 
ATOM     20  H   UNL     1      33.860 -13.852 -24.420  0.00  0.00    -0.084 HD
ATOM     21  H   UNL     1      34.887 -12.643 -23.884  0.00  0.00    -0.084 HD
BRANCH  19  23
ATOM     22  N   UNL     1      34.601 -15.440 -20.841  0.00  0.00    +0.386 N 
ATOM     23  C   UNL     1      33.908 -13.624 -22.395  0.00  0.00    -0.077 C 
ATOM     24  C   UNL     1      34.756 -14.916 -22.216  0.00  0.00    -0.058 C 
ATOM     25  C   UNL     1      32.449 -13.769 -21.939  0.00  0.00    -0.025 C 
ATOM     26  C   UNL     1      32.375 -14.404 -20.555  0.00  0.00    -0.026 C 
ATOM     27  C   UNL     1      33.201 -15.683 -20.486  0.00  0.00    -0.081 C 
ATOM     28  H   UNL     1      34.990 -14.762 -20.186  0.00  0.00    -0.084 HD
ATOM     29  H   UNL     1      35.092 -16.333 -20.793  0.00  0.00    -0.084 HD
BRANCH  24  30
ATOM     30  C   UNL     1      34.677 -16.044 -23.242  0.00  0.00    -0.044 C 
ATOM     31  C   UNL     1      35.226 -17.287 -22.944  0.00  0.00    -0.006 C 
ATOM     32  C   UNL     1      34.058 -15.820 -24.467  0.00  0.00    -0.006 C 
ATOM     33  C   UNL     1      35.154 -18.318 -23.881  0.00  0.00    -0.000 C 
ATOM     34  C   UNL     1      33.986 -16.851 -25.404  0.00  0.00    -0.000 C 
ATOM     35  C   UNL     1      34.534 -18.100 -25.111  0.00  0.00    -0.000 C 
ENDBRANCH  24  30
ENDBRANCH  19  23
ENDBRANCH   1  19
TORSDOF 7
ENDMDL
MODEL 3
REMARK VINA RESULT:     -10.5      3.295      5.408
REMARK  Name = 6918331
REMARK  7 active torsions:
REMARK  status: ('A' for Active; 'I' for Inactive)
REMARK    1  A    between atoms: C_1  and  C_2
REMARK    2  A    between atoms: C_1  and  N_19
REMARK    3  A    between atoms: C_3  and  O_17
REMARK    4  A    between atoms: C_5  and  N_8
REMARK    5  A    between atoms: C_12  and  C_16
REMARK    6  A    between atoms: N_19  and  C_23
REMARK    7  A    between atoms: C_24  and  C_30
REMARK                            x       y       z     vdW  Elec       q    Type
REMARK                         _______ _______ _______ _____ _____    ______ ____
ROOT
ATOM      1  C   UNL     1      33.180  -9.900 -23.230  0.00  0.00    -0.051 C 
ENDROOT
BRANCH   1   2
ATOM      2  C   UNL     1      32.844 -11.351 -23.002  0.00  0.00    -0.008 C 
ATOM      3  C   UNL     1      32.174 -11.740 -21.849  0.00  0.00    +0.133 C 
ATOM      4  C   UNL     1      33.216 -12.283 -23.960  0.00  0.00    +0.016 C 
ATOM      5  C   UNL     1      32.912 -13.630 -23.764  0.00  0.00    +0.086 C 
ATOM      6  C   UNL     1      31.871 -13.088 -21.653  0.00  0.00    +0.038 C 
ATOM      7  C   UNL     1      32.240 -14.032 -22.610  0.00  0.00    +0.022 C 
BRANCH   5   8
ATOM      8  N   UNL     1      33.278 -14.568 -24.712  0.00  0.00    -0.188 N 
ATOM      9  N   UNL     1      32.867 -14.486 -25.990  0.00  0.00    -0.039 NA
ATOM     10  N   UNL     1      34.151 -16.288 -25.716  0.00  0.00    -0.104 NA
ATOM     11  N   UNL     1      33.403 -15.538 -26.595  0.00  0.00    -0.022 NA
ATOM     12  C   UNL     1      34.060 -15.672 -24.560  0.00  0.00    +0.260 A 
BRANCH  12  16
ATOM     13  F   UNL     1      35.698 -16.969 -23.435  0.00  0.00    -0.163 F 
ATOM     14  F   UNL     1      35.224 -15.021 -22.597  0.00  0.00    -0.163 F 
ATOM     15  F   UNL     1      33.787 -16.652 -22.434  0.00  0.00    -0.163 F 
ATOM     16  C   UNL     1      34.682 -16.069 -23.285  0.00  0.00    +0.454 C 
ENDBRANCH  12  16
ENDBRANCH   5   8
BRANCH   3  17
ATOM     17  O   UNL     1      31.806 -10.831 -20.903  0.00  0.00    -0.472 OA
ATOM     18  C   UNL     1      31.509 -11.332 -19.602  0.00  0.00    +0.252 C 
ENDBRANCH   3  17
ENDBRANCH   1   2
BRANCH   1  19
ATOM     19  N   UNL     1      32.046  -9.160 -23.759  0.00  0.00    +0.387 N 
ATOM     20  H   UNL     1      32.309  -8.733 -24.647  0.00  0.00    -0.084 HD
ATOM     21  H   UNL     1      31.267  -9.804 -23.893  0.00  0.00    -0.084 HD
BRANCH  19  23
ATOM     22  N   UNL     1      31.018  -5.718 -22.534  0.00  0.00    +0.386 N 
ATOM     23  C   UNL     1      31.635  -8.111 -22.826  0.00  0.00    -0.077 C 
ATOM     24  C   UNL     1      31.375  -6.750 -23.533  0.00  0.00    -0.058 C 
ATOM     25  C   UNL     1      32.608  -8.021 -21.641  0.00  0.00    -0.025 C 
ATOM     26  C   UNL     1      32.225  -6.873 -20.713  0.00  0.00    -0.026 C 
ATOM     27  C   UNL     1      32.031  -5.574 -21.487  0.00  0.00    -0.081 C 
ATOM     28  H   UNL     1      30.133  -5.976 -22.099  0.00  0.00    -0.084 HD
ATOM     29  H   UNL     1      30.949  -4.825 -23.023  0.00  0.00    -0.084 HD
BRANCH  24  30
ATOM     30  C   UNL     1      32.371  -6.202 -24.552  0.00  0.00    -0.044 C 
ATOM     31  C   UNL     1      31.963  -5.233 -25.463  0.00  0.00    -0.006 C 
ATOM     32  C   UNL     1      33.679  -6.675 -24.561  0.00  0.00    -0.006 C 
ATOM     33  C   UNL     1      32.872  -4.733 -26.395  0.00  0.00    -0.000 C 
ATOM     34  C   UNL     1      34.589  -6.173 -25.493  0.00  0.00    -0.000 C 
ATOM     35  C   UNL     1      34.186  -5.203 -26.410  0.00  0.00    -0.000 C 
ENDBRANCH  24  30
ENDBRANCH  19  23
ENDBRANCH   1  19
TORSDOF 7
ENDMDL
MODEL 4
REMARK VINA RESULT:     -10.5      4.371      8.956
REMARK  Name = 6918331
REMARK  7 active torsions:
REMARK  status: ('A' for Active; 'I' for Inactive)
REMARK    1  A    between atoms: C_1  and  C_2
REMARK    2  A    between atoms: C_1  and  N_19
REMARK    3  A    between atoms: C_3  and  O_17
REMARK    4  A    between atoms: C_5  and  N_8
REMARK    5  A    between atoms: C_12  and  C_16
REMARK    6  A    between atoms: N_19  and  C_23
REMARK    7  A    between atoms: C_24  and  C_30
REMARK                            x       y       z     vdW  Elec       q    Type
REMARK                         _______ _______ _______ _____ _____    ______ ____
ROOT
ATOM      1  C   UNL     1      32.866 -11.613 -23.963  0.00  0.00    -0.051 C 
ENDROOT
BRANCH   1   2
ATOM      2  C   UNL     1      33.270 -10.163 -23.906  0.00  0.00    -0.008 C 
ATOM      3  C   UNL     1      34.498  -9.759 -24.417  0.00  0.00    +0.133 C 
ATOM      4  C   UNL     1      32.397  -9.245 -23.337  0.00  0.00    +0.016 C 
ATOM      5  C   UNL     1      32.757  -7.899 -23.278  0.00  0.00    +0.086 C 
ATOM      6  C   UNL     1      34.857  -8.412 -24.356  0.00  0.00    +0.038 C 
ATOM      7  C   UNL     1      33.987  -7.482 -23.788  0.00  0.00    +0.022 C 
BRANCH   5   8
ATOM      8  N   UNL     1      31.895  -6.976 -22.714  0.00  0.00    -0.188 N 
ATOM      9  N   UNL     1      31.051  -6.242 -23.460  0.00  0.00    -0.039 NA
ATOM     10  N   UNL     1      30.814  -5.723 -21.304  0.00  0.00    -0.104 NA
ATOM     11  N   UNL     1      30.395  -5.481 -22.593  0.00  0.00    -0.022 NA
ATOM     12  C   UNL     1      31.739  -6.649 -21.401  0.00  0.00    +0.260 A 
BRANCH  12  16
ATOM     13  F   UNL     1      31.892  -8.352 -19.756  0.00  0.00    -0.163 F 
ATOM     14  F   UNL     1      33.745  -7.700 -20.688  0.00  0.00    -0.163 F 
ATOM     15  F   UNL     1      32.721  -6.393 -19.274  0.00  0.00    -0.163 F 
ATOM     16  C   UNL     1      32.508  -7.263 -20.305  0.00  0.00    +0.454 C 
ENDBRANCH  12  16
ENDBRANCH   5   8
BRANCH   3  17
ATOM     17  O   UNL     1      35.360 -10.653 -24.976  0.00  0.00    -0.472 OA
ATOM     18  C   UNL     1      35.685 -10.467 -26.352  0.00  0.00    +0.252 C 
ENDBRANCH   3  17
ENDBRANCH   1   2
BRANCH   1  19
ATOM     19  N   UNL     1      33.977 -12.496 -23.647  0.00  0.00    +0.387 N 
ATOM     20  H   UNL     1      34.027 -13.235 -24.347  0.00  0.00    -0.084 HD
ATOM     21  H   UNL     1      34.839 -11.951 -23.643  0.00  0.00    -0.084 HD
BRANCH  19  23
ATOM     22  N   UNL     1      34.311 -15.023 -20.835  0.00  0.00    +0.386 N 
ATOM     23  C   UNL     1      33.795 -13.099 -22.326  0.00  0.00    -0.077 C 
ATOM     24  C   UNL     1      34.577 -14.434 -22.166  0.00  0.00    -0.058 C 
ATOM     25  C   UNL     1      32.305 -13.204 -21.973  0.00  0.00    -0.025 C 
ATOM     26  C   UNL     1      32.115 -13.907 -20.633  0.00  0.00    -0.026 C 
ATOM     27  C   UNL     1      32.883 -15.223 -20.583  0.00  0.00    -0.081 C 
ATOM     28  H   UNL     1      34.684 -14.398 -20.120  0.00  0.00    -0.084 HD
ATOM     29  H   UNL     1      34.762 -15.938 -20.806  0.00  0.00    -0.084 HD
BRANCH  24  30
ATOM     30  C   UNL     1      34.520 -15.502 -23.257  0.00  0.00    -0.044 C 
ATOM     31  C   UNL     1      33.808 -15.256 -24.426  0.00  0.00    -0.006 C 
ATOM     32  C   UNL     1      35.182 -16.711 -23.073  0.00  0.00    -0.006 C 
ATOM     33  C   UNL     1      33.756 -16.230 -25.423  0.00  0.00    -0.000 C 
ATOM     34  C   UNL     1      35.130 -17.686 -24.071  0.00  0.00    -0.000 C 
ATOM     35  C   UNL     1      34.417 -17.445 -25.245  0.00  0.00    -0.000 C 
ENDBRANCH  24  30
ENDBRANCH  19  23
ENDBRANCH   1  19
TORSDOF 7
ENDMDL
MODEL 5
REMARK VINA RESULT:     -10.4      5.133      9.383
REMARK  Name = 6918331
REMARK  7 active torsions:
REMARK  status: ('A' for Active; 'I' for Inactive)
REMARK    1  A    between atoms: C_1  and  C_2
REMARK    2  A    between atoms: C_1  and  N_19
REMARK    3  A    between atoms: C_3  and  O_17
REMARK    4  A    between atoms: C_5  and  N_8
REMARK    5  A    between atoms: C_12  and  C_16
REMARK    6  A    between atoms: N_19  and  C_23
REMARK    7  A    between atoms: C_24  and  C_30
REMARK                            x       y       z     vdW  Elec       q    Type
REMARK                         _______ _______ _______ _____ _____    ______ ____
ROOT
ATOM      1  C   UNL     1      31.823 -11.968 -22.370  0.00  0.00    -0.051 C 
ENDROOT
BRANCH   1   2
ATOM      2  C   UNL     1      31.913 -10.535 -21.914  0.00  0.00    -0.008 C 
ATOM      3  C   UNL     1      31.983 -10.236 -20.559  0.00  0.00    +0.133 C 
ATOM      4  C   UNL     1      31.925  -9.528 -22.869  0.00  0.00    +0.016 C 
ATOM      5  C   UNL     1      32.009  -8.196 -22.462  0.00  0.00    +0.086 C 
ATOM      6  C   UNL     1      32.066  -8.904 -20.154  0.00  0.00    +0.038 C 
ATOM      7  C   UNL     1      32.079  -7.884 -21.105  0.00  0.00    +0.022 C 
BRANCH   5   8
ATOM      8  N   UNL     1      32.021  -7.184 -23.405  0.00  0.00    -0.188 N 
ATOM      9  N   UNL     1      30.910  -6.501 -23.730  0.00  0.00    -0.039 NA
ATOM     10  N   UNL     1      32.642  -5.748 -24.915  0.00  0.00    -0.104 NA
ATOM     11  N   UNL     1      31.296  -5.627 -24.651  0.00  0.00    -0.022 NA
ATOM     12  C   UNL     1      33.070  -6.715 -24.136  0.00  0.00    +0.260 A 
BRANCH  12  16
ATOM     13  F   UNL     1      35.371  -6.448 -24.650  0.00  0.00    -0.163 F 
ATOM     14  F   UNL     1      34.878  -7.370 -22.744  0.00  0.00    -0.163 F 
ATOM     15  F   UNL     1      34.567  -8.475 -24.598  0.00  0.00    -0.163 F 
ATOM     16  C   UNL     1      34.443  -7.238 -24.033  0.00  0.00    +0.454 C 
ENDBRANCH  12  16
ENDBRANCH   5   8
BRANCH   3  17
ATOM     17  O   UNL     1      31.972 -11.219 -19.616  0.00  0.00    -0.472 OA
ATOM     18  C   UNL     1      31.278 -10.945 -18.401  0.00  0.00    +0.252 C 
ENDBRANCH   3  17
ENDBRANCH   1   2
BRANCH   1  19
ATOM     19  N   UNL     1      33.049 -12.408 -23.017  0.00  0.00    +0.387 N 
ATOM     20  H   UNL     1      33.764 -11.690 -22.905  0.00  0.00    -0.084 HD
ATOM     21  H   UNL     1      33.353 -13.281 -22.586  0.00  0.00    -0.084 HD
BRANCH  19  23
ATOM     22  N   UNL     1      32.467 -14.325 -26.240  0.00  0.00    +0.386 N 
ATOM     23  C   UNL     1      32.823 -12.640 -24.443  0.00  0.00    -0.077 C 
ATOM     24  C   UNL     1      32.635 -14.147 -24.781  0.00  0.00    -0.058 C 
ATOM     25  C   UNL     1      33.898 -11.943 -25.288  0.00  0.00    -0.025 C 
ATOM     26  C   UNL     1      33.709 -12.254 -26.769  0.00  0.00    -0.026 C 
ATOM     27  C   UNL     1      33.575 -13.754 -27.008  0.00  0.00    -0.081 C 
ATOM     28  H   UNL     1      31.601 -13.868 -26.528  0.00  0.00    -0.084 HD
ATOM     29  H   UNL     1      32.442 -15.327 -26.429  0.00  0.00    -0.084 HD
BRANCH  24  30
ATOM     30  C   UNL     1      33.588 -15.195 -24.210  0.00  0.00    -0.044 C 
ATOM     31  C   UNL     1      34.009 -15.096 -22.887  0.00  0.00    -0.006 C 
ATOM     32  C   UNL     1      34.027 -16.240 -25.016  0.00  0.00    -0.006 C 
ATOM     33  C   UNL     1      34.879 -16.053 -22.365  0.00  0.00    -0.000 C 
ATOM     34  C   UNL     1      34.897 -17.197 -24.493  0.00  0.00    -0.000 C 
ATOM     35  C   UNL     1      35.323 -17.104 -23.168  0.00  0.00    -0.000 C 
ENDBRANCH  24  30
ENDBRANCH  19  23
ENDBRANCH   1  19
TORSDOF 7
ENDMDL
MODEL 6
REMARK VINA RESULT:     -10.2      4.734      9.407
REMARK  Name = 6918331
REMARK  7 active torsions:
REMARK  status: ('A' for Active; 'I' for Inactive)
REMARK    1  A    between atoms: C_1  and  C_2
REMARK    2  A    between atoms: C_1  and  N_19
REMARK    3  A    between atoms: C_3  and  O_17
REMARK    4  A    between atoms: C_5  and  N_8
REMARK    5  A    between atoms: C_12  and  C_16
REMARK    6  A    between atoms: N_19  and  C_23
REMARK    7  A    between atoms: C_24  and  C_30
REMARK                            x       y       z     vdW  Elec       q    Type
REMARK                         _______ _______ _______ _____ _____    ______ ____
ROOT
ATOM      1  C   UNL     1      31.538 -11.440 -22.175  0.00  0.00    -0.051 C 
ENDROOT
BRANCH   1   2
ATOM      2  C   UNL     1      31.820 -10.005 -21.813  0.00  0.00    -0.008 C 
ATOM      3  C   UNL     1      32.102  -9.657 -20.498  0.00  0.00    +0.133 C 
ATOM      4  C   UNL     1      31.791  -9.044 -22.814  0.00  0.00    +0.016 C 
ATOM      5  C   UNL     1      32.051  -7.711 -22.496  0.00  0.00    +0.086 C 
ATOM      6  C   UNL     1      32.360  -8.324 -20.180  0.00  0.00    +0.038 C 
ATOM      7  C   UNL     1      32.335  -7.351 -21.179  0.00  0.00    +0.022 C 
BRANCH   5   8
ATOM      8  N   UNL     1      32.025  -6.745 -23.486  0.00  0.00    -0.188 N 
ATOM      9  N   UNL     1      30.934  -5.995 -23.720  0.00  0.00    -0.039 NA
ATOM     10  N   UNL     1      32.567  -5.428 -25.128  0.00  0.00    -0.104 NA
ATOM     11  N   UNL     1      31.272  -5.194 -24.723  0.00  0.00    -0.022 NA
ATOM     12  C   UNL     1      33.013  -6.388 -24.352  0.00  0.00    +0.260 A 
BRANCH  12  16
ATOM     13  F   UNL     1      34.340  -8.293 -24.839  0.00  0.00    -0.163 F 
ATOM     14  F   UNL     1      35.242  -6.343 -25.167  0.00  0.00    -0.163 F 
ATOM     15  F   UNL     1      34.915  -7.061 -23.134  0.00  0.00    -0.163 F 
ATOM     16  C   UNL     1      34.349  -7.008 -24.376  0.00  0.00    +0.454 C 
ENDBRANCH  12  16
ENDBRANCH   5   8
BRANCH   3  17
ATOM     17  O   UNL     1      32.131 -10.595 -19.510  0.00  0.00    -0.472 OA
ATOM     18  C   UNL     1      30.942 -10.766 -18.743  0.00  0.00    +0.252 C 
ENDBRANCH   3  17
ENDBRANCH   1   2
BRANCH   1  19
ATOM     19  N   UNL     1      32.693 -12.081 -22.781  0.00  0.00    +0.387 N 
ATOM     20  H   UNL     1      32.413 -12.516 -23.660  0.00  0.00    -0.084 HD
ATOM     21  H   UNL     1      33.411 -11.376 -22.948  0.00  0.00    -0.084 HD
BRANCH  19  23
ATOM     22  N   UNL     1      34.681 -15.125 -21.691  0.00  0.00    +0.386 N 
ATOM     23  C   UNL     1      33.239 -13.106 -21.892  0.00  0.00    -0.077 C 
ATOM     24  C   UNL     1      34.206 -14.080 -22.625  0.00  0.00    -0.058 C 
ATOM     25  C   UNL     1      32.118 -13.810 -21.115  0.00  0.00    -0.025 C 
ATOM     26  C   UNL     1      32.681 -14.933 -20.251  0.00  0.00    -0.026 C 
ATOM     27  C   UNL     1      33.582 -15.858 -21.061  0.00  0.00    -0.081 C 
ATOM     28  H   UNL     1      35.238 -14.681 -20.960  0.00  0.00    -0.084 HD
ATOM     29  H   UNL     1      35.232 -15.793 -22.229  0.00  0.00    -0.084 HD
BRANCH  24  30
ATOM     30  C   UNL     1      33.821 -14.687 -23.972  0.00  0.00    -0.044 C 
ATOM     31  C   UNL     1      34.216 -15.985 -24.283  0.00  0.00    -0.006 C 
ATOM     32  C   UNL     1      33.078 -13.938 -24.879  0.00  0.00    -0.006 C 
ATOM     33  C   UNL     1      33.866 -16.539 -25.513  0.00  0.00    -0.000 C 
ATOM     34  C   UNL     1      32.727 -14.494 -26.110  0.00  0.00    -0.000 C 
ATOM     35  C   UNL     1      33.120 -15.794 -26.427  0.00  0.00    -0.000 C 
ENDBRANCH  24  30
ENDBRANCH  19  23
ENDBRANCH   1  19
TORSDOF 7
ENDMDL
MODEL 7
REMARK VINA RESULT:     -10.1      5.341      9.459
REMARK  Name = 6918331
REMARK  7 active torsions:
REMARK  status: ('A' for Active; 'I' for Inactive)
REMARK    1  A    between atoms: C_1  and  C_2
REMARK    2  A    between atoms: C_1  and  N_19
REMARK    3  A    between atoms: C_3  and  O_17
REMARK    4  A    between atoms: C_5  and  N_8
REMARK    5  A    between atoms: C_12  and  C_16
REMARK    6  A    between atoms: N_19  and  C_23
REMARK    7  A    between atoms: C_24  and  C_30
REMARK                            x       y       z     vdW  Elec       q    Type
REMARK                         _______ _______ _______ _____ _____    ______ ____
ROOT
ATOM      1  C   UNL     1      31.968 -12.052 -22.536  0.00  0.00    -0.051 C 
ENDROOT
BRANCH   1   2
ATOM      2  C   UNL     1      32.204 -10.626 -22.114  0.00  0.00    -0.008 C 
ATOM      3  C   UNL     1      32.005 -10.245 -20.793  0.00  0.00    +0.133 C 
ATOM      4  C   UNL     1      32.623  -9.706 -23.066  0.00  0.00    +0.016 C 
ATOM      5  C   UNL     1      32.847  -8.381 -22.691  0.00  0.00    +0.086 C 
ATOM      6  C   UNL     1      32.228  -8.920 -20.419  0.00  0.00    +0.038 C 
ATOM      7  C   UNL     1      32.649  -7.988 -21.367  0.00  0.00    +0.022 C 
BRANCH   5   8
ATOM      8  N   UNL     1      33.264  -7.457 -23.631  0.00  0.00    -0.188 N 
ATOM      9  N   UNL     1      34.548  -7.363 -24.016  0.00  0.00    -0.039 NA
ATOM     10  N   UNL     1      33.315  -5.854 -25.099  0.00  0.00    -0.104 NA
ATOM     11  N   UNL     1      34.572  -6.384 -24.912  0.00  0.00    -0.022 NA
ATOM     12  C   UNL     1      32.523  -6.530 -24.300  0.00  0.00    +0.260 A 
BRANCH  12  16
ATOM     13  F   UNL     1      30.352  -7.482 -24.391  0.00  0.00    -0.163 F 
ATOM     14  F   UNL     1      30.722  -5.995 -22.850  0.00  0.00    -0.163 F 
ATOM     15  F   UNL     1      30.566  -5.382 -24.936  0.00  0.00    -0.163 F 
ATOM     16  C   UNL     1      31.072  -6.353 -24.121  0.00  0.00    +0.454 C 
ENDBRANCH  12  16
ENDBRANCH   5   8
BRANCH   3  17
ATOM     17  O   UNL     1      31.594 -11.142 -19.854  0.00  0.00    -0.472 OA
ATOM     18  C   UNL     1      31.215 -10.621 -18.582  0.00  0.00    +0.252 C 
ENDBRANCH   3  17
ENDBRANCH   1   2
BRANCH   1  19
ATOM     19  N   UNL     1      33.132 -12.621 -23.196  0.00  0.00    +0.387 N 
ATOM     20  H   UNL     1      33.920 -11.981 -23.097  0.00  0.00    -0.084 HD
ATOM     21  H   UNL     1      33.348 -13.519 -22.765  0.00  0.00    -0.084 HD
BRANCH  19  23
ATOM     22  N   UNL     1      32.444 -14.492 -26.426  0.00  0.00    +0.386 N 
ATOM     23  C   UNL     1      32.864 -12.833 -24.618  0.00  0.00    -0.077 C 
ATOM     24  C   UNL     1      32.655 -14.334 -24.970  0.00  0.00    -0.058 C 
ATOM     25  C   UNL     1      33.921 -12.134 -25.485  0.00  0.00    -0.025 C 
ATOM     26  C   UNL     1      33.688 -12.425 -26.963  0.00  0.00    -0.026 C 
ATOM     27  C   UNL     1      33.535 -13.920 -27.217  0.00  0.00    -0.081 C 
ATOM     28  H   UNL     1      31.575 -14.025 -26.683  0.00  0.00    -0.084 HD
ATOM     29  H   UNL     1      32.406 -15.491 -26.626  0.00  0.00    -0.084 HD
BRANCH  24  30
ATOM     30  C   UNL     1      33.615 -15.397 -24.439  0.00  0.00    -0.044 C 
ATOM     31  C   UNL     1      33.984 -16.462 -25.254  0.00  0.00    -0.006 C 
ATOM     32  C   UNL     1      34.113 -15.291 -23.144  0.00  0.00    -0.006 C 
ATOM     33  C   UNL     1      34.861 -17.432 -24.770  0.00  0.00    -0.000 C 
ATOM     34  C   UNL     1      34.991 -16.261 -22.660  0.00  0.00    -0.000 C 
ATOM     35  C   UNL     1      35.365 -17.332 -23.473  0.00  0.00    -0.000 C 
ENDBRANCH  24  30
ENDBRANCH  19  23
ENDBRANCH   1  19
TORSDOF 7
ENDMDL
MODEL 8
REMARK VINA RESULT:     -10.0      3.643      5.396
REMARK  Name = 6918331
REMARK  7 active torsions:
REMARK  status: ('A' for Active; 'I' for Inactive)
REMARK    1  A    between atoms: C_1  and  C_2
REMARK    2  A    between atoms: C_1  and  N_19
REMARK    3  A    between atoms: C_3  and  O_17
REMARK    4  A    between atoms: C_5  and  N_8
REMARK    5  A    between atoms: C_12  and  C_16
REMARK    6  A    between atoms: N_19  and  C_23
REMARK    7  A    between atoms: C_24  and  C_30
REMARK                            x       y       z     vdW  Elec       q    Type
REMARK                         _______ _______ _______ _____ _____    ______ ____
ROOT
ATOM      1  C   UNL     1      32.671 -10.213 -23.717  0.00  0.00    -0.051 C 
ENDROOT
BRANCH   1   2
ATOM      2  C   UNL     1      32.651 -11.574 -23.071  0.00  0.00    -0.008 C 
ATOM      3  C   UNL     1      31.901 -11.792 -21.922  0.00  0.00    +0.133 C 
ATOM      4  C   UNL     1      33.392 -12.599 -23.644  0.00  0.00    +0.016 C 
ATOM      5  C   UNL     1      33.383 -13.865 -23.059  0.00  0.00    +0.086 C 
ATOM      6  C   UNL     1      31.893 -13.058 -21.337  0.00  0.00    +0.038 C 
ATOM      7  C   UNL     1      32.633 -14.094 -21.905  0.00  0.00    +0.022 C 
BRANCH   5   8
ATOM      8  N   UNL     1      34.118 -14.893 -23.621  0.00  0.00    -0.188 N 
ATOM      9  N   UNL     1      35.080 -15.536 -22.937  0.00  0.00    -0.039 NA
ATOM     10  N   UNL     1      34.913 -16.378 -24.995  0.00  0.00    -0.104 NA
ATOM     11  N   UNL     1      35.560 -16.441 -23.781  0.00  0.00    -0.022 NA
ATOM     12  C   UNL     1      34.027 -15.417 -24.875  0.00  0.00    +0.260 A 
BRANCH  12  16
ATOM     13  F   UNL     1      31.986 -14.311 -25.366  0.00  0.00    -0.163 F 
ATOM     14  F   UNL     1      33.619 -14.060 -26.779  0.00  0.00    -0.163 F 
ATOM     15  F   UNL     1      32.578 -15.972 -26.649  0.00  0.00    -0.163 F 
ATOM     16  C   UNL     1      33.073 -14.947 -25.894  0.00  0.00    +0.454 C 
ENDBRANCH  12  16
ENDBRANCH   5   8
BRANCH   3  17
ATOM     17  O   UNL     1      31.171 -10.792 -21.354  0.00  0.00    -0.472 OA
ATOM     18  C   UNL     1      31.046 -10.806 -19.934  0.00  0.00    +0.252 C 
ENDBRANCH   3  17
ENDBRANCH   1   2
BRANCH   1  19
ATOM     19  N   UNL     1      33.366  -9.236 -22.895  0.00  0.00    +0.387 N 
ATOM     20  H   UNL     1      33.872  -9.719 -22.154  0.00  0.00    -0.084 HD
ATOM     21  H   UNL     1      34.014  -8.714 -23.484  0.00  0.00    -0.084 HD
BRANCH  19  23
ATOM     22  N   UNL     1      30.881  -6.376 -22.669  0.00  0.00    +0.386 N 
ATOM     23  C   UNL     1      32.416  -8.299 -22.296  0.00  0.00    -0.077 C 
ATOM     24  C   UNL     1      31.789  -7.332 -23.341  0.00  0.00    -0.058 C 
ATOM     25  C   UNL     1      33.038  -7.588 -21.086  0.00  0.00    -0.025 C 
ATOM     26  C   UNL     1      32.076  -6.553 -20.513  0.00  0.00    -0.026 C 
ATOM     27  C   UNL     1      31.545  -5.627 -21.601  0.00  0.00    -0.081 C 
ATOM     28  H   UNL     1      30.099  -6.893 -22.268  0.00  0.00    -0.084 HD
ATOM     29  H   UNL     1      30.567  -5.704 -23.369  0.00  0.00    -0.084 HD
BRANCH  24  30
ATOM     30  C   UNL     1      32.669  -6.622 -24.367  0.00  0.00    -0.044 C 
ATOM     31  C   UNL     1      34.014  -6.962 -24.475  0.00  0.00    -0.006 C 
ATOM     32  C   UNL     1      32.119  -5.642 -25.186  0.00  0.00    -0.006 C 
ATOM     33  C   UNL     1      34.818  -6.314 -25.412  0.00  0.00    -0.000 C 
ATOM     34  C   UNL     1      32.924  -4.994 -26.124  0.00  0.00    -0.000 C 
ATOM     35  C   UNL     1      34.273  -5.330 -26.237  0.00  0.00    -0.000 C 
ENDBRANCH  24  30
ENDBRANCH  19  23
ENDBRANCH   1  19
TORSDOF 7
ENDMDL
MODEL 9
REMARK VINA RESULT:      -9.9      4.906      9.236
REMARK  Name = 6918331
REMARK  7 active torsions:
REMARK  status: ('A' for Active; 'I' for Inactive)
REMARK    1  A    between atoms: C_1  and  C_2
REMARK    2  A    between atoms: C_1  and  N_19
REMARK    3  A    between atoms: C_3  and  O_17
REMARK    4  A    between atoms: C_5  and  N_8
REMARK    5  A    between atoms: C_12  and  C_16
REMARK    6  A    between atoms: N_19  and  C_23
REMARK    7  A    between atoms: C_24  and  C_30
REMARK                            x       y       z     vdW  Elec       q    Type
REMARK                         _______ _______ _______ _____ _____    ______ ____
ROOT
ATOM      1  C   UNL     1      31.458 -11.903 -22.604  0.00  0.00    -0.051 C 
ENDROOT
BRANCH   1   2
ATOM      2  C   UNL     1      31.862 -10.523 -22.155  0.00  0.00    -0.008 C 
ATOM      3  C   UNL     1      31.721 -10.151 -20.824  0.00  0.00    +0.133 C 
ATOM      4  C   UNL     1      32.375  -9.637 -23.093  0.00  0.00    +0.016 C 
ATOM      5  C   UNL     1      32.755  -8.356 -22.693  0.00  0.00    +0.086 C 
ATOM      6  C   UNL     1      32.100  -8.869 -20.425  0.00  0.00    +0.038 C 
ATOM      7  C   UNL     1      32.617  -7.972 -21.359  0.00  0.00    +0.022 C 
BRANCH   5   8
ATOM      8  N   UNL     1      33.267  -7.465 -23.619  0.00  0.00    -0.188 N 
ATOM      9  N   UNL     1      34.574  -7.439 -23.934  0.00  0.00    -0.039 NA
ATOM     10  N   UNL     1      33.476  -5.887 -25.100  0.00  0.00    -0.104 NA
ATOM     11  N   UNL     1      34.694  -6.474 -24.837  0.00  0.00    -0.022 NA
ATOM     12  C   UNL     1      32.610  -6.513 -24.338  0.00  0.00    +0.260 A 
BRANCH  12  16
ATOM     13  F   UNL     1      30.740  -6.015 -22.966  0.00  0.00    -0.163 F 
ATOM     14  F   UNL     1      30.744  -5.192 -24.978  0.00  0.00    -0.163 F 
ATOM     15  F   UNL     1      30.425  -7.328 -24.678  0.00  0.00    -0.163 F 
ATOM     16  C   UNL     1      31.161  -6.264 -24.241  0.00  0.00    +0.454 C 
ENDBRANCH  12  16
ENDBRANCH   5   8
BRANCH   3  17
ATOM     17  O   UNL     1      31.218 -11.014 -19.898  0.00  0.00    -0.472 OA
ATOM     18  C   UNL     1      31.421 -10.685 -18.526  0.00  0.00    +0.252 C 
ENDBRANCH   3  17
ENDBRANCH   1   2
BRANCH   1  19
ATOM     19  N   UNL     1      32.602 -12.686 -23.041  0.00  0.00    +0.387 N 
ATOM     20  H   UNL     1      32.302 -13.349 -23.756  0.00  0.00    -0.084 HD
ATOM     21  H   UNL     1      33.308 -12.054 -23.418  0.00  0.00    -0.084 HD
BRANCH  19  23
ATOM     22  N   UNL     1      34.875 -15.091 -21.182  0.00  0.00    +0.386 N 
ATOM     23  C   UNL     1      33.181 -13.422 -21.918  0.00  0.00    -0.077 C 
ATOM     24  C   UNL     1      34.367 -14.332 -22.347  0.00  0.00    -0.058 C 
ATOM     25  C   UNL     1      32.091 -14.155 -21.123  0.00  0.00    -0.025 C 
ATOM     26  C   UNL     1      32.705 -14.988 -20.003  0.00  0.00    -0.026 C 
ATOM     27  C   UNL     1      33.829 -15.876 -20.524  0.00  0.00    -0.081 C 
ATOM     28  H   UNL     1      35.263 -14.433 -20.507  0.00  0.00    -0.084 HD
ATOM     29  H   UNL     1      35.583 -15.741 -21.522  0.00  0.00    -0.084 HD
BRANCH  24  30
ATOM     30  C   UNL     1      34.250 -15.231 -23.576  0.00  0.00    -0.044 C 
ATOM     31  C   UNL     1      33.478 -14.822 -24.658  0.00  0.00    -0.006 C 
ATOM     32  C   UNL     1      34.917 -16.452 -23.604  0.00  0.00    -0.006 C 
ATOM     33  C   UNL     1      33.370 -15.643 -25.781  0.00  0.00    -0.000 C 
ATOM     34  C   UNL     1      34.809 -17.272 -24.727  0.00  0.00    -0.000 C 
ATOM     35  C   UNL     1      34.036 -16.868 -25.815  0.00  0.00    -0.000 C 
ENDBRANCH  24  30
ENDBRANCH  19  23
ENDBRANCH   1  19
TORSDOF 7
ENDMDL
