MODEL 1
REMARK VINA RESULT:      -2.0      0.000      0.000
REMARK  Name = 61739
REMARK  0 active torsions:
REMARK  status: ('A' for Active; 'I' for Inactive)
REMARK                            x       y       z     vdW  Elec       q    Type
REMARK                         _______ _______ _______ _____ _____    ______ ____
ROOT
ATOM      1 CL   UNL     1      25.675 -21.403 -19.113  0.00  0.00    +0.101 Cl
ATOM      2  O   UNL     1      26.198 -20.345 -17.927  0.00  0.00    -0.101 OA
ENDROOT
TORSDOF 0
ENDMDL
MODEL 2
REMARK VINA RESULT:      -1.9     15.900     15.900
REMARK  Name = 61739
REMARK  0 active torsions:
REMARK  status: ('A' for Active; 'I' for Inactive)
REMARK                            x       y       z     vdW  Elec       q    Type
REMARK                         _______ _______ _______ _____ _____    ______ ____
ROOT
ATOM      1 CL   UNL     1      40.378 -25.719 -14.265  0.00  0.00    +0.101 Cl
ATOM      2  O   UNL     1      40.687 -26.102 -15.866  0.00  0.00    -0.101 OA
ENDROOT
TORSDOF 0
ENDMDL
MODEL 3
REMARK VINA RESULT:      -1.9      3.340      3.340
REMARK  Name = 61739
REMARK  0 active torsions:
REMARK  status: ('A' for Active; 'I' for Inactive)
REMARK                            x       y       z     vdW  Elec       q    Type
REMARK                         _______ _______ _______ _____ _____    ______ ____
ROOT
ATOM      1 CL   UNL     1      27.217 -22.332 -15.757  0.00  0.00    +0.101 Cl
ATOM      2  O   UNL     1      25.570 -22.035 -15.793  0.00  0.00    -0.101 OA
ENDROOT
TORSDOF 0
ENDMDL
MODEL 4
REMARK VINA RESULT:      -1.9      1.429      1.429
REMARK  Name = 61739
REMARK  0 active torsions:
REMARK  status: ('A' for Active; 'I' for Inactive)
REMARK                            x       y       z     vdW  Elec       q    Type
REMARK                         _______ _______ _______ _____ _____    ______ ____
ROOT
ATOM      1 CL   UNL     1      26.697 -21.788 -17.415  0.00  0.00    +0.101 Cl
ATOM      2  O   UNL     1      26.167 -20.303 -17.978  0.00  0.00    -0.101 OA
ENDROOT
TORSDOF 0
ENDMDL
MODEL 5
REMARK VINA RESULT:      -1.9     13.025     13.025
REMARK  Name = 61739
REMARK  0 active torsions:
REMARK  status: ('A' for Active; 'I' for Inactive)
REMARK                            x       y       z     vdW  Elec       q    Type
REMARK                         _______ _______ _______ _____ _____    ______ ____
ROOT
ATOM      1 CL   UNL     1      35.637 -24.625 -11.342  0.00  0.00    +0.101 Cl
ATOM      2  O   UNL     1      35.343 -24.570  -9.694  0.00  0.00    -0.101 OA
ENDROOT
TORSDOF 0
ENDMDL
MODEL 6
REMARK VINA RESULT:      -1.9     18.094     18.094
REMARK  Name = 61739
REMARK  0 active torsions:
REMARK  status: ('A' for Active; 'I' for Inactive)
REMARK                            x       y       z     vdW  Elec       q    Type
REMARK                         _______ _______ _______ _____ _____    ______ ____
ROOT
ATOM      1 CL   UNL     1      42.080 -20.452 -26.776  0.00  0.00    +0.101 Cl
ATOM      2  O   UNL     1      42.600 -21.283 -25.419  0.00  0.00    -0.101 OA
ENDROOT
TORSDOF 0
ENDMDL
MODEL 7
REMARK VINA RESULT:      -1.8      7.270      7.270
REMARK  Name = 61739
REMARK  0 active torsions:
REMARK  status: ('A' for Active; 'I' for Inactive)
REMARK                            x       y       z     vdW  Elec       q    Type
REMARK                         _______ _______ _______ _____ _____    ______ ____
ROOT
ATOM      1 CL   UNL     1      32.933 -20.308 -20.182  0.00  0.00    +0.101 Cl
ATOM      2  O   UNL     1      32.863 -21.947 -19.847  0.00  0.00    -0.101 OA
ENDROOT
TORSDOF 0
ENDMDL
MODEL 8
REMARK VINA RESULT:      -1.8     12.832     12.832
REMARK  Name = 61739
REMARK  0 active torsions:
REMARK  status: ('A' for Active; 'I' for Inactive)
REMARK                            x       y       z     vdW  Elec       q    Type
REMARK                         _______ _______ _______ _____ _____    ______ ____
ROOT
ATOM      1 CL   UNL     1      36.615 -26.680 -15.440  0.00  0.00    +0.101 Cl
ATOM      2  O   UNL     1      36.769 -27.764 -16.707  0.00  0.00    -0.101 OA
ENDROOT
TORSDOF 0
ENDMDL
MODEL 9
REMARK VINA RESULT:      -1.7     16.745     16.745
REMARK  Name = 61739
REMARK  0 active torsions:
REMARK  status: ('A' for Active; 'I' for Inactive)
REMARK                            x       y       z     vdW  Elec       q    Type
REMARK                         _______ _______ _______ _____ _____    ______ ____
ROOT
ATOM      1 CL   UNL     1      40.968 -15.800 -15.404  0.00  0.00    +0.101 Cl
ATOM      2  O   UNL     1      42.409 -16.597 -15.711  0.00  0.00    -0.101 OA
ENDROOT
TORSDOF 0
ENDMDL
