MODEL 1
REMARK VINA RESULT:      -5.0      0.000      0.000
REMARK  Name = 397614
REMARK  8 active torsions:
REMARK  status: ('A' for Active; 'I' for Inactive)
REMARK    1  A    between atoms: C_2  and  C_13
REMARK    2  A    between atoms: C_3  and  O_32
REMARK    3  A    between atoms: C_4  and  C_21
REMARK    4  A    between atoms: C_5  and  O_34
REMARK    5  A    between atoms: C_6  and  C_29
REMARK    6  A    between atoms: C_9  and  O_36
REMARK    7  A    between atoms: C_12  and  O_38
REMARK    8  A    between atoms: C_18  and  O_19
REMARK                            x       y       z     vdW  Elec       q    Type
REMARK                         _______ _______ _______ _____ _____    ______ ____
ROOT
ATOM      1  O   UNL     1      36.110 -22.289 -15.781  0.00  0.00    -0.476 OA
ATOM      2  C   UNL     1      35.587 -23.602 -15.386  0.00  0.00    +0.184 C 
ATOM      3  C   UNL     1      34.556 -24.041 -16.503  0.00  0.00    +0.175 C 
ATOM      4  C   UNL     1      34.696 -23.337 -14.112  0.00  0.00    +0.077 C 
ATOM      5  C   UNL     1      33.154 -23.895 -15.879  0.00  0.00    +0.152 C 
ATOM      6  C   UNL     1      33.413 -24.151 -14.387  0.00  0.00    +0.114 C 
ATOM      7  C   UNL     1      34.898 -23.082 -17.584  0.00  0.00    +0.076 C 
ATOM      8  C   UNL     1      35.767 -22.120 -17.097  0.00  0.00    +0.143 C 
ATOM      9  C   UNL     1      34.451 -23.031 -18.894  0.00  0.00    +0.143 C 
ATOM     10  C   UNL     1      36.219 -21.077 -17.882  0.00  0.00    +0.074 C 
ATOM     11  C   UNL     1      34.904 -21.990 -19.710  0.00  0.00    +0.074 C 
ATOM     12  C   UNL     1      35.782 -21.018 -19.205  0.00  0.00    +0.145 C 
ENDROOT
BRANCH   2  13
ATOM     13  C   UNL     1      36.755 -24.580 -15.174  0.00  0.00    +0.017 C 
ATOM     14  C   UNL     1      36.501 -25.915 -14.863  0.00  0.00    +0.002 C 
ATOM     15  C   UNL     1      38.071 -24.130 -15.293  0.00  0.00    +0.002 C 
ATOM     16  C   UNL     1      37.561 -26.801 -14.670  0.00  0.00    +0.037 C 
ATOM     17  C   UNL     1      39.131 -25.016 -15.101  0.00  0.00    +0.037 C 
ATOM     18  C   UNL     1      38.876 -26.351 -14.788  0.00  0.00    +0.139 C 
BRANCH  18  19
ATOM     19  O   UNL     1      39.910 -27.216 -14.601  0.00  0.00    -0.471 OA
ATOM     20  C   UNL     1      41.089 -26.696 -13.988  0.00  0.00    +0.252 C 
ENDBRANCH  18  19
ENDBRANCH   2  13
BRANCH   4  21
ATOM     21  C   UNL     1      35.384 -23.513 -12.769  0.00  0.00    -0.018 C 
ATOM     22  C   UNL     1      34.837 -24.370 -11.819  0.00  0.00    -0.004 C 
ATOM     23  C   UNL     1      36.558 -22.817 -12.497  0.00  0.00    -0.004 C 
ATOM     24  C   UNL     1      35.468 -24.532 -10.585  0.00  0.00    -0.000 C 
ATOM     25  C   UNL     1      37.190 -22.978 -11.264  0.00  0.00    -0.000 C 
ATOM     26  C   UNL     1      36.645 -23.836 -10.308  0.00  0.00    -0.000 C 
ENDBRANCH   4  21
BRANCH   6  29
ATOM     27  O   UNL     1      31.460 -24.528 -13.060  0.00  0.00    -0.275 OA
ATOM     28  N   UNL     1      32.169 -22.361 -13.363  0.00  0.00    -0.329 N 
ATOM     29  C   UNL     1      32.256 -23.722 -13.536  0.00  0.00    +0.222 C 
ATOM     30  H   UNL     1      31.443 -21.978 -12.820  0.00  0.00    +0.145 HD
ATOM     31  H   UNL     1      32.833 -21.768 -13.784  0.00  0.00    +0.145 HD
ENDBRANCH   6  29
BRANCH   3  32
ATOM     32  O   UNL     1      34.754 -25.375 -16.945  0.00  0.00    -0.376 OA
ATOM     33  H   UNL     1      35.675 -25.634 -16.788  0.00  0.00    +0.211 HD
ENDBRANCH   3  32
BRANCH   5  34
ATOM     34  O   UNL     1      32.654 -22.573 -16.072  0.00  0.00    -0.381 OA
ATOM     35  H   UNL     1      33.236 -21.938 -15.625  0.00  0.00    +0.210 HD
ENDBRANCH   5  34
BRANCH   9  36
ATOM     36  O   UNL     1      33.637 -23.979 -19.419  0.00  0.00    -0.471 OA
ATOM     37  C   UNL     1      34.206 -24.870 -20.380  0.00  0.00    +0.252 C 
ENDBRANCH   9  36
BRANCH  12  38
ATOM     38  O   UNL     1      36.215 -20.014 -20.018  0.00  0.00    -0.471 OA
ATOM     39  C   UNL     1      35.294 -19.527 -20.993  0.00  0.00    +0.252 C 
ENDBRANCH  12  38
TORSDOF 8
ENDMDL
MODEL 2
REMARK VINA RESULT:      -3.8      2.128      6.605
REMARK  Name = 397614
REMARK  8 active torsions:
REMARK  status: ('A' for Active; 'I' for Inactive)
REMARK    1  A    between atoms: C_2  and  C_13
REMARK    2  A    between atoms: C_3  and  O_32
REMARK    3  A    between atoms: C_4  and  C_21
REMARK    4  A    between atoms: C_5  and  O_34
REMARK    5  A    between atoms: C_6  and  C_29
REMARK    6  A    between atoms: C_9  and  O_36
REMARK    7  A    between atoms: C_12  and  O_38
REMARK    8  A    between atoms: C_18  and  O_19
REMARK                            x       y       z     vdW  Elec       q    Type
REMARK                         _______ _______ _______ _____ _____    ______ ____
ROOT
ATOM      1  O   UNL     1      34.146 -25.225 -15.592  0.00  0.00    -0.476 OA
ATOM      2  C   UNL     1      33.620 -23.871 -15.376  0.00  0.00    +0.184 C 
ATOM      3  C   UNL     1      34.592 -23.159 -14.352  0.00  0.00    +0.175 C 
ATOM      4  C   UNL     1      32.275 -24.062 -14.573  0.00  0.00    +0.077 C 
ATOM      5  C   UNL     1      33.831 -23.085 -13.013  0.00  0.00    +0.152 C 
ATOM      6  C   UNL     1      32.363 -23.001 -13.456  0.00  0.00    +0.114 C 
ATOM      7  C   UNL     1      35.758 -24.077 -14.396  0.00  0.00    +0.076 C 
ATOM      8  C   UNL     1      35.425 -25.221 -15.101  0.00  0.00    +0.143 C 
ATOM      9  C   UNL     1      37.014 -23.939 -13.827  0.00  0.00    +0.143 C 
ATOM     10  C   UNL     1      36.314 -26.266 -15.264  0.00  0.00    +0.074 C 
ATOM     11  C   UNL     1      37.934 -24.979 -13.988  0.00  0.00    +0.074 C 
ATOM     12  C   UNL     1      37.584 -26.136 -14.701  0.00  0.00    +0.145 C 
ENDROOT
BRANCH   2  13
ATOM     13  C   UNL     1      33.477 -23.152 -16.728  0.00  0.00    +0.017 C 
ATOM     14  C   UNL     1      32.255 -22.590 -17.095  0.00  0.00    +0.002 C 
ATOM     15  C   UNL     1      34.572 -23.063 -17.589  0.00  0.00    +0.002 C 
ATOM     16  C   UNL     1      32.125 -21.939 -18.322  0.00  0.00    +0.037 C 
ATOM     17  C   UNL     1      34.443 -22.411 -18.816  0.00  0.00    +0.037 C 
ATOM     18  C   UNL     1      33.219 -21.850 -19.183  0.00  0.00    +0.139 C 
BRANCH  18  19
ATOM     19  O   UNL     1      33.093 -21.214 -20.379  0.00  0.00    -0.471 OA
ATOM     20  C   UNL     1      33.951 -20.099 -20.615  0.00  0.00    +0.252 C 
ENDBRANCH  18  19
ENDBRANCH   2  13
BRANCH   4  21
ATOM     21  C   UNL     1      31.006 -24.126 -15.406  0.00  0.00    -0.018 C 
ATOM     22  C   UNL     1      30.260 -22.970 -15.619  0.00  0.00    -0.004 C 
ATOM     23  C   UNL     1      30.597 -25.339 -15.951  0.00  0.00    -0.004 C 
ATOM     24  C   UNL     1      29.094 -23.029 -16.383  0.00  0.00    -0.000 C 
ATOM     25  C   UNL     1      29.431 -25.398 -16.714  0.00  0.00    -0.000 C 
ATOM     26  C   UNL     1      28.680 -24.243 -16.931  0.00  0.00    -0.000 C 
ENDBRANCH   4  21
BRANCH   6  29
ATOM     27  O   UNL     1      31.376 -22.552 -11.325  0.00  0.00    -0.275 OA
ATOM     28  N   UNL     1      30.641 -24.388 -12.501  0.00  0.00    -0.329 N 
ATOM     29  C   UNL     1      31.420 -23.269 -12.322  0.00  0.00    +0.222 C 
ATOM     30  H   UNL     1      29.989 -24.649 -11.811  0.00  0.00    +0.145 HD
ATOM     31  H   UNL     1      30.736 -24.927 -13.318  0.00  0.00    +0.145 HD
ENDBRANCH   6  29
BRANCH   3  32
ATOM     32  O   UNL     1      34.973 -21.856 -14.765  0.00  0.00    -0.376 OA
ATOM     33  H   UNL     1      35.045 -21.279 -13.989  0.00  0.00    +0.211 HD
ENDBRANCH   3  32
BRANCH   5  34
ATOM     34  O   UNL     1      34.048 -24.269 -12.247  0.00  0.00    -0.381 OA
ATOM     35  H   UNL     1      33.529 -24.997 -12.624  0.00  0.00    +0.210 HD
ENDBRANCH   5  34
BRANCH   9  36
ATOM     36  O   UNL     1      37.392 -22.815 -13.169  0.00  0.00    -0.471 OA
ATOM     37  C   UNL     1      37.343 -22.846 -11.742  0.00  0.00    +0.252 C 
ENDBRANCH   9  36
BRANCH  12  38
ATOM     38  O   UNL     1      38.497 -27.137 -14.851  0.00  0.00    -0.471 OA
ATOM     39  C   UNL     1      39.871 -26.791 -14.688  0.00  0.00    +0.252 C 
ENDBRANCH  12  38
TORSDOF 8
ENDMDL
