MODEL 1
REMARK VINA RESULT:      -9.3      0.000      0.000
REMARK  Name = 5839
REMARK  5 active torsions:
REMARK  status: ('A' for Active; 'I' for Inactive)
REMARK    1  A    between atoms: C_4  and  C_23
REMARK    2  A    between atoms: C_7  and  O_20
REMARK    3  A    between atoms: C_9  and  C_25
REMARK    4  A    between atoms: C_25  and  C_26
REMARK    5  A    between atoms: C_26  and  O_27
REMARK                            x       y       z     vdW  Elec       q    Type
REMARK                         _______ _______ _______ _____ _____    ______ ____
ROOT
ATOM      1  O   UNL     1      39.823 -26.627 -14.935  0.00  0.00    -0.291 OA
ATOM      2  C   UNL     1      33.513 -23.591 -15.819  0.00  0.00    +0.008 C 
ATOM      3  C   UNL     1      34.849 -23.168 -15.193  0.00  0.00    +0.003 C 
ATOM      4  C   UNL     1      32.423 -23.853 -14.772  0.00  0.00    +0.067 C 
ATOM      5  C   UNL     1      35.343 -24.331 -14.256  0.00  0.00    +0.030 C 
ATOM      6  C   UNL     1      36.778 -24.033 -13.670  0.00  0.00    +0.018 C 
ATOM      7  C   UNL     1      34.254 -24.738 -13.221  0.00  0.00    +0.111 C 
ATOM      8  C   UNL     1      32.872 -25.004 -13.863  0.00  0.00    +0.037 C 
ATOM      9  C   UNL     1      31.223 -24.159 -15.686  0.00  0.00    +0.067 C 
ATOM     10  C   UNL     1      32.831 -22.665 -16.822  0.00  0.00    +0.001 C 
ATOM     11  C   UNL     1      35.880 -22.829 -16.289  0.00  0.00    +0.004 C 
ATOM     12  C   UNL     1      31.382 -23.177 -16.867  0.00  0.00    +0.008 C 
ATOM     13  C   UNL     1      37.675 -23.792 -14.892  0.00  0.00    -0.042 C 
ATOM     14  C   UNL     1      37.290 -22.609 -15.744  0.00  0.00    +0.022 C 
ATOM     15  C   UNL     1      37.344 -25.201 -12.816  0.00  0.00    +0.012 C 
ATOM     16  C   UNL     1      36.817 -22.790 -12.746  0.00  0.00    +0.004 C 
ATOM     17  C   UNL     1      37.819 -26.384 -13.641  0.00  0.00    +0.069 C 
ATOM     18  C   UNL     1      38.658 -24.616 -15.289  0.00  0.00    +0.029 C 
ATOM     19  C   UNL     1      38.866 -25.923 -14.622  0.00  0.00    +0.173 C 
ENDROOT
BRANCH   7  20
ATOM     20  O   UNL     1      34.120 -23.741 -12.215  0.00  0.00    -0.384 OA
ATOM     21  H   UNL     1      34.546 -24.045 -11.399  0.00  0.00    +0.210 HD
ENDBRANCH   7  20
BRANCH   4  23
ATOM     22  O   UNL     1      31.682 -22.721 -12.763  0.00  0.00    -0.288 OA
ATOM     23  C   UNL     1      32.103 -22.642 -13.913  0.00  0.00    +0.207 C 
ENDBRANCH   4  23
BRANCH   9  25
ATOM     24  O   UNL     1      29.482 -24.861 -14.219  0.00  0.00    -0.293 OA
ATOM     25  C   UNL     1      29.885 -24.021 -15.022  0.00  0.00    +0.180 C 
BRANCH  25  26
ATOM     26  C   UNL     1      29.074 -22.800 -15.397  0.00  0.00    +0.202 C 
BRANCH  26  27
ATOM     27  O   UNL     1      27.741 -23.160 -15.694  0.00  0.00    -0.375 OA
ATOM     28  H   UNL     1      27.651 -23.309 -16.648  0.00  0.00    +0.211 HD
ENDBRANCH  26  27
ENDBRANCH  25  26
ENDBRANCH   9  25
TORSDOF 5
ENDMDL
MODEL 2
REMARK VINA RESULT:      -7.9      3.355      6.476
REMARK  Name = 5839
REMARK  5 active torsions:
REMARK  status: ('A' for Active; 'I' for Inactive)
REMARK    1  A    between atoms: C_4  and  C_23
REMARK    2  A    between atoms: C_7  and  O_20
REMARK    3  A    between atoms: C_9  and  C_25
REMARK    4  A    between atoms: C_25  and  C_26
REMARK    5  A    between atoms: C_26  and  O_27
REMARK                            x       y       z     vdW  Elec       q    Type
REMARK                         _______ _______ _______ _____ _____    ______ ____
ROOT
ATOM      1  O   UNL     1      33.599 -18.365 -21.186  0.00  0.00    -0.291 OA
ATOM      2  C   UNL     1      35.906 -22.447 -15.911  0.00  0.00    +0.008 C 
ATOM      3  C   UNL     1      35.891 -22.548 -17.442  0.00  0.00    +0.003 C 
ATOM      4  C   UNL     1      34.913 -23.407 -15.243  0.00  0.00    +0.067 C 
ATOM      5  C   UNL     1      34.446 -22.184 -17.946  0.00  0.00    +0.030 C 
ATOM      6  C   UNL     1      34.376 -22.137 -19.521  0.00  0.00    +0.018 C 
ATOM      7  C   UNL     1      33.357 -23.043 -17.239  0.00  0.00    +0.111 C 
ATOM      8  C   UNL     1      33.492 -23.052 -15.697  0.00  0.00    +0.037 C 
ATOM      9  C   UNL     1      35.221 -23.140 -13.758  0.00  0.00    +0.067 C 
ATOM     10  C   UNL     1      37.209 -22.696 -15.157  0.00  0.00    +0.001 C 
ATOM     11  C   UNL     1      36.968 -21.631 -18.058  0.00  0.00    +0.004 C 
ATOM     12  C   UNL     1      36.753 -22.955 -13.712  0.00  0.00    +0.008 C 
ATOM     13  C   UNL     1      35.457 -21.134 -19.948  0.00  0.00    -0.042 C 
ATOM     14  C   UNL     1      36.867 -21.519 -19.578  0.00  0.00    +0.022 C 
ATOM     15  C   UNL     1      32.989 -21.686 -20.059  0.00  0.00    +0.012 C 
ATOM     16  C   UNL     1      34.651 -23.508 -20.189  0.00  0.00    +0.004 C 
ATOM     17  C   UNL     1      32.732 -20.197 -19.905  0.00  0.00    +0.069 C 
ATOM     18  C   UNL     1      35.208 -19.932 -20.492  0.00  0.00    +0.029 C 
ATOM     19  C   UNL     1      33.820 -19.425 -20.606  0.00  0.00    +0.173 C 
ENDROOT
BRANCH   7  20
ATOM     20  O   UNL     1      33.384 -24.381 -17.720  0.00  0.00    -0.384 OA
ATOM     21  H   UNL     1      34.270 -24.586 -18.056  0.00  0.00    +0.210 HD
ENDBRANCH   7  20
BRANCH   4  23
ATOM     22  O   UNL     1      36.307 -25.341 -15.672  0.00  0.00    -0.288 OA
ATOM     23  C   UNL     1      35.180 -24.869 -15.555  0.00  0.00    +0.207 C 
ENDBRANCH   4  23
BRANCH   9  25
ATOM     24  O   UNL     1      33.582 -24.568 -12.784  0.00  0.00    -0.293 OA
ATOM     25  C   UNL     1      34.761 -24.220 -12.825  0.00  0.00    +0.180 C 
BRANCH  25  26
ATOM     26  C   UNL     1      35.824 -24.846 -11.948  0.00  0.00    +0.202 C 
BRANCH  26  27
ATOM     27  O   UNL     1      35.339 -25.037 -10.635  0.00  0.00    -0.375 OA
ATOM     28  H   UNL     1      36.035 -24.812  -9.998  0.00  0.00    +0.211 HD
ENDBRANCH  26  27
ENDBRANCH  25  26
ENDBRANCH   9  25
TORSDOF 5
ENDMDL
MODEL 3
REMARK VINA RESULT:      -7.6     11.100     13.549
REMARK  Name = 5839
REMARK  5 active torsions:
REMARK  status: ('A' for Active; 'I' for Inactive)
REMARK    1  A    between atoms: C_4  and  C_23
REMARK    2  A    between atoms: C_7  and  O_20
REMARK    3  A    between atoms: C_9  and  C_25
REMARK    4  A    between atoms: C_25  and  C_26
REMARK    5  A    between atoms: C_26  and  O_27
REMARK                            x       y       z     vdW  Elec       q    Type
REMARK                         _______ _______ _______ _____ _____    ______ ____
ROOT
ATOM      1  O   UNL     1      35.289  -9.939 -26.263  0.00  0.00    -0.291 OA
ATOM      2  C   UNL     1      34.657 -16.617 -24.066  0.00  0.00    +0.008 C 
ATOM      3  C   UNL     1      33.681 -15.486 -24.415  0.00  0.00    +0.003 C 
ATOM      4  C   UNL     1      34.726 -16.900 -22.560  0.00  0.00    +0.067 C 
ATOM      5  C   UNL     1      34.167 -14.175 -23.694  0.00  0.00    +0.030 C 
ATOM      6  C   UNL     1      33.290 -12.929 -24.103  0.00  0.00    +0.018 C 
ATOM      7  C   UNL     1      34.367 -14.398 -22.166  0.00  0.00    +0.111 C 
ATOM      8  C   UNL     1      35.227 -15.642 -21.839  0.00  0.00    +0.037 C 
ATOM      9  C   UNL     1      35.688 -18.102 -22.544  0.00  0.00    +0.067 C 
ATOM     10  C   UNL     1      34.453 -17.998 -24.682  0.00  0.00    +0.001 C 
ATOM     11  C   UNL     1      33.581 -15.304 -25.943  0.00  0.00    +0.004 C 
ATOM     12  C   UNL     1      35.292 -18.926 -23.788  0.00  0.00    +0.008 C 
ATOM     13  C   UNL     1      33.363 -12.863 -25.634  0.00  0.00    -0.042 C 
ATOM     14  C   UNL     1      32.795 -14.060 -26.353  0.00  0.00    +0.022 C 
ATOM     15  C   UNL     1      33.799 -11.595 -23.487  0.00  0.00    +0.012 C 
ATOM     16  C   UNL     1      31.810 -13.049 -23.660  0.00  0.00    +0.004 C 
ATOM     17  C   UNL     1      35.052 -11.056 -24.154  0.00  0.00    +0.069 C 
ATOM     18  C   UNL     1      33.993 -11.900 -26.326  0.00  0.00    +0.029 C 
ATOM     19  C   UNL     1      34.793 -10.866 -25.627  0.00  0.00    +0.173 C 
ENDROOT
BRANCH   7  20
ATOM     20  O   UNL     1      33.111 -14.510 -21.508  0.00  0.00    -0.384 OA
ATOM     21  H   UNL     1      32.784 -15.419 -21.590  0.00  0.00    +0.210 HD
ENDBRANCH   7  20
BRANCH   4  23
ATOM     22  O   UNL     1      33.096 -17.131 -20.784  0.00  0.00    -0.288 OA
ATOM     23  C   UNL     1      33.394 -17.315 -21.960  0.00  0.00    +0.207 C 
ENDBRANCH   4  23
BRANCH   9  25
ATOM     24  O   UNL     1      36.267 -18.596 -20.287  0.00  0.00    -0.293 OA
ATOM     25  C   UNL     1      35.635 -18.923 -21.290  0.00  0.00    +0.180 C 
BRANCH  25  26
ATOM     26  C   UNL     1      34.767 -20.161 -21.337  0.00  0.00    +0.202 C 
BRANCH  26  27
ATOM     27  O   UNL     1      33.832 -20.156 -20.278  0.00  0.00    -0.375 OA
ATOM     28  H   UNL     1      33.025 -20.614 -20.558  0.00  0.00    +0.211 HD
ENDBRANCH  26  27
ENDBRANCH  25  26
ENDBRANCH   9  25
TORSDOF 5
ENDMDL
