MODEL 1
REMARK VINA RESULT:      -8.2      0.000      0.000
REMARK  Name = 25134249
REMARK  7 active torsions:
REMARK  status: ('A' for Active; 'I' for Inactive)
REMARK    1  A    between atoms: N_1  and  C_17
REMARK    2  A    between atoms: C_2  and  N_9
REMARK    3  A    between atoms: C_10  and  C_12
REMARK    4  A    between atoms: C_12  and  C_13
REMARK    5  A    between atoms: C_13  and  C_14
REMARK    6  A    between atoms: C_14  and  S_15
REMARK    7  A    between atoms: C_17  and  C_18
REMARK                            x       y       z     vdW  Elec       q    Type
REMARK                         _______ _______ _______ _____ _____    ______ ____
ROOT
ATOM      1  N   UNL     1      33.195 -14.023 -22.108  0.00  0.00    +0.390 N 
ATOM      2  C   UNL     1      34.947 -16.334 -21.636  0.00  0.00    +0.067 C 
ATOM      3  C   UNL     1      34.522 -15.380 -20.518  0.00  0.00    -0.003 C 
ATOM      4  C   UNL     1      34.858 -15.630 -22.991  0.00  0.00    -0.003 C 
ATOM      5  C   UNL     1      33.173 -14.713 -20.811  0.00  0.00    -0.075 C 
ATOM      6  C   UNL     1      33.499 -14.955 -23.202  0.00  0.00    -0.075 C 
ATOM      7  H   UNL     1      33.935 -13.322 -22.077  0.00  0.00    -0.079 HD
ENDROOT
BRANCH   2   9
ATOM      8  O   UNL     1      35.698 -18.925 -20.574  0.00  0.00    -0.275 OA
ATOM      9  N   UNL     1      34.152 -17.542 -21.621  0.00  0.00    -0.306 N 
ATOM     10  C   UNL     1      34.598 -18.743 -21.088  0.00  0.00    +0.222 C 
ATOM     11  H   UNL     1      33.248 -17.509 -22.009  0.00  0.00    +0.149 HD
BRANCH  10  12
ATOM     12  C   UNL     1      33.545 -19.831 -21.209  0.00  0.00    +0.086 C 
BRANCH  12  13
ATOM     13  C   UNL     1      33.257 -20.513 -19.871  0.00  0.00    +0.021 C 
BRANCH  13  14
ATOM     14  C   UNL     1      34.120 -21.744 -19.603  0.00  0.00    +0.054 C 
BRANCH  14  15
ATOM     15  S   UNL     1      33.497 -22.776 -18.243  0.00  0.00    -0.168 S 
ATOM     16  H   UNL     1      34.537 -23.418 -17.648  0.00  0.00    +0.102 HD
ENDBRANCH  14  15
ENDBRANCH  13  14
ENDBRANCH  12  13
ENDBRANCH  10  12
ENDBRANCH   2   9
BRANCH   1  17
ATOM     17  C   UNL     1      31.920 -13.347 -22.349  0.00  0.00    -0.050 C 
BRANCH  17  18
ATOM     18  C   UNL     1      31.895 -11.965 -21.753  0.00  0.00    -0.043 C 
ATOM     19  C   UNL     1      31.516 -11.787 -20.423  0.00  0.00    -0.006 C 
ATOM     20  C   UNL     1      32.252 -10.864 -22.531  0.00  0.00    -0.006 C 
ATOM     21  C   UNL     1      31.493 -10.505 -19.871  0.00  0.00    -0.000 C 
ATOM     22  C   UNL     1      32.229  -9.583 -21.978  0.00  0.00    -0.000 C 
ATOM     23  C   UNL     1      31.850  -9.404 -20.648  0.00  0.00    -0.000 C 
ENDBRANCH  17  18
ENDBRANCH   1  17
TORSDOF 7
ENDMDL
MODEL 2
REMARK VINA RESULT:      -8.2      1.205      1.843
REMARK  Name = 25134249
REMARK  7 active torsions:
REMARK  status: ('A' for Active; 'I' for Inactive)
REMARK    1  A    between atoms: N_1  and  C_17
REMARK    2  A    between atoms: C_2  and  N_9
REMARK    3  A    between atoms: C_10  and  C_12
REMARK    4  A    between atoms: C_12  and  C_13
REMARK    5  A    between atoms: C_13  and  C_14
REMARK    6  A    between atoms: C_14  and  S_15
REMARK    7  A    between atoms: C_17  and  C_18
REMARK                            x       y       z     vdW  Elec       q    Type
REMARK                         _______ _______ _______ _____ _____    ______ ____
ROOT
ATOM      1  N   UNL     1      33.584 -14.333 -22.481  0.00  0.00    +0.390 N 
ATOM      2  C   UNL     1      34.940 -16.682 -21.349  0.00  0.00    +0.067 C 
ATOM      3  C   UNL     1      34.572 -15.457 -20.508  0.00  0.00    -0.003 C 
ATOM      4  C   UNL     1      35.059 -16.291 -22.824  0.00  0.00    -0.003 C 
ATOM      5  C   UNL     1      33.362 -14.709 -21.078  0.00  0.00    -0.075 C 
ATOM      6  C   UNL     1      33.833 -15.516 -23.316  0.00  0.00    -0.075 C 
ATOM      7  H   UNL     1      34.413 -13.741 -22.519  0.00  0.00    -0.079 HD
ENDROOT
BRANCH   2   9
ATOM      8  O   UNL     1      35.390 -19.530 -21.650  0.00  0.00    -0.275 OA
ATOM      9  N   UNL     1      33.979 -17.747 -21.167  0.00  0.00    -0.306 N 
ATOM     10  C   UNL     1      34.288 -19.090 -21.334  0.00  0.00    +0.222 C 
ATOM     11  H   UNL     1      33.059 -17.506 -20.910  0.00  0.00    +0.149 HD
BRANCH  10  12
ATOM     12  C   UNL     1      33.082 -19.975 -21.070  0.00  0.00    +0.086 C 
BRANCH  12  13
ATOM     13  C   UNL     1      33.128 -20.622 -19.685  0.00  0.00    +0.021 C 
BRANCH  13  14
ATOM     14  C   UNL     1      33.868 -21.958 -19.649  0.00  0.00    +0.054 C 
BRANCH  14  15
ATOM     15  S   UNL     1      35.525 -21.840 -18.912  0.00  0.00    -0.168 S 
ATOM     16  H   UNL     1      36.090 -23.076 -18.867  0.00  0.00    +0.102 HD
ENDBRANCH  14  15
ENDBRANCH  13  14
ENDBRANCH  12  13
ENDBRANCH  10  12
ENDBRANCH   2   9
BRANCH   1  17
ATOM     17  C   UNL     1      32.443 -13.575 -22.994  0.00  0.00    -0.050 C 
BRANCH  17  18
ATOM     18  C   UNL     1      32.771 -12.116 -23.169  0.00  0.00    -0.043 C 
ATOM     19  C   UNL     1      33.803 -11.732 -24.024  0.00  0.00    -0.006 C 
ATOM     20  C   UNL     1      32.042 -11.149 -22.476  0.00  0.00    -0.006 C 
ATOM     21  C   UNL     1      34.106 -10.379 -24.186  0.00  0.00    -0.000 C 
ATOM     22  C   UNL     1      32.345  -9.798 -22.640  0.00  0.00    -0.000 C 
ATOM     23  C   UNL     1      33.377  -9.412 -23.494  0.00  0.00    -0.000 C 
ENDBRANCH  17  18
ENDBRANCH   1  17
TORSDOF 7
ENDMDL
MODEL 3
REMARK VINA RESULT:      -8.1      4.513      8.475
REMARK  Name = 25134249
REMARK  7 active torsions:
REMARK  status: ('A' for Active; 'I' for Inactive)
REMARK    1  A    between atoms: N_1  and  C_17
REMARK    2  A    between atoms: C_2  and  N_9
REMARK    3  A    between atoms: C_10  and  C_12
REMARK    4  A    between atoms: C_12  and  C_13
REMARK    5  A    between atoms: C_13  and  C_14
REMARK    6  A    between atoms: C_14  and  S_15
REMARK    7  A    between atoms: C_17  and  C_18
REMARK                            x       y       z     vdW  Elec       q    Type
REMARK                         _______ _______ _______ _____ _____    ______ ____
ROOT
ATOM      1  N   UNL     1      34.320 -18.823 -21.487  0.00  0.00    +0.390 N 
ATOM      2  C   UNL     1      35.297 -16.447 -22.914  0.00  0.00    +0.067 C 
ATOM      3  C   UNL     1      35.671 -17.871 -23.330  0.00  0.00    -0.003 C 
ATOM      4  C   UNL     1      34.904 -16.417 -21.435  0.00  0.00    -0.003 C 
ATOM      5  C   UNL     1      34.599 -18.890 -22.928  0.00  0.00    -0.075 C 
ATOM      6  C   UNL     1      33.858 -17.484 -21.095  0.00  0.00    -0.075 C 
ATOM      7  H   UNL     1      35.190 -19.013 -20.990  0.00  0.00    -0.079 HD
ENDROOT
BRANCH   2   9
ATOM      8  O   UNL     1      34.311 -13.722 -22.995  0.00  0.00    -0.275 OA
ATOM      9  N   UNL     1      34.239 -15.921 -23.746  0.00  0.00    -0.306 N 
ATOM     10  C   UNL     1      33.833 -14.594 -23.716  0.00  0.00    +0.222 C 
ATOM     11  H   UNL     1      33.784 -16.535 -24.366  0.00  0.00    +0.149 HD
BRANCH  10  12
ATOM     12  C   UNL     1      32.707 -14.333 -24.702  0.00  0.00    +0.086 C 
BRANCH  12  13
ATOM     13  C   UNL     1      33.115 -14.640 -26.144  0.00  0.00    +0.021 C 
BRANCH  13  14
ATOM     14  C   UNL     1      33.246 -13.402 -27.029  0.00  0.00    +0.054 C 
BRANCH  14  15
ATOM     15  S   UNL     1      33.885 -11.951 -26.141  0.00  0.00    -0.168 S 
ATOM     16  H   UNL     1      35.245 -11.968 -26.162  0.00  0.00    +0.102 HD
ENDBRANCH  14  15
ENDBRANCH  13  14
ENDBRANCH  12  13
ENDBRANCH  10  12
ENDBRANCH   2   9
BRANCH   1  17
ATOM     17  C   UNL     1      33.334 -19.836 -21.109  0.00  0.00    -0.050 C 
BRANCH  17  18
ATOM     18  C   UNL     1      33.876 -20.790 -20.078  0.00  0.00    -0.043 C 
ATOM     19  C   UNL     1      35.252 -20.892 -19.879  0.00  0.00    -0.006 C 
ATOM     20  C   UNL     1      33.001 -21.570 -19.322  0.00  0.00    -0.006 C 
ATOM     21  C   UNL     1      35.754 -21.776 -18.923  0.00  0.00    -0.000 C 
ATOM     22  C   UNL     1      33.504 -22.453 -18.367  0.00  0.00    -0.000 C 
ATOM     23  C   UNL     1      34.880 -22.557 -18.167  0.00  0.00    -0.000 C 
ENDBRANCH  17  18
ENDBRANCH   1  17
TORSDOF 7
ENDMDL
MODEL 4
REMARK VINA RESULT:      -8.0      4.210      8.233
REMARK  Name = 25134249
REMARK  7 active torsions:
REMARK  status: ('A' for Active; 'I' for Inactive)
REMARK    1  A    between atoms: N_1  and  C_17
REMARK    2  A    between atoms: C_2  and  N_9
REMARK    3  A    between atoms: C_10  and  C_12
REMARK    4  A    between atoms: C_12  and  C_13
REMARK    5  A    between atoms: C_13  and  C_14
REMARK    6  A    between atoms: C_14  and  S_15
REMARK    7  A    between atoms: C_17  and  C_18
REMARK                            x       y       z     vdW  Elec       q    Type
REMARK                         _______ _______ _______ _____ _____    ______ ____
ROOT
ATOM      1  N   UNL     1      34.189 -15.899 -22.412  0.00  0.00    +0.390 N 
ATOM      2  C   UNL     1      32.901 -13.750 -23.949  0.00  0.00    +0.067 C 
ATOM      3  C   UNL     1      32.546 -14.049 -22.490  0.00  0.00    -0.003 C 
ATOM      4  C   UNL     1      33.496 -14.995 -24.610  0.00  0.00    -0.003 C 
ATOM      5  C   UNL     1      33.714 -14.687 -21.731  0.00  0.00    -0.075 C 
ATOM      6  C   UNL     1      34.632 -15.602 -23.781  0.00  0.00    -0.075 C 
ATOM      7  H   UNL     1      33.408 -16.552 -22.470  0.00  0.00    -0.079 HD
ENDROOT
BRANCH   2   9
ATOM      8  O   UNL     1      33.321 -12.023 -26.238  0.00  0.00    -0.275 OA
ATOM      9  N   UNL     1      33.804 -12.625 -24.046  0.00  0.00    -0.306 N 
ATOM     10  C   UNL     1      33.938 -11.852 -25.191  0.00  0.00    +0.222 C 
ATOM     11  H   UNL     1      34.351 -12.397 -23.260  0.00  0.00    +0.149 HD
BRANCH  10  12
ATOM     12  C   UNL     1      34.954 -10.739 -24.995  0.00  0.00    +0.086 C 
BRANCH  12  13
ATOM     13  C   UNL     1      34.519  -9.735 -23.927  0.00  0.00    +0.021 C 
BRANCH  13  14
ATOM     14  C   UNL     1      33.033  -9.383 -23.976  0.00  0.00    +0.054 C 
BRANCH  14  15
ATOM     15  S   UNL     1      32.174  -9.676 -22.401  0.00  0.00    -0.168 S 
ATOM     16  H   UNL     1      33.082  -9.712 -21.390  0.00  0.00    +0.102 HD
ENDBRANCH  14  15
ENDBRANCH  13  14
ENDBRANCH  12  13
ENDBRANCH  10  12
ENDBRANCH   2   9
BRANCH   1  17
ATOM     17  C   UNL     1      35.268 -16.525 -21.648  0.00  0.00    -0.050 C 
BRANCH  17  18
ATOM     18  C   UNL     1      34.925 -17.933 -21.241  0.00  0.00    -0.043 C 
ATOM     19  C   UNL     1      35.941 -18.849 -20.975  0.00  0.00    -0.006 C 
ATOM     20  C   UNL     1      33.589 -18.321 -21.129  0.00  0.00    -0.006 C 
ATOM     21  C   UNL     1      35.623 -20.154 -20.597  0.00  0.00    -0.000 C 
ATOM     22  C   UNL     1      33.272 -19.625 -20.751  0.00  0.00    -0.000 C 
ATOM     23  C   UNL     1      34.288 -20.542 -20.485  0.00  0.00    -0.000 C 
ENDBRANCH  17  18
ENDBRANCH   1  17
TORSDOF 7
ENDMDL
MODEL 5
REMARK VINA RESULT:      -8.0      2.256      3.151
REMARK  Name = 25134249
REMARK  7 active torsions:
REMARK  status: ('A' for Active; 'I' for Inactive)
REMARK    1  A    between atoms: N_1  and  C_17
REMARK    2  A    between atoms: C_2  and  N_9
REMARK    3  A    between atoms: C_10  and  C_12
REMARK    4  A    between atoms: C_12  and  C_13
REMARK    5  A    between atoms: C_13  and  C_14
REMARK    6  A    between atoms: C_14  and  S_15
REMARK    7  A    between atoms: C_17  and  C_18
REMARK                            x       y       z     vdW  Elec       q    Type
REMARK                         _______ _______ _______ _____ _____    ______ ____
ROOT
ATOM      1  N   UNL     1      33.744 -14.636 -22.524  0.00  0.00    +0.390 N 
ATOM      2  C   UNL     1      35.023 -16.938 -21.221  0.00  0.00    +0.067 C 
ATOM      3  C   UNL     1      34.509 -15.728 -20.439  0.00  0.00    -0.003 C 
ATOM      4  C   UNL     1      35.317 -16.542 -22.670  0.00  0.00    -0.003 C 
ATOM      5  C   UNL     1      33.356 -15.022 -21.160  0.00  0.00    -0.075 C 
ATOM      6  C   UNL     1      34.139 -15.808 -23.317  0.00  0.00    -0.075 C 
ATOM      7  H   UNL     1      34.550 -14.016 -22.458  0.00  0.00    -0.079 HD
ENDROOT
BRANCH   2   9
ATOM      8  O   UNL     1      35.590 -19.707 -20.575  0.00  0.00    -0.275 OA
ATOM      9  N   UNL     1      34.084 -18.036 -21.161  0.00  0.00    -0.306 N 
ATOM     10  C   UNL     1      34.450 -19.336 -20.841  0.00  0.00    +0.222 C 
ATOM     11  H   UNL     1      33.137 -17.851 -21.357  0.00  0.00    +0.149 HD
BRANCH  10  12
ATOM     12  C   UNL     1      33.252 -20.270 -20.851  0.00  0.00    +0.086 C 
BRANCH  12  13
ATOM     13  C   UNL     1      33.021 -20.934 -19.492  0.00  0.00    +0.021 C 
BRANCH  13  14
ATOM     14  C   UNL     1      33.788 -22.241 -19.302  0.00  0.00    +0.054 C 
BRANCH  14  15
ATOM     15  S   UNL     1      33.395 -23.082 -17.740  0.00  0.00    -0.168 S 
ATOM     16  H   UNL     1      32.544 -24.115 -17.982  0.00  0.00    +0.102 HD
ENDBRANCH  14  15
ENDBRANCH  13  14
ENDBRANCH  12  13
ENDBRANCH  10  12
ENDBRANCH   2   9
BRANCH   1  17
ATOM     17  C   UNL     1      32.652 -13.917 -23.182  0.00  0.00    -0.050 C 
BRANCH  17  18
ATOM     18  C   UNL     1      33.074 -13.347 -24.509  0.00  0.00    -0.043 C 
ATOM     19  C   UNL     1      33.746 -12.126 -24.562  0.00  0.00    -0.006 C 
ATOM     20  C   UNL     1      32.795 -14.041 -25.687  0.00  0.00    -0.006 C 
ATOM     21  C   UNL     1      34.138 -11.598 -25.793  0.00  0.00    -0.000 C 
ATOM     22  C   UNL     1      33.187 -13.513 -26.917  0.00  0.00    -0.000 C 
ATOM     23  C   UNL     1      33.859 -12.292 -26.970  0.00  0.00    -0.000 C 
ENDBRANCH  17  18
ENDBRANCH   1  17
TORSDOF 7
ENDMDL
MODEL 6
REMARK VINA RESULT:      -8.0      3.252      5.663
REMARK  Name = 25134249
REMARK  7 active torsions:
REMARK  status: ('A' for Active; 'I' for Inactive)
REMARK    1  A    between atoms: N_1  and  C_17
REMARK    2  A    between atoms: C_2  and  N_9
REMARK    3  A    between atoms: C_10  and  C_12
REMARK    4  A    between atoms: C_12  and  C_13
REMARK    5  A    between atoms: C_13  and  C_14
REMARK    6  A    between atoms: C_14  and  S_15
REMARK    7  A    between atoms: C_17  and  C_18
REMARK                            x       y       z     vdW  Elec       q    Type
REMARK                         _______ _______ _______ _____ _____    ______ ____
ROOT
ATOM      1  N   UNL     1      32.023  -9.005 -21.075  0.00  0.00    +0.390 N 
ATOM      2  C   UNL     1      31.146 -11.801 -20.844  0.00  0.00    +0.067 C 
ATOM      3  C   UNL     1      31.321 -11.100 -22.193  0.00  0.00    -0.003 C 
ATOM      4  C   UNL     1      30.907 -10.767 -19.741  0.00  0.00    -0.003 C 
ATOM      5  C   UNL     1      32.358  -9.974 -22.128  0.00  0.00    -0.075 C 
ATOM      6  C   UNL     1      31.958  -9.652 -19.758  0.00  0.00    -0.075 C 
ATOM      7  H   UNL     1      31.101  -8.622 -21.283  0.00  0.00    -0.079 HD
ENDROOT
BRANCH   2   9
ATOM      8  O   UNL     1      31.949 -14.244 -22.182  0.00  0.00    -0.275 OA
ATOM      9  N   UNL     1      32.287 -12.635 -20.538  0.00  0.00    -0.306 N 
ATOM     10  C   UNL     1      32.593 -13.794 -21.238  0.00  0.00    +0.222 C 
ATOM     11  H   UNL     1      32.876 -12.367 -19.797  0.00  0.00    +0.149 HD
BRANCH  10  12
ATOM     12  C   UNL     1      33.849 -14.456 -20.696  0.00  0.00    +0.086 C 
BRANCH  12  13
ATOM     13  C   UNL     1      34.484 -15.413 -21.707  0.00  0.00    +0.021 C 
BRANCH  13  14
ATOM     14  C   UNL     1      34.881 -16.765 -21.117  0.00  0.00    +0.054 C 
BRANCH  14  15
ATOM     15  S   UNL     1      35.548 -17.918 -22.353  0.00  0.00    -0.168 S 
ATOM     16  H   UNL     1      36.889 -18.051 -22.171  0.00  0.00    +0.102 HD
ENDBRANCH  14  15
ENDBRANCH  13  14
ENDBRANCH  12  13
ENDBRANCH  10  12
ENDBRANCH   2   9
BRANCH   1  17
ATOM     17  C   UNL     1      32.993  -7.910 -21.061  0.00  0.00    -0.050 C 
BRANCH  17  18
ATOM     18  C   UNL     1      33.165  -7.294 -22.424  0.00  0.00    -0.043 C 
ATOM     19  C   UNL     1      34.331  -7.528 -23.152  0.00  0.00    -0.006 C 
ATOM     20  C   UNL     1      32.157  -6.491 -22.959  0.00  0.00    -0.006 C 
ATOM     21  C   UNL     1      34.490  -6.958 -24.415  0.00  0.00    -0.000 C 
ATOM     22  C   UNL     1      32.317  -5.922 -24.222  0.00  0.00    -0.000 C 
ATOM     23  C   UNL     1      33.482  -6.155 -24.950  0.00  0.00    -0.000 C 
ENDBRANCH  17  18
ENDBRANCH   1  17
TORSDOF 7
ENDMDL
MODEL 7
REMARK VINA RESULT:      -7.9      2.783      3.420
REMARK  Name = 25134249
REMARK  7 active torsions:
REMARK  status: ('A' for Active; 'I' for Inactive)
REMARK    1  A    between atoms: N_1  and  C_17
REMARK    2  A    between atoms: C_2  and  N_9
REMARK    3  A    between atoms: C_10  and  C_12
REMARK    4  A    between atoms: C_12  and  C_13
REMARK    5  A    between atoms: C_13  and  C_14
REMARK    6  A    between atoms: C_14  and  S_15
REMARK    7  A    between atoms: C_17  and  C_18
REMARK                            x       y       z     vdW  Elec       q    Type
REMARK                         _______ _______ _______ _____ _____    ______ ____
ROOT
ATOM      1  N   UNL     1      33.280 -13.470 -22.473  0.00  0.00    +0.390 N 
ATOM      2  C   UNL     1      33.891 -15.735 -20.703  0.00  0.00    +0.067 C 
ATOM      3  C   UNL     1      32.549 -14.998 -20.668  0.00  0.00    -0.003 C 
ATOM      4  C   UNL     1      34.976 -14.824 -21.282  0.00  0.00    -0.003 C 
ATOM      5  C   UNL     1      32.205 -14.363 -22.019  0.00  0.00    -0.075 C 
ATOM      6  C   UNL     1      34.550 -14.194 -22.612  0.00  0.00    -0.075 C 
ATOM      7  H   UNL     1      33.406 -12.746 -21.767  0.00  0.00    -0.079 HD
ENDROOT
BRANCH   2   9
ATOM      8  O   UNL     1      35.665 -18.023 -20.575  0.00  0.00    -0.275 OA
ATOM      9  N   UNL     1      33.789 -16.967 -21.452  0.00  0.00    -0.306 N 
ATOM     10  C   UNL     1      34.691 -18.014 -21.323  0.00  0.00    +0.222 C 
ATOM     11  H   UNL     1      33.042 -17.069 -22.085  0.00  0.00    +0.149 HD
BRANCH  10  12
ATOM     12  C   UNL     1      34.327 -19.178 -22.229  0.00  0.00    +0.086 C 
BRANCH  12  13
ATOM     13  C   UNL     1      35.142 -19.183 -23.524  0.00  0.00    +0.021 C 
BRANCH  13  14
ATOM     14  C   UNL     1      34.355 -18.733 -24.754  0.00  0.00    +0.054 C 
BRANCH  14  15
ATOM     15  S   UNL     1      34.548 -16.964 -25.120  0.00  0.00    -0.168 S 
ATOM     16  H   UNL     1      35.015 -16.321 -24.016  0.00  0.00    +0.102 HD
ENDBRANCH  14  15
ENDBRANCH  13  14
ENDBRANCH  12  13
ENDBRANCH  10  12
ENDBRANCH   2   9
BRANCH   1  17
ATOM     17  C   UNL     1      32.913 -12.831 -23.738  0.00  0.00    -0.050 C 
BRANCH  17  18
ATOM     18  C   UNL     1      33.415 -11.414 -23.817  0.00  0.00    -0.043 C 
ATOM     19  C   UNL     1      32.800 -10.414 -23.065  0.00  0.00    -0.006 C 
ATOM     20  C   UNL     1      34.497 -11.102 -24.641  0.00  0.00    -0.006 C 
ATOM     21  C   UNL     1      33.266  -9.101 -23.138  0.00  0.00    -0.000 C 
ATOM     22  C   UNL     1      34.962  -9.790 -24.713  0.00  0.00    -0.000 C 
ATOM     23  C   UNL     1      34.348  -8.789 -23.962  0.00  0.00    -0.000 C 
ENDBRANCH  17  18
ENDBRANCH   1  17
TORSDOF 7
ENDMDL
MODEL 8
REMARK VINA RESULT:      -7.9      3.285      7.823
REMARK  Name = 25134249
REMARK  7 active torsions:
REMARK  status: ('A' for Active; 'I' for Inactive)
REMARK    1  A    between atoms: N_1  and  C_17
REMARK    2  A    between atoms: C_2  and  N_9
REMARK    3  A    between atoms: C_10  and  C_12
REMARK    4  A    between atoms: C_12  and  C_13
REMARK    5  A    between atoms: C_13  and  C_14
REMARK    6  A    between atoms: C_14  and  S_15
REMARK    7  A    between atoms: C_17  and  C_18
REMARK                            x       y       z     vdW  Elec       q    Type
REMARK                         _______ _______ _______ _____ _____    ______ ____
ROOT
ATOM      1  N   UNL     1      33.926 -17.491 -20.939  0.00  0.00    +0.390 N 
ATOM      2  C   UNL     1      33.341 -14.626 -20.644  0.00  0.00    +0.067 C 
ATOM      3  C   UNL     1      34.724 -15.219 -20.366  0.00  0.00    -0.003 C 
ATOM      4  C   UNL     1      32.267 -15.707 -20.499  0.00  0.00    -0.003 C 
ATOM      5  C   UNL     1      34.979 -16.494 -21.176  0.00  0.00    -0.075 C 
ATOM      6  C   UNL     1      32.603 -16.966 -21.304  0.00  0.00    -0.075 C 
ATOM      7  H   UNL     1      33.914 -17.704 -19.942  0.00  0.00    -0.079 HD
ENDROOT
BRANCH   2   9
ATOM      8  O   UNL     1      31.648 -12.431 -21.493  0.00  0.00    -0.275 OA
ATOM      9  N   UNL     1      33.290 -14.012 -21.951  0.00  0.00    -0.306 N 
ATOM     10  C   UNL     1      32.442 -12.959 -22.267  0.00  0.00    +0.222 C 
ATOM     11  H   UNL     1      33.888 -14.357 -22.653  0.00  0.00    +0.149 HD
BRANCH  10  12
ATOM     12  C   UNL     1      32.615 -12.519 -23.711  0.00  0.00    +0.086 C 
BRANCH  12  13
ATOM     13  C   UNL     1      33.684 -13.332 -24.443  0.00  0.00    +0.021 C 
BRANCH  13  14
ATOM     14  C   UNL     1      33.119 -14.418 -25.356  0.00  0.00    +0.054 C 
BRANCH  14  15
ATOM     15  S   UNL     1      33.936 -16.028 -25.145  0.00  0.00    -0.168 S 
ATOM     16  H   UNL     1      33.501 -16.610 -23.996  0.00  0.00    +0.102 HD
ENDBRANCH  14  15
ENDBRANCH  13  14
ENDBRANCH  12  13
ENDBRANCH  10  12
ENDBRANCH   2   9
BRANCH   1  17
ATOM     17  C   UNL     1      34.210 -18.721 -21.678  0.00  0.00    -0.050 C 
BRANCH  17  18
ATOM     18  C   UNL     1      34.367 -19.904 -20.760  0.00  0.00    -0.043 C 
ATOM     19  C   UNL     1      33.240 -20.513 -20.209  0.00  0.00    -0.006 C 
ATOM     20  C   UNL     1      35.640 -20.392 -20.462  0.00  0.00    -0.006 C 
ATOM     21  C   UNL     1      33.386 -21.610 -19.359  0.00  0.00    -0.000 C 
ATOM     22  C   UNL     1      35.785 -21.488 -19.612  0.00  0.00    -0.000 C 
ATOM     23  C   UNL     1      34.658 -22.097 -19.061  0.00  0.00    -0.000 C 
ENDBRANCH  17  18
ENDBRANCH   1  17
TORSDOF 7
ENDMDL
MODEL 9
REMARK VINA RESULT:      -7.8      3.169      4.737
REMARK  Name = 25134249
REMARK  7 active torsions:
REMARK  status: ('A' for Active; 'I' for Inactive)
REMARK    1  A    between atoms: N_1  and  C_17
REMARK    2  A    between atoms: C_2  and  N_9
REMARK    3  A    between atoms: C_10  and  C_12
REMARK    4  A    between atoms: C_12  and  C_13
REMARK    5  A    between atoms: C_13  and  C_14
REMARK    6  A    between atoms: C_14  and  S_15
REMARK    7  A    between atoms: C_17  and  C_18
REMARK                            x       y       z     vdW  Elec       q    Type
REMARK                         _______ _______ _______ _____ _____    ______ ____
ROOT
ATOM      1  N   UNL     1      34.570 -17.459 -22.262  0.00  0.00    +0.390 N 
ATOM      2  C   UNL     1      34.615 -20.239 -21.311  0.00  0.00    +0.067 C 
ATOM      3  C   UNL     1      35.339 -19.790 -22.582  0.00  0.00    -0.003 C 
ATOM      4  C   UNL     1      33.470 -19.275 -20.990  0.00  0.00    -0.003 C 
ATOM      5  C   UNL     1      35.737 -18.311 -22.527  0.00  0.00    -0.075 C 
ATOM      6  C   UNL     1      33.929 -17.814 -20.989  0.00  0.00    -0.075 C 
ATOM      7  H   UNL     1      33.893 -17.613 -23.009  0.00  0.00    -0.079 HD
ENDROOT
BRANCH   2   9
ATOM      8  O   UNL     1      34.954 -22.497 -19.525  0.00  0.00    -0.275 OA
ATOM      9  N   UNL     1      35.532 -20.349 -20.199  0.00  0.00    -0.306 N 
ATOM     10  C   UNL     1      35.624 -21.476 -19.395  0.00  0.00    +0.222 C 
ATOM     11  H   UNL     1      36.121 -19.585 -20.003  0.00  0.00    +0.149 HD
BRANCH  10  12
ATOM     12  C   UNL     1      36.676 -21.304 -18.313  0.00  0.00    +0.086 C 
BRANCH  12  13
ATOM     13  C   UNL     1      36.362 -22.124 -17.060  0.00  0.00    +0.021 C 
BRANCH  13  14
ATOM     14  C   UNL     1      37.577 -22.395 -16.175  0.00  0.00    +0.054 C 
BRANCH  14  15
ATOM     15  S   UNL     1      37.343 -23.799 -15.046  0.00  0.00    -0.168 S 
ATOM     16  H   UNL     1      38.551 -24.348 -14.748  0.00  0.00    +0.102 HD
ENDBRANCH  14  15
ENDBRANCH  13  14
ENDBRANCH  12  13
ENDBRANCH  10  12
ENDBRANCH   2   9
BRANCH   1  17
ATOM     17  C   UNL     1      34.957 -16.047 -22.265  0.00  0.00    -0.050 C 
BRANCH  17  18
ATOM     18  C   UNL     1      34.319 -15.293 -23.401  0.00  0.00    -0.043 C 
ATOM     19  C   UNL     1      34.047 -13.932 -23.268  0.00  0.00    -0.006 C 
ATOM     20  C   UNL     1      34.001 -15.955 -24.587  0.00  0.00    -0.006 C 
ATOM     21  C   UNL     1      33.457 -13.233 -24.322  0.00  0.00    -0.000 C 
ATOM     22  C   UNL     1      33.411 -15.256 -25.640  0.00  0.00    -0.000 C 
ATOM     23  C   UNL     1      33.139 -13.895 -25.507  0.00  0.00    -0.000 C 
ENDBRANCH  17  18
ENDBRANCH   1  17
TORSDOF 7
ENDMDL
