MODEL 1
REMARK VINA RESULT:      -7.8      0.000      0.000
REMARK  Name = 71807
REMARK  6 active torsions:
REMARK  status: ('A' for Active; 'I' for Inactive)
REMARK    1  A    between atoms: N_2  and  CA_11
REMARK    2  A    between atoms: C_3  and  C_19
REMARK    3  A    between atoms: CA_10  and  C_16
REMARK    4  A    between atoms: C_16  and  O_17
REMARK    5  A    between atoms: C_19  and  C_22
REMARK    6  A    between atoms: C_19  and  O_28
REMARK                            x       y       z     vdW  Elec       q    Type
REMARK                         _______ _______ _______ _____ _____    ______ ____
ROOT
ATOM      1  O   UNL     1      31.993 -13.051 -24.094  0.00  0.00    -0.272 OA
ATOM      2  N   UNL     1      32.880 -11.254 -22.920  0.00  0.00    -0.294 N 
ATOM      3  C   UNL     1      32.365 -12.547 -23.036  0.00  0.00    +0.254 C 
ATOM      4  H   UNL     1      33.151 -10.936 -22.029  0.00  0.00    +0.150 HD
ENDROOT
BRANCH   2  11
ATOM      5  S   UNL     1      31.140  -8.763 -22.620  0.00  0.00    -0.118 S 
ATOM      6  O   UNL     1      35.358  -9.379 -23.647  0.00  0.00    -0.273 OA
ATOM      7  N   UNL     1      33.300  -8.291 -24.032  0.00  0.00    -0.260 N 
ATOM      8  C   UNL     1      32.104  -9.128 -24.136  0.00  0.00    +0.151 C 
ATOM      9  C   UNL     1      32.316  -7.452 -22.018  0.00  0.00    +0.068 C 
ATOM     10  CA  UNL     1      33.246  -7.109 -23.203  0.00  0.00    +0.184 C 
ATOM     11  CA  UNL     1      33.034 -10.349 -24.066  0.00  0.00    +0.178 C 
ATOM     12  C   UNL     1      34.177  -9.328 -23.908  0.00  0.00    +0.247 C 
ATOM     13  C   UNL     1      31.511  -6.257 -21.496  0.00  0.00    +0.013 C 
ATOM     14  C   UNL     1      33.119  -8.057 -20.854  0.00  0.00    +0.013 C 
BRANCH  10  16
ATOM     15  OXT UNL     1      31.739  -5.374 -23.951  0.00  0.00    -0.248 OA
ATOM     16  C   UNL     1      32.747  -6.043 -24.129  0.00  0.00    +0.333 C 
BRANCH  16  17
ATOM     17  O   UNL     1      33.566  -5.917 -25.202  0.00  0.00    -0.479 OA
ATOM     18  H   UNL     1      34.093  -5.150 -25.301  0.00  0.00    +0.295 HD
ENDBRANCH  16  17
ENDBRANCH  10  16
ENDBRANCH   2  11
BRANCH   3  19
ATOM     19  C   UNL     1      32.325 -13.293 -21.710  0.00  0.00    +0.213 C 
BRANCH  19  22
ATOM     20 CL   UNL     1      34.797 -16.920 -24.449  0.00  0.00    -0.081 Cl
ATOM     21 CL   UNL     1      35.990 -18.054 -21.664  0.00  0.00    -0.081 Cl
ATOM     22  C   UNL     1      33.244 -14.491 -21.715  0.00  0.00    +0.014 C 
ATOM     23  C   UNL     1      33.569 -15.092 -22.920  0.00  0.00    +0.011 C 
ATOM     24  C   UNL     1      33.746 -14.966 -20.514  0.00  0.00    -0.001 C 
ATOM     25  C   UNL     1      34.418 -16.198 -22.925  0.00  0.00    +0.068 C 
ATOM     26  C   UNL     1      34.595 -16.072 -20.518  0.00  0.00    +0.012 C 
ATOM     27  C   UNL     1      34.932 -16.689 -21.724  0.00  0.00    +0.068 C 
ENDBRANCH  19  22
BRANCH  19  28
ATOM     28  O   UNL     1      32.721 -12.416 -20.665  0.00  0.00    -0.340 OA
ATOM     29  C   UNL     1      31.598 -11.841 -20.010  0.00  0.00    +0.175 C 
ENDBRANCH  19  28
ENDBRANCH   3  19
TORSDOF 6
ENDMDL
MODEL 2
REMARK VINA RESULT:      -7.7     14.559     17.090
REMARK  Name = 71807
REMARK  6 active torsions:
REMARK  status: ('A' for Active; 'I' for Inactive)
REMARK    1  A    between atoms: N_2  and  CA_11
REMARK    2  A    between atoms: C_3  and  C_19
REMARK    3  A    between atoms: CA_10  and  C_16
REMARK    4  A    between atoms: C_16  and  O_17
REMARK    5  A    between atoms: C_19  and  C_22
REMARK    6  A    between atoms: C_19  and  O_28
REMARK                            x       y       z     vdW  Elec       q    Type
REMARK                         _______ _______ _______ _____ _____    ______ ____
ROOT
ATOM      1  O   UNL     1      34.520 -22.830 -15.877  0.00  0.00    -0.272 OA
ATOM      2  N   UNL     1      34.900 -24.843 -14.783  0.00  0.00    -0.294 N 
ATOM      3  C   UNL     1      34.216 -23.647 -15.011  0.00  0.00    +0.254 C 
ATOM      4  H   UNL     1      34.582 -25.435 -14.064  0.00  0.00    +0.150 HD
ENDROOT
BRANCH   2  11
ATOM      5  S   UNL     1      37.430 -23.407 -13.853  0.00  0.00    -0.118 S 
ATOM      6  O   UNL     1      36.486 -27.610 -14.673  0.00  0.00    -0.273 OA
ATOM      7  N   UNL     1      37.954 -25.773 -14.860  0.00  0.00    -0.260 N 
ATOM      8  C   UNL     1      37.390 -24.503 -15.322  0.00  0.00    +0.151 C 
ATOM      9  C   UNL     1      38.293 -24.653 -12.772  0.00  0.00    +0.068 C 
ATOM     10  CA  UNL     1      38.823 -25.763 -13.706  0.00  0.00    +0.184 C 
ATOM     11  CA  UNL     1      36.072 -25.255 -15.566  0.00  0.00    +0.178 C 
ATOM     12  C   UNL     1      36.801 -26.489 -14.999  0.00  0.00    +0.247 C 
ATOM     13  C   UNL     1      39.387 -23.945 -11.966  0.00  0.00    +0.013 C 
ATOM     14  C   UNL     1      37.245 -25.218 -11.798  0.00  0.00    +0.013 C 
BRANCH  10  16
ATOM     15  OXT UNL     1      40.493 -24.570 -14.983  0.00  0.00    -0.248 OA
ATOM     16  C   UNL     1      40.185 -25.524 -14.285  0.00  0.00    +0.333 C 
BRANCH  16  17
ATOM     17  O   UNL     1      41.037 -26.517 -13.930  0.00  0.00    -0.479 OA
ATOM     18  H   UNL     1      41.861 -26.605 -14.366  0.00  0.00    +0.295 HD
ENDBRANCH  16  17
ENDBRANCH  10  16
ENDBRANCH   2  11
BRANCH   3  19
ATOM     19  C   UNL     1      33.025 -23.457 -14.082  0.00  0.00    +0.213 C 
BRANCH  19  22
ATOM     20 CL   UNL     1      28.524 -25.977 -14.486  0.00  0.00    -0.081 Cl
ATOM     21 CL   UNL     1      27.826 -24.097 -17.025  0.00  0.00    -0.081 Cl
ATOM     22  C   UNL     1      31.714 -23.632 -14.812  0.00  0.00    +0.014 C 
ATOM     23  C   UNL     1      30.820 -24.598 -14.382  0.00  0.00    +0.011 C 
ATOM     24  C   UNL     1      31.430 -22.819 -15.898  0.00  0.00    -0.001 C 
ATOM     25  C   UNL     1      29.610 -24.758 -15.055  0.00  0.00    +0.068 C 
ATOM     26  C   UNL     1      30.220 -22.980 -16.572  0.00  0.00    +0.012 C 
ATOM     27  C   UNL     1      29.309 -23.949 -16.151  0.00  0.00    +0.068 C 
ENDBRANCH  19  22
BRANCH  19  28
ATOM     28  O   UNL     1      33.093 -24.408 -13.029  0.00  0.00    -0.340 OA
ATOM     29  C   UNL     1      34.077 -24.052 -12.066  0.00  0.00    +0.175 C 
ENDBRANCH  19  28
ENDBRANCH   3  19
TORSDOF 6
ENDMDL
MODEL 3
REMARK VINA RESULT:      -7.2      4.596      8.811
REMARK  Name = 71807
REMARK  6 active torsions:
REMARK  status: ('A' for Active; 'I' for Inactive)
REMARK    1  A    between atoms: N_2  and  CA_11
REMARK    2  A    between atoms: C_3  and  C_19
REMARK    3  A    between atoms: CA_10  and  C_16
REMARK    4  A    between atoms: C_16  and  O_17
REMARK    5  A    between atoms: C_19  and  C_22
REMARK    6  A    between atoms: C_19  and  O_28
REMARK                            x       y       z     vdW  Elec       q    Type
REMARK                         _______ _______ _______ _____ _____    ______ ____
ROOT
ATOM      1  O   UNL     1      32.349 -12.929 -21.374  0.00  0.00    -0.272 OA
ATOM      2  N   UNL     1      32.878 -14.915 -22.456  0.00  0.00    -0.294 N 
ATOM      3  C   UNL     1      32.579 -13.552 -22.408  0.00  0.00    +0.254 C 
ATOM      4  H   UNL     1      33.048 -15.327 -23.334  0.00  0.00    +0.150 HD
ENDROOT
BRANCH   2  11
ATOM      5  S   UNL     1      33.508 -17.816 -23.168  0.00  0.00    -0.118 S 
ATOM      6  O   UNL     1      35.169 -15.011 -20.236  0.00  0.00    -0.273 OA
ATOM      7  N   UNL     1      34.398 -17.172 -20.785  0.00  0.00    -0.260 N 
ATOM      8  C   UNL     1      33.105 -17.274 -21.464  0.00  0.00    +0.151 C 
ATOM      9  C   UNL     1      35.331 -17.985 -22.834  0.00  0.00    +0.068 C 
ATOM     10  CA  UNL     1      35.510 -17.937 -21.300  0.00  0.00    +0.184 C 
ATOM     11  CA  UNL     1      32.952 -15.759 -21.257  0.00  0.00    +0.178 C 
ATOM     12  C   UNL     1      34.354 -15.819 -20.619  0.00  0.00    +0.247 C 
ATOM     13  C   UNL     1      35.841 -19.279 -23.477  0.00  0.00    +0.013 C 
ATOM     14  C   UNL     1      36.031 -16.789 -23.500  0.00  0.00    +0.013 C 
BRANCH  10  16
ATOM     15  OXT UNL     1      34.373 -19.914 -20.501  0.00  0.00    -0.248 OA
ATOM     16  C   UNL     1      35.398 -19.254 -20.595  0.00  0.00    +0.333 C 
BRANCH  16  17
ATOM     17  O   UNL     1      36.592 -19.619 -20.068  0.00  0.00    -0.479 OA
ATOM     18  H   UNL     1      36.911 -19.199 -19.294  0.00  0.00    +0.295 HD
ENDBRANCH  16  17
ENDBRANCH  10  16
ENDBRANCH   2  11
BRANCH   3  19
ATOM     19  C   UNL     1      32.583 -12.894 -23.781  0.00  0.00    +0.213 C 
BRANCH  19  22
ATOM     20 CL   UNL     1      32.075  -8.069 -21.982  0.00  0.00    -0.081 Cl
ATOM     21 CL   UNL     1      34.780  -7.304 -23.585  0.00  0.00    -0.081 Cl
ATOM     22  C   UNL     1      33.122 -11.484 -23.722  0.00  0.00    +0.014 C 
ATOM     23  C   UNL     1      32.449 -10.530 -22.977  0.00  0.00    +0.011 C 
ATOM     24  C   UNL     1      34.280 -11.171 -24.415  0.00  0.00    -0.001 C 
ATOM     25  C   UNL     1      32.947  -9.229 -22.922  0.00  0.00    +0.068 C 
ATOM     26  C   UNL     1      34.778  -9.870 -24.361  0.00  0.00    +0.012 C 
ATOM     27  C   UNL     1      34.112  -8.898 -23.614  0.00  0.00    +0.068 C 
ENDBRANCH  19  22
BRANCH  19  28
ATOM     28  O   UNL     1      33.391 -13.656 -24.666  0.00  0.00    -0.340 OA
ATOM     29  C   UNL     1      32.651 -14.103 -25.795  0.00  0.00    +0.175 C 
ENDBRANCH  19  28
ENDBRANCH   3  19
TORSDOF 6
ENDMDL
MODEL 4
REMARK VINA RESULT:      -7.2      5.080      9.434
REMARK  Name = 71807
REMARK  6 active torsions:
REMARK  status: ('A' for Active; 'I' for Inactive)
REMARK    1  A    between atoms: N_2  and  CA_11
REMARK    2  A    between atoms: C_3  and  C_19
REMARK    3  A    between atoms: CA_10  and  C_16
REMARK    4  A    between atoms: C_16  and  O_17
REMARK    5  A    between atoms: C_19  and  C_22
REMARK    6  A    between atoms: C_19  and  O_28
REMARK                            x       y       z     vdW  Elec       q    Type
REMARK                         _______ _______ _______ _____ _____    ______ ____
ROOT
ATOM      1  O   UNL     1      35.173 -14.484 -22.406  0.00  0.00    -0.272 OA
ATOM      2  N   UNL     1      34.415 -16.483 -23.313  0.00  0.00    -0.294 N 
ATOM      3  C   UNL     1      34.314 -15.125 -23.008  0.00  0.00    +0.254 C 
ATOM      4  H   UNL     1      33.674 -16.911 -23.799  0.00  0.00    +0.150 HD
ENDROOT
BRANCH   2  11
ATOM      5  S   UNL     1      34.034 -17.794 -20.582  0.00  0.00    -0.118 S 
ATOM      6  O   UNL     1      35.309 -19.310 -24.494  0.00  0.00    -0.273 OA
ATOM      7  N   UNL     1      35.579 -19.221 -22.152  0.00  0.00    -0.260 N 
ATOM      8  C   UNL     1      35.602 -17.898 -21.526  0.00  0.00    +0.151 C 
ATOM      9  C   UNL     1      33.517 -19.538 -20.979  0.00  0.00    +0.068 C 
ATOM     10  CA  UNL     1      34.758 -20.251 -21.558  0.00  0.00    +0.184 C 
ATOM     11  CA  UNL     1      35.577 -17.301 -22.942  0.00  0.00    +0.178 C 
ATOM     12  C   UNL     1      35.498 -18.760 -23.433  0.00  0.00    +0.247 C 
ATOM     13  C   UNL     1      32.958 -20.195 -19.713  0.00  0.00    +0.013 C 
ATOM     14  C   UNL     1      32.398 -19.455 -22.031  0.00  0.00    +0.013 C 
BRANCH  10  16
ATOM     15  OXT UNL     1      36.444 -20.294 -19.825  0.00  0.00    -0.248 OA
ATOM     16  C   UNL     1      35.663 -20.893 -20.550  0.00  0.00    +0.333 C 
BRANCH  16  17
ATOM     17  O   UNL     1      35.500 -22.239 -20.550  0.00  0.00    -0.479 OA
ATOM     18  H   UNL     1      35.975 -22.768 -19.940  0.00  0.00    +0.295 HD
ENDBRANCH  16  17
ENDBRANCH  10  16
ENDBRANCH   2  11
BRANCH   3  19
ATOM     19  C   UNL     1      33.025 -14.495 -23.517  0.00  0.00    +0.213 C 
BRANCH  19  22
ATOM     20 CL   UNL     1      31.345  -9.662 -22.747  0.00  0.00    -0.081 Cl
ATOM     21 CL   UNL     1      30.893 -10.432 -19.638  0.00  0.00    -0.081 Cl
ATOM     22  C   UNL     1      32.489 -13.462 -22.554  0.00  0.00    +0.014 C 
ATOM     23  C   UNL     1      32.194 -12.191 -23.017  0.00  0.00    +0.011 C 
ATOM     24  C   UNL     1      32.302 -13.807 -21.226  0.00  0.00    -0.001 C 
ATOM     25  C   UNL     1      31.698 -11.237 -22.129  0.00  0.00    +0.068 C 
ATOM     26  C   UNL     1      31.807 -12.854 -20.336  0.00  0.00    +0.012 C 
ATOM     27  C   UNL     1      31.505 -11.568 -20.787  0.00  0.00    +0.068 C 
ENDBRANCH  19  22
BRANCH  19  28
ATOM     28  O   UNL     1      33.269 -13.871 -24.769  0.00  0.00    -0.340 OA
ATOM     29  C   UNL     1      32.814 -14.674 -25.852  0.00  0.00    +0.175 C 
ENDBRANCH  19  28
ENDBRANCH   3  19
TORSDOF 6
ENDMDL
MODEL 5
REMARK VINA RESULT:      -7.1      2.077      3.268
REMARK  Name = 71807
REMARK  6 active torsions:
REMARK  status: ('A' for Active; 'I' for Inactive)
REMARK    1  A    between atoms: N_2  and  CA_11
REMARK    2  A    between atoms: C_3  and  C_19
REMARK    3  A    between atoms: CA_10  and  C_16
REMARK    4  A    between atoms: C_16  and  O_17
REMARK    5  A    between atoms: C_19  and  C_22
REMARK    6  A    between atoms: C_19  and  O_28
REMARK                            x       y       z     vdW  Elec       q    Type
REMARK                         _______ _______ _______ _____ _____    ______ ____
ROOT
ATOM      1  O   UNL     1      32.108 -13.073 -22.362  0.00  0.00    -0.272 OA
ATOM      2  N   UNL     1      33.189 -11.050 -22.730  0.00  0.00    -0.294 N 
ATOM      3  C   UNL     1      32.939 -12.402 -22.972  0.00  0.00    +0.254 C 
ATOM      4  H   UNL     1      33.875 -10.596 -23.271  0.00  0.00    +0.150 HD
ENDROOT
BRANCH   2  11
ATOM      5  S   UNL     1      33.889  -8.082 -22.881  0.00  0.00    -0.118 S 
ATOM      6  O   UNL     1      30.097 -10.268 -22.632  0.00  0.00    -0.273 OA
ATOM      7  N   UNL     1      31.469  -8.476 -21.946  0.00  0.00    -0.260 N 
ATOM      8  C   UNL     1      32.844  -8.792 -21.553  0.00  0.00    +0.151 C 
ATOM      9  C   UNL     1      32.458  -7.319 -23.793  0.00  0.00    +0.068 C 
ATOM     10  CA  UNL     1      31.245  -7.362 -22.837  0.00  0.00    +0.184 C 
ATOM     11  CA  UNL     1      32.476 -10.276 -21.706  0.00  0.00    +0.178 C 
ATOM     12  C   UNL     1      31.091  -9.770 -22.156  0.00  0.00    +0.247 C 
ATOM     13  C   UNL     1      32.845  -5.906 -24.242  0.00  0.00    +0.013 C 
ATOM     14  C   UNL     1      32.197  -8.182 -25.040  0.00  0.00    +0.013 C 
BRANCH  10  16
ATOM     15  OXT UNL     1      31.819  -5.969 -20.947  0.00  0.00    -0.248 OA
ATOM     16  C   UNL     1      31.107  -6.188 -21.916  0.00  0.00    +0.333 C 
BRANCH  16  17
ATOM     17  O   UNL     1      30.079  -5.394 -22.303  0.00  0.00    -0.479 OA
ATOM     18  H   UNL     1      29.246  -5.468 -21.881  0.00  0.00    +0.295 HD
ENDBRANCH  16  17
ENDBRANCH  10  16
ENDBRANCH   2  11
BRANCH   3  19
ATOM     19  C   UNL     1      33.792 -12.973 -24.096  0.00  0.00    +0.213 C 
BRANCH  19  22
ATOM     20 CL   UNL     1      35.130 -16.815 -20.899  0.00  0.00    -0.081 Cl
ATOM     21 CL   UNL     1      34.821 -18.851 -23.395  0.00  0.00    -0.081 Cl
ATOM     22  C   UNL     1      34.055 -14.448 -23.904  0.00  0.00    +0.014 C 
ATOM     23  C   UNL     1      34.425 -14.914 -22.653  0.00  0.00    +0.011 C 
ATOM     24  C   UNL     1      33.919 -15.307 -24.982  0.00  0.00    -0.001 C 
ATOM     25  C   UNL     1      34.668 -16.275 -22.475  0.00  0.00    +0.068 C 
ATOM     26  C   UNL     1      34.162 -16.669 -24.805  0.00  0.00    +0.012 C 
ATOM     27  C   UNL     1      34.537 -17.154 -23.551  0.00  0.00    +0.068 C 
ENDBRANCH  19  22
BRANCH  19  28
ATOM     28  O   UNL     1      33.123 -12.785 -25.335  0.00  0.00    -0.340 OA
ATOM     29  C   UNL     1      33.858 -11.928 -26.201  0.00  0.00    +0.175 C 
ENDBRANCH  19  28
ENDBRANCH   3  19
TORSDOF 6
ENDMDL
MODEL 6
REMARK VINA RESULT:      -7.1      1.479      2.207
REMARK  Name = 71807
REMARK  6 active torsions:
REMARK  status: ('A' for Active; 'I' for Inactive)
REMARK    1  A    between atoms: N_2  and  CA_11
REMARK    2  A    between atoms: C_3  and  C_19
REMARK    3  A    between atoms: CA_10  and  C_16
REMARK    4  A    between atoms: C_16  and  O_17
REMARK    5  A    between atoms: C_19  and  C_22
REMARK    6  A    between atoms: C_19  and  O_28
REMARK                            x       y       z     vdW  Elec       q    Type
REMARK                         _______ _______ _______ _____ _____    ______ ____
ROOT
ATOM      1  O   UNL     1      34.129 -11.251 -24.410  0.00  0.00    -0.272 OA
ATOM      2  N   UNL     1      32.477  -9.816 -23.635  0.00  0.00    -0.294 N 
ATOM      3  C   UNL     1      33.134 -11.045 -23.719  0.00  0.00    +0.254 C 
ATOM      4  H   UNL     1      31.686  -9.746 -23.054  0.00  0.00    +0.150 HD
ENDROOT
BRANCH   2  11
ATOM      5  S   UNL     1      30.460  -7.539 -23.377  0.00  0.00    -0.118 S 
ATOM      6  O   UNL     1      34.811  -7.769 -22.893  0.00  0.00    -0.273 OA
ATOM      7  N   UNL     1      32.905  -6.652 -23.721  0.00  0.00    -0.260 N 
ATOM      8  C   UNL     1      31.929  -7.447 -24.469  0.00  0.00    +0.151 C 
ATOM      9  C   UNL     1      31.186  -6.428 -22.072  0.00  0.00    +0.068 C 
ATOM     10  CA  UNL     1      32.424  -5.751 -22.700  0.00  0.00    +0.184 C 
ATOM     11  CA  UNL     1      32.914  -8.624 -24.372  0.00  0.00    +0.178 C 
ATOM     12  C   UNL     1      33.800  -7.668 -23.549  0.00  0.00    +0.247 C 
ATOM     13  C   UNL     1      30.113  -5.442 -21.599  0.00  0.00    +0.013 C 
ATOM     14  C   UNL     1      31.596  -7.320 -20.888  0.00  0.00    +0.013 C 
BRANCH  10  16
ATOM     15  OXT UNL     1      32.109  -4.371 -24.658  0.00  0.00    -0.248 OA
ATOM     16  C   UNL     1      32.157  -4.477 -23.442  0.00  0.00    +0.333 C 
BRANCH  16  17
ATOM     17  O   UNL     1      31.978  -3.448 -22.578  0.00  0.00    -0.479 OA
ATOM     18  H   UNL     1      32.702  -2.905 -22.340  0.00  0.00    +0.295 HD
ENDBRANCH  16  17
ENDBRANCH  10  16
ENDBRANCH   2  11
BRANCH   3  19
ATOM     19  C   UNL     1      32.502 -12.118 -22.845  0.00  0.00    +0.213 C 
BRANCH  19  22
ATOM     20 CL   UNL     1      34.929 -16.267 -20.928  0.00  0.00    -0.081 Cl
ATOM     21 CL   UNL     1      34.917 -17.516 -23.912  0.00  0.00    -0.081 Cl
ATOM     22  C   UNL     1      33.114 -13.476 -23.097  0.00  0.00    +0.014 C 
ATOM     23  C   UNL     1      33.674 -14.175 -22.041  0.00  0.00    +0.011 C 
ATOM     24  C   UNL     1      33.102 -13.997 -24.381  0.00  0.00    -0.001 C 
ATOM     25  C   UNL     1      34.238 -15.429 -22.273  0.00  0.00    +0.068 C 
ATOM     26  C   UNL     1      33.667 -15.251 -24.614  0.00  0.00    +0.012 C 
ATOM     27  C   UNL     1      34.235 -15.967 -23.560  0.00  0.00    +0.068 C 
ENDBRANCH  19  22
BRANCH  19  28
ATOM     28  O   UNL     1      32.685 -11.780 -21.478  0.00  0.00    -0.340 OA
ATOM     29  C   UNL     1      31.443 -11.549 -20.825  0.00  0.00    +0.175 C 
ENDBRANCH  19  28
ENDBRANCH   3  19
TORSDOF 6
ENDMDL
MODEL 7
REMARK VINA RESULT:      -7.1      4.071      6.660
REMARK  Name = 71807
REMARK  6 active torsions:
REMARK  status: ('A' for Active; 'I' for Inactive)
REMARK    1  A    between atoms: N_2  and  CA_11
REMARK    2  A    between atoms: C_3  and  C_19
REMARK    3  A    between atoms: CA_10  and  C_16
REMARK    4  A    between atoms: C_16  and  O_17
REMARK    5  A    between atoms: C_19  and  C_22
REMARK    6  A    between atoms: C_19  and  O_28
REMARK                            x       y       z     vdW  Elec       q    Type
REMARK                         _______ _______ _______ _____ _____    ______ ____
ROOT
ATOM      1  O   UNL     1      35.809 -17.264 -20.233  0.00  0.00    -0.272 OA
ATOM      2  N   UNL     1      34.201 -16.630 -21.785  0.00  0.00    -0.294 N 
ATOM      3  C   UNL     1      35.084 -17.533 -21.189  0.00  0.00    +0.254 C 
ATOM      4  H   UNL     1      33.661 -16.937 -22.548  0.00  0.00    +0.150 HD
ENDROOT
BRANCH   2  11
ATOM      5  S   UNL     1      34.979 -14.631 -23.958  0.00  0.00    -0.118 S 
ATOM      6  O   UNL     1      31.502 -14.994 -21.311  0.00  0.00    -0.273 OA
ATOM      7  N   UNL     1      33.158 -13.663 -22.335  0.00  0.00    -0.260 N 
ATOM      8  C   UNL     1      34.544 -14.126 -22.250  0.00  0.00    +0.151 C 
ATOM      9  C   UNL     1      33.353 -14.087 -24.683  0.00  0.00    +0.068 C 
ATOM     10  CA  UNL     1      32.658 -13.215 -23.614  0.00  0.00    +0.184 C 
ATOM     11  CA  UNL     1      34.042 -15.245 -21.323  0.00  0.00    +0.178 C 
ATOM     12  C   UNL     1      32.637 -14.662 -21.566  0.00  0.00    +0.247 C 
ATOM     13  C   UNL     1      33.613 -13.358 -26.005  0.00  0.00    +0.013 C 
ATOM     14  C   UNL     1      32.531 -15.355 -24.968  0.00  0.00    +0.013 C 
BRANCH  10  16
ATOM     15  OXT UNL     1      33.923 -11.267 -24.285  0.00  0.00    -0.248 OA
ATOM     16  C   UNL     1      33.004 -11.757 -23.644  0.00  0.00    +0.333 C 
BRANCH  16  17
ATOM     17  O   UNL     1      32.157 -11.047 -22.859  0.00  0.00    -0.479 OA
ATOM     18  H   UNL     1      32.224 -10.114 -22.823  0.00  0.00    +0.295 HD
ENDBRANCH  16  17
ENDBRANCH  10  16
ENDBRANCH   2  11
BRANCH   3  19
ATOM     19  C   UNL     1      35.051 -18.911 -21.834  0.00  0.00    +0.213 C 
BRANCH  19  22
ATOM     20 CL   UNL     1      36.716 -22.151 -18.160  0.00  0.00    -0.081 Cl
ATOM     21 CL   UNL     1      33.669 -23.196 -17.855  0.00  0.00    -0.081 Cl
ATOM     22  C   UNL     1      34.720 -19.990 -20.830  0.00  0.00    +0.014 C 
ATOM     23  C   UNL     1      35.731 -20.520 -20.045  0.00  0.00    +0.011 C 
ATOM     24  C   UNL     1      33.411 -20.427 -20.711  0.00  0.00    -0.001 C 
ATOM     25  C   UNL     1      35.425 -21.515 -19.118  0.00  0.00    +0.068 C 
ATOM     26  C   UNL     1      33.105 -21.423 -19.784  0.00  0.00    +0.012 C 
ATOM     27  C   UNL     1      34.112 -21.967 -18.987  0.00  0.00    +0.068 C 
ENDBRANCH  19  22
BRANCH  19  28
ATOM     28  O   UNL     1      34.071 -18.926 -22.862  0.00  0.00    -0.340 OA
ATOM     29  C   UNL     1      34.642 -19.243 -24.125  0.00  0.00    +0.175 C 
ENDBRANCH  19  28
ENDBRANCH   3  19
TORSDOF 6
ENDMDL
MODEL 8
REMARK VINA RESULT:      -7.0     11.992     15.236
REMARK  Name = 71807
REMARK  6 active torsions:
REMARK  status: ('A' for Active; 'I' for Inactive)
REMARK    1  A    between atoms: N_2  and  CA_11
REMARK    2  A    between atoms: C_3  and  C_19
REMARK    3  A    between atoms: CA_10  and  C_16
REMARK    4  A    between atoms: C_16  and  O_17
REMARK    5  A    between atoms: C_19  and  C_22
REMARK    6  A    between atoms: C_19  and  O_28
REMARK                            x       y       z     vdW  Elec       q    Type
REMARK                         _______ _______ _______ _____ _____    ______ ____
ROOT
ATOM      1  O   UNL     1      32.502 -22.612 -16.261  0.00  0.00    -0.272 OA
ATOM      2  N   UNL     1      34.250 -24.137 -16.157  0.00  0.00    -0.294 N 
ATOM      3  C   UNL     1      33.312 -23.346 -16.823  0.00  0.00    +0.254 C 
ATOM      4  H   UNL     1      34.859 -24.694 -16.693  0.00  0.00    +0.150 HD
ENDROOT
BRANCH   2  11
ATOM      5  S   UNL     1      36.697 -25.736 -15.274  0.00  0.00    -0.118 S 
ATOM      6  O   UNL     1      35.127 -21.791 -14.178  0.00  0.00    -0.273 OA
ATOM      7  N   UNL     1      36.073 -23.859 -13.550  0.00  0.00    -0.260 N 
ATOM      8  C   UNL     1      35.461 -25.073 -14.093  0.00  0.00    +0.151 C 
ATOM      9  C   UNL     1      37.974 -24.440 -14.882  0.00  0.00    +0.068 C 
ATOM     10  CA  UNL     1      37.511 -23.734 -13.589  0.00  0.00    +0.184 C 
ATOM     11  CA  UNL     1      34.369 -24.174 -14.694  0.00  0.00    +0.178 C 
ATOM     12  C   UNL     1      35.170 -22.998 -14.101  0.00  0.00    +0.247 C 
ATOM     13  C   UNL     1      39.348 -25.109 -14.766  0.00  0.00    +0.013 C 
ATOM     14  C   UNL     1      38.001 -23.452 -16.060  0.00  0.00    +0.013 C 
BRANCH  10  16
ATOM     15  OXT UNL     1      37.646 -25.489 -11.932  0.00  0.00    -0.248 OA
ATOM     16  C   UNL     1      37.962 -24.370 -12.308  0.00  0.00    +0.333 C 
BRANCH  16  17
ATOM     17  O   UNL     1      38.771 -23.532 -11.616  0.00  0.00    -0.479 OA
ATOM     18  H   UNL     1      38.411 -22.969 -10.960  0.00  0.00    +0.295 HD
ENDBRANCH  16  17
ENDBRANCH  10  16
ENDBRANCH   2  11
BRANCH   3  19
ATOM     19  C   UNL     1      33.401 -23.465 -18.337  0.00  0.00    +0.213 C 
BRANCH  19  22
ATOM     20 CL   UNL     1      33.659 -19.330 -21.436  0.00  0.00    -0.081 Cl
ATOM     21 CL   UNL     1      36.797 -19.097 -20.682  0.00  0.00    -0.081 Cl
ATOM     22  C   UNL     1      34.241 -22.362 -18.936  0.00  0.00    +0.014 C 
ATOM     23  C   UNL     1      33.654 -21.456 -19.804  0.00  0.00    +0.011 C 
ATOM     24  C   UNL     1      35.584 -22.276 -18.604  0.00  0.00    -0.001 C 
ATOM     25  C   UNL     1      34.430 -20.437 -20.356  0.00  0.00    +0.068 C 
ATOM     26  C   UNL     1      36.360 -21.258 -19.156  0.00  0.00    +0.012 C 
ATOM     27  C   UNL     1      35.783 -20.338 -20.033  0.00  0.00    +0.068 C 
ENDBRANCH  19  22
BRANCH  19  28
ATOM     28  O   UNL     1      33.979 -24.717 -18.677  0.00  0.00    -0.340 OA
ATOM     29  C   UNL     1      33.922 -24.957 -20.078  0.00  0.00    +0.175 C 
ENDBRANCH  19  28
ENDBRANCH   3  19
TORSDOF 6
ENDMDL
MODEL 9
REMARK VINA RESULT:      -7.0      4.392      8.782
REMARK  Name = 71807
REMARK  6 active torsions:
REMARK  status: ('A' for Active; 'I' for Inactive)
REMARK    1  A    between atoms: N_2  and  CA_11
REMARK    2  A    between atoms: C_3  and  C_19
REMARK    3  A    between atoms: CA_10  and  C_16
REMARK    4  A    between atoms: C_16  and  O_17
REMARK    5  A    between atoms: C_19  and  C_22
REMARK    6  A    between atoms: C_19  and  O_28
REMARK                            x       y       z     vdW  Elec       q    Type
REMARK                         _______ _______ _______ _____ _____    ______ ____
ROOT
ATOM      1  O   UNL     1      32.352 -13.026 -20.817  0.00  0.00    -0.272 OA
ATOM      2  N   UNL     1      32.700 -14.940 -22.084  0.00  0.00    -0.294 N 
ATOM      3  C   UNL     1      32.435 -13.581 -21.910  0.00  0.00    +0.254 C 
ATOM      4  H   UNL     1      32.748 -15.295 -23.001  0.00  0.00    +0.150 HD
ENDROOT
BRANCH   2  11
ATOM      5  S   UNL     1      33.405 -17.746 -23.060  0.00  0.00    -0.118 S 
ATOM      6  O   UNL     1      35.168 -15.074 -20.064  0.00  0.00    -0.273 OA
ATOM      7  N   UNL     1      34.456 -17.228 -20.713  0.00  0.00    -0.260 N 
ATOM      8  C   UNL     1      33.118 -17.349 -21.294  0.00  0.00    +0.151 C 
ATOM      9  C   UNL     1      35.255 -17.842 -22.884  0.00  0.00    +0.068 C 
ATOM     10  CA  UNL     1      35.557 -17.894 -21.370  0.00  0.00    +0.184 C 
ATOM     11  CA  UNL     1      32.912 -15.863 -20.962  0.00  0.00    +0.178 C 
ATOM     12  C   UNL     1      34.363 -15.894 -20.442  0.00  0.00    +0.247 C 
ATOM     13  C   UNL     1      35.770 -19.058 -23.661  0.00  0.00    +0.013 C 
ATOM     14  C   UNL     1      35.841 -16.566 -23.511  0.00  0.00    +0.013 C 
BRANCH  10  16
ATOM     15  OXT UNL     1      34.602 -20.015 -20.711  0.00  0.00    -0.248 OA
ATOM     16  C   UNL     1      35.565 -19.262 -20.759  0.00  0.00    +0.333 C 
BRANCH  16  17
ATOM     17  O   UNL     1      36.790 -19.558 -20.260  0.00  0.00    -0.479 OA
ATOM     18  H   UNL     1      37.483 -19.807 -20.838  0.00  0.00    +0.295 HD
ENDBRANCH  16  17
ENDBRANCH  10  16
ENDBRANCH   2  11
BRANCH   3  19
ATOM     19  C   UNL     1      32.275 -12.833 -23.226  0.00  0.00    +0.213 C 
BRANCH  19  22
ATOM     20 CL   UNL     1      34.862  -8.455 -24.182  0.00  0.00    -0.081 Cl
ATOM     21 CL   UNL     1      32.634  -6.887 -22.435  0.00  0.00    -0.081 Cl
ATOM     22  C   UNL     1      32.380 -11.338 -23.036  0.00  0.00    +0.014 C 
ATOM     23  C   UNL     1      33.434 -10.652 -23.617  0.00  0.00    +0.011 C 
ATOM     24  C   UNL     1      31.419 -10.681 -22.285  0.00  0.00    -0.001 C 
ATOM     25  C   UNL     1      33.530  -9.272 -23.442  0.00  0.00    +0.068 C 
ATOM     26  C   UNL     1      31.515  -9.301 -22.109  0.00  0.00    +0.012 C 
ATOM     27  C   UNL     1      32.571  -8.596 -22.687  0.00  0.00    +0.068 C 
ENDBRANCH  19  22
BRANCH  19  28
ATOM     28  O   UNL     1      33.286 -13.252 -24.131  0.00  0.00    -0.340 OA
ATOM     29  C   UNL     1      32.735 -13.918 -25.260  0.00  0.00    +0.175 C 
ENDBRANCH  19  28
ENDBRANCH   3  19
TORSDOF 6
ENDMDL
