MODEL 1
REMARK VINA RESULT:      -8.5      0.000      0.000
REMARK  Name = 60606
REMARK  4 active torsions:
REMARK  status: ('A' for Active; 'I' for Inactive)
REMARK    1  A    between atoms: C_1  and  N_3
REMARK    2  A    between atoms: C_1  and  C_13
REMARK    3  A    between atoms: C_1  and  C_20
REMARK    4  A    between atoms: C_20  and  O_21
REMARK                            x       y       z     vdW  Elec       q    Type
REMARK                         _______ _______ _______ _____ _____    ______ ____
ROOT
ATOM      1  C   UNL     1      33.664 -13.179 -23.094  0.00  0.00    +0.068 C 
ENDROOT
BRANCH   1   3
ATOM      2  S   UNL     1      35.384 -18.498 -21.197  0.00  0.00    -0.091 S 
ATOM      3  N   UNL     1      33.876 -14.530 -22.574  0.00  0.00    +0.401 N 
ATOM      4  C   UNL     1      34.548 -14.479 -21.259  0.00  0.00    -0.070 C 
ATOM      5  C   UNL     1      34.645 -15.334 -23.551  0.00  0.00    -0.048 C 
ATOM      6  C   UNL     1      34.585 -15.872 -20.599  0.00  0.00    +0.010 C 
ATOM      7  C   UNL     1      34.968 -16.677 -22.970  0.00  0.00    -0.041 C 
ATOM      8  C   UNL     1      34.962 -16.905 -21.609  0.00  0.00    -0.001 C 
ATOM      9  C   UNL     1      35.341 -17.854 -23.687  0.00  0.00    +0.001 C 
ATOM     10  C   UNL     1      35.594 -18.917 -22.846  0.00  0.00    +0.035 C 
ATOM     11  H   UNL     1      32.971 -14.981 -22.438  0.00  0.00    -0.078 HD
ENDBRANCH   1   3
BRANCH   1  13
ATOM     12 CL   UNL     1      34.767 -10.787 -24.696  0.00  0.00    -0.083 Cl
ATOM     13  C   UNL     1      33.482 -13.188 -24.596  0.00  0.00    -0.020 C 
ATOM     14  C   UNL     1      33.952 -12.146 -25.379  0.00  0.00    +0.052 C 
ATOM     15  C   UNL     1      32.828 -14.274 -25.158  0.00  0.00    -0.005 C 
ATOM     16  C   UNL     1      33.764 -12.190 -26.760  0.00  0.00    +0.011 C 
ATOM     17  C   UNL     1      32.641 -14.318 -26.540  0.00  0.00    -0.000 C 
ATOM     18  C   UNL     1      33.109 -13.276 -27.341  0.00  0.00    +0.001 C 
ENDBRANCH   1  13
BRANCH   1  20
ATOM     19  O   UNL     1      31.706 -13.176 -21.634  0.00  0.00    -0.252 OA
ATOM     20  C   UNL     1      32.472 -12.570 -22.374  0.00  0.00    +0.301 C 
BRANCH  20  21
ATOM     21  O   UNL     1      32.400 -11.235 -22.665  0.00  0.00    -0.446 OA
ATOM     22  C   UNL     1      31.263 -10.547 -22.131  0.00  0.00    +0.256 C 
ENDBRANCH  20  21
ENDBRANCH   1  20
TORSDOF 4
ENDMDL
MODEL 2
REMARK VINA RESULT:      -8.5      4.105      7.183
REMARK  Name = 60606
REMARK  4 active torsions:
REMARK  status: ('A' for Active; 'I' for Inactive)
REMARK    1  A    between atoms: C_1  and  N_3
REMARK    2  A    between atoms: C_1  and  C_13
REMARK    3  A    between atoms: C_1  and  C_20
REMARK    4  A    between atoms: C_20  and  O_21
REMARK                            x       y       z     vdW  Elec       q    Type
REMARK                         _______ _______ _______ _____ _____    ______ ____
ROOT
ATOM      1  C   UNL     1      35.377 -17.894 -21.652  0.00  0.00    +0.068 C 
ENDROOT
BRANCH   1   3
ATOM      2  S   UNL     1      32.324 -12.927 -22.581  0.00  0.00    -0.091 S 
ATOM      3  N   UNL     1      34.466 -16.795 -21.975  0.00  0.00    +0.401 N 
ATOM      4  C   UNL     1      34.992 -16.003 -23.107  0.00  0.00    -0.070 C 
ATOM      5  C   UNL     1      34.243 -15.954 -20.777  0.00  0.00    -0.048 C 
ATOM      6  C   UNL     1      33.949 -14.979 -23.600  0.00  0.00    +0.010 C 
ATOM      7  C   UNL     1      33.410 -14.760 -21.135  0.00  0.00    -0.041 C 
ATOM      8  C   UNL     1      33.303 -14.307 -22.434  0.00  0.00    -0.001 C 
ATOM      9  C   UNL     1      32.665 -13.935 -20.239  0.00  0.00    +0.001 C 
ATOM     10  C   UNL     1      32.027 -12.903 -20.893  0.00  0.00    +0.035 C 
ATOM     11  H   UNL     1      33.567 -17.180 -22.262  0.00  0.00    -0.078 HD
ENDBRANCH   1   3
BRANCH   1  13
ATOM     12 CL   UNL     1      37.052 -20.032 -20.193  0.00  0.00    -0.083 Cl
ATOM     13  C   UNL     1      34.643 -19.045 -21.001  0.00  0.00    -0.020 C 
ATOM     14  C   UNL     1      35.332 -20.042 -20.328  0.00  0.00    +0.052 C 
ATOM     15  C   UNL     1      33.260 -19.066 -21.101  0.00  0.00    -0.005 C 
ATOM     16  C   UNL     1      34.619 -21.087 -19.741  0.00  0.00    +0.011 C 
ATOM     17  C   UNL     1      32.548 -20.112 -20.513  0.00  0.00    -0.000 C 
ATOM     18  C   UNL     1      33.228 -21.122 -19.833  0.00  0.00    +0.001 C 
ENDBRANCH   1  13
BRANCH   1  20
ATOM     19  O   UNL     1      37.282 -18.583 -23.016  0.00  0.00    -0.252 OA
ATOM     20  C   UNL     1      36.090 -18.314 -22.927  0.00  0.00    +0.301 C 
BRANCH  20  21
ATOM     21  O   UNL     1      35.189 -18.365 -23.956  0.00  0.00    -0.446 OA
ATOM     22  C   UNL     1      34.939 -19.666 -24.495  0.00  0.00    +0.256 C 
ENDBRANCH  20  21
ENDBRANCH   1  20
TORSDOF 4
ENDMDL
MODEL 3
REMARK VINA RESULT:      -8.4      3.306      5.193
REMARK  Name = 60606
REMARK  4 active torsions:
REMARK  status: ('A' for Active; 'I' for Inactive)
REMARK    1  A    between atoms: C_1  and  N_3
REMARK    2  A    between atoms: C_1  and  C_13
REMARK    3  A    between atoms: C_1  and  C_20
REMARK    4  A    between atoms: C_20  and  O_21
REMARK                            x       y       z     vdW  Elec       q    Type
REMARK                         _______ _______ _______ _____ _____    ______ ____
ROOT
ATOM      1  C   UNL     1      34.073 -17.255 -22.658  0.00  0.00    +0.068 C 
ENDROOT
BRANCH   1   3
ATOM      2  S   UNL     1      35.910 -21.552 -19.051  0.00  0.00    -0.091 S 
ATOM      3  N   UNL     1      34.549 -18.160 -21.610  0.00  0.00    +0.401 N 
ATOM      4  C   UNL     1      35.940 -18.580 -21.883  0.00  0.00    -0.070 C 
ATOM      5  C   UNL     1      33.640 -19.322 -21.493  0.00  0.00    -0.048 C 
ATOM      6  C   UNL     1      36.530 -19.354 -20.687  0.00  0.00    +0.010 C 
ATOM      7  C   UNL     1      34.191 -20.308 -20.508  0.00  0.00    -0.041 C 
ATOM      8  C   UNL     1      35.527 -20.329 -20.165  0.00  0.00    -0.001 C 
ATOM      9  C   UNL     1      33.470 -21.339 -19.834  0.00  0.00    +0.001 C 
ATOM     10  C   UNL     1      34.284 -22.089 -19.010  0.00  0.00    +0.035 C 
ATOM     11  H   UNL     1      34.547 -17.667 -20.718  0.00  0.00    -0.078 HD
ENDBRANCH   1   3
BRANCH   1  13
ATOM     12 CL   UNL     1      33.206 -15.031 -24.609  0.00  0.00    -0.083 Cl
ATOM     13  C   UNL     1      33.517 -15.976 -22.071  0.00  0.00    -0.020 C 
ATOM     14  C   UNL     1      33.108 -14.935 -22.889  0.00  0.00    +0.052 C 
ATOM     15  C   UNL     1      33.433 -15.885 -20.691  0.00  0.00    -0.005 C 
ATOM     16  C   UNL     1      32.602 -13.771 -22.311  0.00  0.00    +0.011 C 
ATOM     17  C   UNL     1      32.926 -14.721 -20.113  0.00  0.00    -0.000 C 
ATOM     18  C   UNL     1      32.510 -13.664 -20.923  0.00  0.00    +0.001 C 
ENDBRANCH   1  13
BRANCH   1  20
ATOM     19  O   UNL     1      35.986 -16.043 -23.571  0.00  0.00    -0.252 OA
ATOM     20  C   UNL     1      35.218 -16.996 -23.623  0.00  0.00    +0.301 C 
BRANCH  20  21
ATOM     21  O   UNL     1      35.269 -18.004 -24.548  0.00  0.00    -0.446 OA
ATOM     22  C   UNL     1      34.016 -18.368 -25.134  0.00  0.00    +0.256 C 
ENDBRANCH  20  21
ENDBRANCH   1  20
TORSDOF 4
ENDMDL
MODEL 4
REMARK VINA RESULT:      -8.3      6.076      9.124
REMARK  Name = 60606
REMARK  4 active torsions:
REMARK  status: ('A' for Active; 'I' for Inactive)
REMARK    1  A    between atoms: C_1  and  N_3
REMARK    2  A    between atoms: C_1  and  C_13
REMARK    3  A    between atoms: C_1  and  C_20
REMARK    4  A    between atoms: C_20  and  O_21
REMARK                            x       y       z     vdW  Elec       q    Type
REMARK                         _______ _______ _______ _____ _____    ______ ____
ROOT
ATOM      1  C   UNL     1      31.927  -7.943 -21.990  0.00  0.00    +0.068 C 
ENDROOT
BRANCH   1   3
ATOM      2  S   UNL     1      31.127  -2.588 -24.342  0.00  0.00    -0.091 S 
ATOM      3  N   UNL     1      31.899  -6.552 -22.443  0.00  0.00    +0.401 N 
ATOM      4  C   UNL     1      30.728  -5.847 -21.878  0.00  0.00    -0.070 C 
ATOM      5  C   UNL     1      31.905  -6.501 -23.922  0.00  0.00    -0.048 C 
ATOM      6  C   UNL     1      30.799  -4.334 -22.166  0.00  0.00    +0.010 C 
ATOM      7  C   UNL     1      31.753  -5.085 -24.389  0.00  0.00    -0.041 C 
ATOM      8  C   UNL     1      31.219  -4.103 -23.580  0.00  0.00    -0.001 C 
ATOM      9  C   UNL     1      32.086  -4.566 -25.677  0.00  0.00    +0.001 C 
ATOM     10  C   UNL     1      31.798  -3.222 -25.785  0.00  0.00    +0.035 C 
ATOM     11  H   UNL     1      32.735  -6.074 -22.108  0.00  0.00    -0.078 HD
ENDBRANCH   1   3
BRANCH   1  13
ATOM     12 CL   UNL     1      31.168 -10.880 -22.535  0.00  0.00    -0.083 Cl
ATOM     13  C   UNL     1      32.875  -8.776 -22.825  0.00  0.00    -0.020 C 
ATOM     14  C   UNL     1      32.598 -10.103 -23.109  0.00  0.00    +0.052 C 
ATOM     15  C   UNL     1      34.028  -8.163 -23.292  0.00  0.00    -0.005 C 
ATOM     16  C   UNL     1      33.496 -10.838 -23.881  0.00  0.00    +0.011 C 
ATOM     17  C   UNL     1      34.927  -8.900 -24.065  0.00  0.00    -0.000 C 
ATOM     18  C   UNL     1      34.660 -10.237 -24.360  0.00  0.00    +0.001 C 
ENDBRANCH   1  13
BRANCH   1  20
ATOM     19  O   UNL     1      33.171  -7.276 -19.996  0.00  0.00    -0.252 OA
ATOM     20  C   UNL     1      32.295  -7.958 -20.515  0.00  0.00    +0.301 C 
BRANCH  20  21
ATOM     21  O   UNL     1      31.481  -8.837 -19.853  0.00  0.00    -0.446 OA
ATOM     22  C   UNL     1      32.140  -9.960 -19.258  0.00  0.00    +0.256 C 
ENDBRANCH  20  21
ENDBRANCH   1  20
TORSDOF 4
ENDMDL
MODEL 5
REMARK VINA RESULT:      -8.2      3.228      4.639
REMARK  Name = 60606
REMARK  4 active torsions:
REMARK  status: ('A' for Active; 'I' for Inactive)
REMARK    1  A    between atoms: C_1  and  N_3
REMARK    2  A    between atoms: C_1  and  C_13
REMARK    3  A    between atoms: C_1  and  C_20
REMARK    4  A    between atoms: C_20  and  O_21
REMARK                            x       y       z     vdW  Elec       q    Type
REMARK                         _______ _______ _______ _____ _____    ______ ____
ROOT
ATOM      1  C   UNL     1      35.359 -16.901 -21.606  0.00  0.00    +0.068 C 
ENDROOT
BRANCH   1   3
ATOM      2  S   UNL     1      35.202 -22.266 -19.149  0.00  0.00    -0.091 S 
ATOM      3  N   UNL     1      35.379 -18.128 -20.808  0.00  0.00    +0.401 N 
ATOM      4  C   UNL     1      36.557 -18.951 -21.156  0.00  0.00    -0.070 C 
ATOM      5  C   UNL     1      34.115 -18.875 -20.996  0.00  0.00    -0.048 C 
ATOM      6  C   UNL     1      36.714 -20.135 -20.180  0.00  0.00    +0.010 C 
ATOM      7  C   UNL     1      34.183 -20.189 -20.278  0.00  0.00    -0.041 C 
ATOM      8  C   UNL     1      35.385 -20.770 -19.931  0.00  0.00    -0.001 C 
ATOM      9  C   UNL     1      33.083 -21.012 -19.891  0.00  0.00    +0.001 C 
ATOM     10  C   UNL     1      33.495 -22.170 -19.267  0.00  0.00    +0.035 C 
ATOM     11  H   UNL     1      35.457 -17.883 -19.822  0.00  0.00    -0.078 HD
ENDBRANCH   1   3
BRANCH   1  13
ATOM     12 CL   UNL     1      34.604 -14.482 -23.362  0.00  0.00    -0.083 Cl
ATOM     13  C   UNL     1      34.895 -17.170 -23.021  0.00  0.00    -0.020 C 
ATOM     14  C   UNL     1      34.540 -16.131 -23.866  0.00  0.00    +0.052 C 
ATOM     15  C   UNL     1      34.839 -18.491 -23.438  0.00  0.00    -0.005 C 
ATOM     16  C   UNL     1      34.117 -16.420 -25.163  0.00  0.00    +0.011 C 
ATOM     17  C   UNL     1      34.416 -18.779 -24.737  0.00  0.00    -0.000 C 
ATOM     18  C   UNL     1      34.055 -17.743 -25.599  0.00  0.00    +0.001 C 
ENDBRANCH   1  13
BRANCH   1  20
ATOM     19  O   UNL     1      34.885 -14.913 -20.268  0.00  0.00    -0.252 OA
ATOM     20  C   UNL     1      34.480 -15.883 -20.897  0.00  0.00    +0.301 C 
BRANCH  20  21
ATOM     21  O   UNL     1      33.164 -16.210 -21.087  0.00  0.00    -0.446 OA
ATOM     22  C   UNL     1      32.217 -15.213 -20.688  0.00  0.00    +0.256 C 
ENDBRANCH  20  21
ENDBRANCH   1  20
TORSDOF 4
ENDMDL
MODEL 6
REMARK VINA RESULT:      -8.1      3.172      4.294
REMARK  Name = 60606
REMARK  4 active torsions:
REMARK  status: ('A' for Active; 'I' for Inactive)
REMARK    1  A    between atoms: C_1  and  N_3
REMARK    2  A    between atoms: C_1  and  C_13
REMARK    3  A    between atoms: C_1  and  C_20
REMARK    4  A    between atoms: C_20  and  O_21
REMARK                            x       y       z     vdW  Elec       q    Type
REMARK                         _______ _______ _______ _____ _____    ______ ____
ROOT
ATOM      1  C   UNL     1      34.978 -16.637 -22.088  0.00  0.00    +0.068 C 
ENDROOT
BRANCH   1   3
ATOM      2  S   UNL     1      33.871 -21.920 -19.699  0.00  0.00    -0.091 S 
ATOM      3  N   UNL     1      34.653 -18.011 -21.703  0.00  0.00    +0.401 N 
ATOM      4  C   UNL     1      33.362 -18.055 -20.983  0.00  0.00    -0.070 C 
ATOM      5  C   UNL     1      35.751 -18.583 -20.892  0.00  0.00    -0.048 C 
ATOM      6  C   UNL     1      32.899 -19.508 -20.761  0.00  0.00    +0.010 C 
ATOM      7  C   UNL     1      35.367 -19.944 -20.394  0.00  0.00    -0.041 C 
ATOM      8  C   UNL     1      34.051 -20.348 -20.315  0.00  0.00    -0.001 C 
ATOM      9  C   UNL     1      36.248 -20.963 -19.923  0.00  0.00    +0.001 C 
ATOM     10  C   UNL     1      35.566 -22.091 -19.515  0.00  0.00    +0.035 C 
ATOM     11  H   UNL     1      34.554 -18.578 -22.544  0.00  0.00    -0.078 HD
ENDBRANCH   1   3
BRANCH   1  13
ATOM     12 CL   UNL     1      35.016 -18.857 -24.227  0.00  0.00    -0.083 Cl
ATOM     13  C   UNL     1      34.437 -16.306 -23.461  0.00  0.00    -0.020 C 
ATOM     14  C   UNL     1      34.424 -17.255 -24.471  0.00  0.00    +0.052 C 
ATOM     15  C   UNL     1      33.958 -15.022 -23.671  0.00  0.00    -0.005 C 
ATOM     16  C   UNL     1      33.918 -16.911 -25.724  0.00  0.00    +0.011 C 
ATOM     17  C   UNL     1      33.451 -14.679 -24.926  0.00  0.00    -0.000 C 
ATOM     18  C   UNL     1      33.431 -15.624 -25.952  0.00  0.00    +0.001 C 
ENDBRANCH   1  13
BRANCH   1  20
ATOM     19  O   UNL     1      35.096 -15.232 -20.094  0.00  0.00    -0.252 OA
ATOM     20  C   UNL     1      34.442 -15.700 -21.017  0.00  0.00    +0.301 C 
BRANCH  20  21
ATOM     21  O   UNL     1      33.119 -15.446 -21.259  0.00  0.00    -0.446 OA
ATOM     22  C   UNL     1      32.539 -14.397 -20.477  0.00  0.00    +0.256 C 
ENDBRANCH  20  21
ENDBRANCH   1  20
TORSDOF 4
ENDMDL
MODEL 7
REMARK VINA RESULT:      -8.0     11.384     14.062
REMARK  Name = 60606
REMARK  4 active torsions:
REMARK  status: ('A' for Active; 'I' for Inactive)
REMARK    1  A    between atoms: C_1  and  N_3
REMARK    2  A    between atoms: C_1  and  C_13
REMARK    3  A    between atoms: C_1  and  C_20
REMARK    4  A    between atoms: C_20  and  O_21
REMARK                            x       y       z     vdW  Elec       q    Type
REMARK                         _______ _______ _______ _____ _____    ______ ____
ROOT
ATOM      1  C   UNL     1      35.050 -23.439 -14.997  0.00  0.00    +0.068 C 
ENDROOT
BRANCH   1   3
ATOM      2  S   UNL     1      29.299 -24.381 -15.939  0.00  0.00    -0.091 S 
ATOM      3  N   UNL     1      33.692 -23.820 -15.384  0.00  0.00    +0.401 N 
ATOM      4  C   UNL     1      33.057 -22.744 -16.174  0.00  0.00    -0.070 C 
ATOM      5  C   UNL     1      32.898 -24.155 -14.180  0.00  0.00    -0.048 C 
ATOM      6  C   UNL     1      31.714 -23.212 -16.771  0.00  0.00    +0.010 C 
ATOM      7  C   UNL     1      31.474 -24.427 -14.562  0.00  0.00    -0.041 C 
ATOM      8  C   UNL     1      30.935 -23.966 -15.744  0.00  0.00    -0.001 C 
ATOM      9  C   UNL     1      30.502 -25.136 -13.794  0.00  0.00    +0.001 C 
ATOM     10  C   UNL     1      29.277 -25.186 -14.426  0.00  0.00    +0.035 C 
ATOM     11  H   UNL     1      33.733 -24.650 -15.974  0.00  0.00    -0.078 HD
ENDBRANCH   1   3
BRANCH   1  13
ATOM     12 CL   UNL     1      36.138 -23.326 -12.115  0.00  0.00    -0.083 Cl
ATOM     13  C   UNL     1      35.834 -24.629 -14.489  0.00  0.00    -0.020 C 
ATOM     14  C   UNL     1      36.352 -24.647 -13.204  0.00  0.00    +0.052 C 
ATOM     15  C   UNL     1      36.013 -25.698 -15.353  0.00  0.00    -0.005 C 
ATOM     16  C   UNL     1      37.069 -25.762 -12.772  0.00  0.00    +0.011 C 
ATOM     17  C   UNL     1      36.731 -26.814 -14.921  0.00  0.00    -0.000 C 
ATOM     18  C   UNL     1      37.259 -26.846 -13.629  0.00  0.00    +0.001 C 
ENDBRANCH   1  13
BRANCH   1  20
ATOM     19  O   UNL     1      35.386 -22.924 -17.361  0.00  0.00    -0.252 OA
ATOM     20  C   UNL     1      35.720 -22.778 -16.191  0.00  0.00    +0.301 C 
BRANCH  20  21
ATOM     21  O   UNL     1      36.740 -21.978 -15.754  0.00  0.00    -0.446 OA
ATOM     22  C   UNL     1      37.402 -21.212 -16.766  0.00  0.00    +0.256 C 
ENDBRANCH  20  21
ENDBRANCH   1  20
TORSDOF 4
ENDMDL
MODEL 8
REMARK VINA RESULT:      -8.0     10.037     13.247
REMARK  Name = 60606
REMARK  4 active torsions:
REMARK  status: ('A' for Active; 'I' for Inactive)
REMARK    1  A    between atoms: C_1  and  N_3
REMARK    2  A    between atoms: C_1  and  C_13
REMARK    3  A    between atoms: C_1  and  C_20
REMARK    4  A    between atoms: C_20  and  O_21
REMARK                            x       y       z     vdW  Elec       q    Type
REMARK                         _______ _______ _______ _____ _____    ______ ____
ROOT
ATOM      1  C   UNL     1      34.240 -24.310 -14.914  0.00  0.00    +0.068 C 
ENDROOT
BRANCH   1   3
ATOM      2  S   UNL     1      34.895 -21.086 -19.815  0.00  0.00    -0.091 S 
ATOM      3  N   UNL     1      34.277 -23.359 -16.025  0.00  0.00    +0.401 N 
ATOM      4  C   UNL     1      33.429 -23.833 -17.140  0.00  0.00    -0.070 C 
ATOM      5  C   UNL     1      35.675 -23.139 -16.458  0.00  0.00    -0.048 C 
ATOM      6  C   UNL     1      33.282 -22.748 -18.226  0.00  0.00    +0.010 C 
ATOM      7  C   UNL     1      35.706 -22.261 -17.672  0.00  0.00    -0.041 C 
ATOM      8  C   UNL     1      34.606 -22.110 -18.492  0.00  0.00    -0.001 C 
ATOM      9  C   UNL     1      36.819 -21.514 -18.162  0.00  0.00    +0.001 C 
ATOM     10  C   UNL     1      36.515 -20.828 -19.320  0.00  0.00    +0.035 C 
ATOM     11  H   UNL     1      33.900 -22.466 -15.712  0.00  0.00    -0.078 HD
ENDBRANCH   1   3
BRANCH   1  13
ATOM     12 CL   UNL     1      36.304 -26.543 -15.427  0.00  0.00    -0.083 Cl
ATOM     13  C   UNL     1      35.528 -24.281 -14.120  0.00  0.00    -0.020 C 
ATOM     14  C   UNL     1      36.500 -25.253 -14.299  0.00  0.00    +0.052 C 
ATOM     15  C   UNL     1      35.698 -23.249 -13.210  0.00  0.00    -0.005 C 
ATOM     16  C   UNL     1      37.673 -25.191 -13.548  0.00  0.00    +0.011 C 
ATOM     17  C   UNL     1      36.873 -23.189 -12.458  0.00  0.00    -0.000 C 
ATOM     18  C   UNL     1      37.860 -24.160 -12.628  0.00  0.00    +0.001 C 
ENDBRANCH   1  13
BRANCH   1  20
ATOM     19  O   UNL     1      32.618 -24.684 -13.128  0.00  0.00    -0.252 OA
ATOM     20  C   UNL     1      33.027 -23.996 -14.054  0.00  0.00    +0.301 C 
BRANCH  20  21
ATOM     21  O   UNL     1      32.475 -22.812 -14.464  0.00  0.00    -0.446 OA
ATOM     22  C   UNL     1      31.047 -22.794 -14.551  0.00  0.00    +0.256 C 
ENDBRANCH  20  21
ENDBRANCH   1  20
TORSDOF 4
ENDMDL
MODEL 9
REMARK VINA RESULT:      -7.9      3.359      5.277
REMARK  Name = 60606
REMARK  4 active torsions:
REMARK  status: ('A' for Active; 'I' for Inactive)
REMARK    1  A    between atoms: C_1  and  N_3
REMARK    2  A    between atoms: C_1  and  C_13
REMARK    3  A    between atoms: C_1  and  C_20
REMARK    4  A    between atoms: C_20  and  O_21
REMARK                            x       y       z     vdW  Elec       q    Type
REMARK                         _______ _______ _______ _____ _____    ______ ____
ROOT
ATOM      1  C   UNL     1      32.822  -9.590 -22.528  0.00  0.00    +0.068 C 
ENDROOT
BRANCH   1   3
ATOM      2  S   UNL     1      33.025 -14.520 -25.769  0.00  0.00    -0.091 S 
ATOM      3  N   UNL     1      32.650 -10.798 -23.336  0.00  0.00    +0.401 N 
ATOM      4  C   UNL     1      32.919 -12.005 -22.526  0.00  0.00    -0.070 C 
ATOM      5  C   UNL     1      33.521 -10.737 -24.531  0.00  0.00    -0.048 C 
ATOM      6  C   UNL     1      32.535 -13.286 -23.294  0.00  0.00    +0.010 C 
ATOM      7  C   UNL     1      33.438 -12.024 -25.295  0.00  0.00    -0.041 C 
ATOM      8  C   UNL     1      33.007 -13.195 -24.707  0.00  0.00    -0.001 C 
ATOM      9  C   UNL     1      33.800 -12.235 -26.659  0.00  0.00    +0.001 C 
ATOM     10  C   UNL     1      33.624 -13.547 -27.046  0.00  0.00    +0.035 C 
ATOM     11  H   UNL     1      31.683 -10.852 -23.654  0.00  0.00    -0.078 HD
ENDBRANCH   1   3
BRANCH   1  13
ATOM     12 CL   UNL     1      35.070  -7.635 -23.319  0.00  0.00    -0.083 Cl
ATOM     13  C   UNL     1      32.440  -8.349 -23.304  0.00  0.00    -0.020 C 
ATOM     14  C   UNL     1      33.399  -7.427 -23.692  0.00  0.00    +0.052 C 
ATOM     15  C   UNL     1      31.101  -8.169 -23.611  0.00  0.00    -0.005 C 
ATOM     16  C   UNL     1      33.008  -6.294 -24.405  0.00  0.00    +0.011 C 
ATOM     17  C   UNL     1      30.709  -7.035 -24.325  0.00  0.00    -0.000 C 
ATOM     18  C   UNL     1      31.664  -6.098 -24.722  0.00  0.00    +0.001 C 
ENDBRANCH   1  13
BRANCH   1  20
ATOM     19  O   UNL     1      30.978 -10.402 -21.148  0.00  0.00    -0.252 OA
ATOM     20  C   UNL     1      32.007  -9.746 -21.255  0.00  0.00    +0.301 C 
BRANCH  20  21
ATOM     21  O   UNL     1      32.613  -9.055 -20.241  0.00  0.00    -0.446 OA
ATOM     22  C   UNL     1      32.078  -7.754 -19.975  0.00  0.00    +0.256 C 
ENDBRANCH  20  21
ENDBRANCH   1  20
TORSDOF 4
ENDMDL
