MODEL 1
REMARK VINA RESULT:      -4.8      0.000      0.000
REMARK  Name = 16686147
REMARK  5 active torsions:
REMARK  status: ('A' for Active; 'I' for Inactive)
REMARK    1  A    between atoms: C_2  and  C_3
REMARK    2  A    between atoms: C_2  and  C_9
REMARK    3  A    between atoms: C_3  and  P_4
REMARK    4  A    between atoms: P_4  and  O_7
REMARK    5  A    between atoms: C_9  and  N_10
REMARK                            x       y       z     vdW  Elec       q    Type
REMARK                         _______ _______ _______ _____ _____    ______ ____
ROOT
ATOM      1  F   UNL     1      37.505 -23.893 -13.868  0.00  0.00    -0.239 F 
ATOM      2  C   UNL     1      37.602 -24.907 -14.775  0.00  0.00    +0.149 C 
ENDROOT
BRANCH   2   3
ATOM      3  C   UNL     1      38.545 -25.955 -14.205  0.00  0.00    +0.116 C 
BRANCH   3   4
ATOM      4  P   UNL     1      40.291 -25.639 -14.550  0.00  0.00    +0.202 P 
ATOM      5  O   UNL     1      41.134 -26.672 -13.851  0.00  0.00    -0.294 OA
ATOM      6  H   UNL     1      40.713 -24.361 -14.855  0.00  0.00    +0.129 HD
BRANCH   4   7
ATOM      7  O   UNL     1      40.296 -25.879 -16.158  0.00  0.00    -0.345 OA
ATOM      8  H   UNL     1      39.400 -26.103 -16.455  0.00  0.00    +0.217 HD
ENDBRANCH   4   7
ENDBRANCH   3   4
ENDBRANCH   2   3
BRANCH   2   9
ATOM      9  C   UNL     1      36.206 -25.453 -15.049  0.00  0.00    -0.050 C 
BRANCH   9  10
ATOM     10  N   UNL     1      36.244 -26.911 -15.124  0.00  0.00    +0.382 N 
ATOM     11  H   UNL     1      35.293 -27.273 -15.198  0.00  0.00    -0.089 HD
ATOM     12  H   UNL     1      36.685 -27.283 -14.282  0.00  0.00    -0.089 HD
ATOM     13  H   UNL     1      36.781 -27.196 -15.943  0.00  0.00    -0.089 HD
ENDBRANCH   9  10
ENDBRANCH   2   9
TORSDOF 5
ENDMDL
MODEL 2
REMARK VINA RESULT:      -4.7      2.238      2.454
REMARK  Name = 16686147
REMARK  5 active torsions:
REMARK  status: ('A' for Active; 'I' for Inactive)
REMARK    1  A    between atoms: C_2  and  C_3
REMARK    2  A    between atoms: C_2  and  C_9
REMARK    3  A    between atoms: C_3  and  P_4
REMARK    4  A    between atoms: P_4  and  O_7
REMARK    5  A    between atoms: C_9  and  N_10
REMARK                            x       y       z     vdW  Elec       q    Type
REMARK                         _______ _______ _______ _____ _____    ______ ____
ROOT
ATOM      1  F   UNL     1      36.656 -25.910 -12.851  0.00  0.00    -0.239 F 
ATOM      2  C   UNL     1      38.011 -25.754 -12.869  0.00  0.00    +0.149 C 
ENDROOT
BRANCH   2   3
ATOM      3  C   UNL     1      38.505 -26.112 -14.262  0.00  0.00    +0.116 C 
BRANCH   3   4
ATOM      4  P   UNL     1      40.231 -25.670 -14.565  0.00  0.00    +0.202 P 
ATOM      5  O   UNL     1      41.129 -26.664 -13.878  0.00  0.00    -0.294 OA
ATOM      6  H   UNL     1      40.572 -24.359 -14.828  0.00  0.00    +0.129 HD
BRANCH   4   7
ATOM      7  O   UNL     1      40.280 -25.865 -16.179  0.00  0.00    -0.345 OA
ATOM      8  H   UNL     1      39.398 -26.107 -16.502  0.00  0.00    +0.217 HD
ENDBRANCH   4   7
ENDBRANCH   3   4
ENDBRANCH   2   3
BRANCH   2   9
ATOM      9  C   UNL     1      38.343 -24.320 -12.473  0.00  0.00    -0.050 C 
BRANCH   9  10
ATOM     10  N   UNL     1      37.577 -23.937 -11.290  0.00  0.00    +0.382 N 
ATOM     11  H   UNL     1      36.776 -23.371 -11.572  0.00  0.00    -0.089 HD
ATOM     12  H   UNL     1      38.171 -23.395 -10.662  0.00  0.00    -0.089 HD
ATOM     13  H   UNL     1      37.249 -24.775 -10.810  0.00  0.00    -0.089 HD
ENDBRANCH   9  10
ENDBRANCH   2   9
TORSDOF 5
ENDMDL
MODEL 3
REMARK VINA RESULT:      -4.6      3.464      3.660
REMARK  Name = 16686147
REMARK  5 active torsions:
REMARK  status: ('A' for Active; 'I' for Inactive)
REMARK    1  A    between atoms: C_2  and  C_3
REMARK    2  A    between atoms: C_2  and  C_9
REMARK    3  A    between atoms: C_3  and  P_4
REMARK    4  A    between atoms: P_4  and  O_7
REMARK    5  A    between atoms: C_9  and  N_10
REMARK                            x       y       z     vdW  Elec       q    Type
REMARK                         _______ _______ _______ _____ _____    ______ ____
ROOT
ATOM      1  F   UNL     1      38.562 -26.006 -12.617  0.00  0.00    -0.239 F 
ATOM      2  C   UNL     1      37.415 -25.699 -13.287  0.00  0.00    +0.149 C 
ENDROOT
BRANCH   2   3
ATOM      3  C   UNL     1      37.346 -24.186 -13.427  0.00  0.00    +0.116 C 
BRANCH   3   4
ATOM      4  P   UNL     1      37.156 -23.311 -11.857  0.00  0.00    +0.202 P 
ATOM      5  O   UNL     1      36.729 -24.284 -10.791  0.00  0.00    -0.294 OA
ATOM      6  H   UNL     1      36.859 -21.963 -11.850  0.00  0.00    +0.129 HD
BRANCH   4   7
ATOM      7  O   UNL     1      38.694 -22.836 -11.625  0.00  0.00    -0.345 OA
ATOM      8  H   UNL     1      39.282 -23.354 -12.198  0.00  0.00    +0.217 HD
ENDBRANCH   4   7
ENDBRANCH   3   4
ENDBRANCH   2   3
BRANCH   2   9
ATOM      9  C   UNL     1      37.427 -26.418 -14.631  0.00  0.00    -0.050 C 
BRANCH   9  10
ATOM     10  N   UNL     1      36.069 -26.811 -15.001  0.00  0.00    +0.382 N 
ATOM     11  H   UNL     1      36.074 -27.774 -15.338  0.00  0.00    -0.089 HD
ATOM     12  H   UNL     1      35.726 -26.195 -15.738  0.00  0.00    -0.089 HD
ATOM     13  H   UNL     1      35.460 -26.739 -14.186  0.00  0.00    -0.089 HD
ENDBRANCH   9  10
ENDBRANCH   2   9
TORSDOF 5
ENDMDL
MODEL 4
REMARK VINA RESULT:      -4.6      9.821     10.102
REMARK  Name = 16686147
REMARK  5 active torsions:
REMARK  status: ('A' for Active; 'I' for Inactive)
REMARK    1  A    between atoms: C_2  and  C_3
REMARK    2  A    between atoms: C_2  and  C_9
REMARK    3  A    between atoms: C_3  and  P_4
REMARK    4  A    between atoms: P_4  and  O_7
REMARK    5  A    between atoms: C_9  and  N_10
REMARK                            x       y       z     vdW  Elec       q    Type
REMARK                         _______ _______ _______ _____ _____    ______ ____
ROOT
ATOM      1  F   UNL     1      28.706 -25.305 -14.774  0.00  0.00    -0.239 F 
ATOM      2  C   UNL     1      29.906 -25.067 -15.377  0.00  0.00    +0.149 C 
ENDROOT
BRANCH   2   3
ATOM      3  C   UNL     1      29.823 -23.716 -16.069  0.00  0.00    +0.116 C 
BRANCH   3   4
ATOM      4  P   UNL     1      28.134 -23.158 -16.390  0.00  0.00    +0.202 P 
ATOM      5  O   UNL     1      28.165 -21.747 -16.914  0.00  0.00    -0.294 OA
ATOM      6  H   UNL     1      27.080 -23.708 -15.689  0.00  0.00    +0.129 HD
BRANCH   4   7
ATOM      7  O   UNL     1      27.722 -24.203 -17.565  0.00  0.00    -0.345 OA
ATOM      8  H   UNL     1      28.303 -24.979 -17.526  0.00  0.00    +0.217 HD
ENDBRANCH   4   7
ENDBRANCH   3   4
ENDBRANCH   2   3
BRANCH   2   9
ATOM      9  C   UNL     1      31.004 -25.124 -14.320  0.00  0.00    -0.050 C 
BRANCH   9  10
ATOM     10  N   UNL     1      30.431 -24.916 -12.992  0.00  0.00    +0.382 N 
ATOM     11  H   UNL     1      31.076 -24.362 -12.428  0.00  0.00    -0.089 HD
ATOM     12  H   UNL     1      30.277 -25.819 -12.544  0.00  0.00    -0.089 HD
ATOM     13  H   UNL     1      29.543 -24.422 -13.078  0.00  0.00    -0.089 HD
ENDBRANCH   9  10
ENDBRANCH   2   9
TORSDOF 5
ENDMDL
MODEL 5
REMARK VINA RESULT:      -4.5      9.682     10.073
REMARK  Name = 16686147
REMARK  5 active torsions:
REMARK  status: ('A' for Active; 'I' for Inactive)
REMARK    1  A    between atoms: C_2  and  C_3
REMARK    2  A    between atoms: C_2  and  C_9
REMARK    3  A    between atoms: C_3  and  P_4
REMARK    4  A    between atoms: P_4  and  O_7
REMARK    5  A    between atoms: C_9  and  N_10
REMARK                            x       y       z     vdW  Elec       q    Type
REMARK                         _______ _______ _______ _____ _____    ______ ____
ROOT
ATOM      1  F   UNL     1      31.334 -22.388 -14.576  0.00  0.00    -0.239 F 
ATOM      2  C   UNL     1      30.259 -23.177 -14.863  0.00  0.00    +0.149 C 
ENDROOT
BRANCH   2   3
ATOM      3  C   UNL     1      29.782 -22.825 -16.264  0.00  0.00    +0.116 C 
BRANCH   3   4
ATOM      4  P   UNL     1      27.985 -22.851 -16.455  0.00  0.00    +0.202 P 
ATOM      5  O   UNL     1      27.550 -21.649 -17.251  0.00  0.00    -0.294 OA
ATOM      6  H   UNL     1      27.200 -23.496 -15.521  0.00  0.00    +0.129 HD
BRANCH   4   7
ATOM      7  O   UNL     1      27.826 -24.212 -17.330  0.00  0.00    -0.345 OA
ATOM      8  H   UNL     1      28.678 -24.676 -17.364  0.00  0.00    +0.217 HD
ENDBRANCH   4   7
ENDBRANCH   3   4
ENDBRANCH   2   3
BRANCH   2   9
ATOM      9  C   UNL     1      30.675 -24.637 -14.729  0.00  0.00    -0.050 C 
BRANCH   9  10
ATOM     10  N   UNL     1      29.493 -25.481 -14.573  0.00  0.00    +0.382 N 
ATOM     11  H   UNL     1      29.573 -26.295 -15.182  0.00  0.00    -0.089 HD
ATOM     12  H   UNL     1      28.660 -24.949 -14.825  0.00  0.00    -0.089 HD
ATOM     13  H   UNL     1      29.420 -25.788 -13.603  0.00  0.00    -0.089 HD
ENDBRANCH   9  10
ENDBRANCH   2   9
TORSDOF 5
ENDMDL
MODEL 6
REMARK VINA RESULT:      -4.4      3.868      3.999
REMARK  Name = 16686147
REMARK  5 active torsions:
REMARK  status: ('A' for Active; 'I' for Inactive)
REMARK    1  A    between atoms: C_2  and  C_3
REMARK    2  A    between atoms: C_2  and  C_9
REMARK    3  A    between atoms: C_3  and  P_4
REMARK    4  A    between atoms: P_4  and  O_7
REMARK    5  A    between atoms: C_9  and  N_10
REMARK                            x       y       z     vdW  Elec       q    Type
REMARK                         _______ _______ _______ _____ _____    ______ ____
ROOT
ATOM      1  F   UNL     1      37.520 -23.605 -13.996  0.00  0.00    -0.239 F 
ATOM      2  C   UNL     1      37.304 -24.950 -13.937  0.00  0.00    +0.149 C 
ENDROOT
BRANCH   2   3
ATOM      3  C   UNL     1      37.127 -25.333 -12.476  0.00  0.00    +0.116 C 
BRANCH   3   4
ATOM      4  P   UNL     1      36.046 -24.219 -11.551  0.00  0.00    +0.202 P 
ATOM      5  O   UNL     1      35.319 -24.998 -10.486  0.00  0.00    -0.294 OA
ATOM      6  H   UNL     1      35.562 -23.073 -12.148  0.00  0.00    +0.129 HD
BRANCH   4   7
ATOM      7  O   UNL     1      37.165 -23.241 -10.891  0.00  0.00    -0.345 OA
ATOM      8  H   UNL     1      37.291 -22.465 -11.459  0.00  0.00    +0.217 HD
ENDBRANCH   4   7
ENDBRANCH   3   4
ENDBRANCH   2   3
BRANCH   2   9
ATOM      9  C   UNL     1      36.086 -25.288 -14.789  0.00  0.00    -0.050 C 
BRANCH   9  10
ATOM     10  N   UNL     1      36.068 -26.716 -15.094  0.00  0.00    +0.382 N 
ATOM     11  H   UNL     1      36.967 -26.990 -15.490  0.00  0.00    -0.089 HD
ATOM     12  H   UNL     1      35.326 -26.909 -15.768  0.00  0.00    -0.089 HD
ATOM     13  H   UNL     1      35.897 -27.244 -14.239  0.00  0.00    -0.089 HD
ENDBRANCH   9  10
ENDBRANCH   2   9
TORSDOF 5
ENDMDL
MODEL 7
REMARK VINA RESULT:      -4.3     12.232     12.546
REMARK  Name = 16686147
REMARK  5 active torsions:
REMARK  status: ('A' for Active; 'I' for Inactive)
REMARK    1  A    between atoms: C_2  and  C_3
REMARK    2  A    between atoms: C_2  and  C_9
REMARK    3  A    between atoms: C_3  and  P_4
REMARK    4  A    between atoms: P_4  and  O_7
REMARK    5  A    between atoms: C_9  and  N_10
REMARK                            x       y       z     vdW  Elec       q    Type
REMARK                         _______ _______ _______ _____ _____    ______ ____
ROOT
ATOM      1  F   UNL     1      41.567 -14.182 -18.336  0.00  0.00    -0.239 F 
ATOM      2  C   UNL     1      41.636 -13.295 -17.302  0.00  0.00    +0.149 C 
ENDROOT
BRANCH   2   3
ATOM      3  C   UNL     1      41.871 -14.084 -16.024  0.00  0.00    +0.116 C 
BRANCH   3   4
ATOM      4  P   UNL     1      41.443 -15.835 -16.151  0.00  0.00    +0.202 P 
ATOM      5  O   UNL     1      42.578 -16.667 -15.616  0.00  0.00    -0.294 OA
ATOM      6  H   UNL     1      40.549 -16.258 -17.113  0.00  0.00    +0.129 HD
BRANCH   4   7
ATOM      7  O   UNL     1      40.169 -15.875 -15.142  0.00  0.00    -0.345 OA
ATOM      8  H   UNL     1      39.393 -16.217 -15.615  0.00  0.00    +0.217 HD
ENDBRANCH   4   7
ENDBRANCH   3   4
ENDBRANCH   2   3
BRANCH   2   9
ATOM      9  C   UNL     1      42.748 -12.293 -17.592  0.00  0.00    -0.050 C 
BRANCH   9  10
ATOM     10  N   UNL     1      42.942 -11.414 -16.442  0.00  0.00    +0.382 N 
ATOM     11  H   UNL     1      42.227 -11.608 -15.741  0.00  0.00    -0.089 HD
ATOM     12  H   UNL     1      42.868 -10.441 -16.742  0.00  0.00    -0.089 HD
ATOM     13  H   UNL     1      43.865 -11.577 -16.041  0.00  0.00    -0.089 HD
ENDBRANCH   9  10
ENDBRANCH   2   9
TORSDOF 5
ENDMDL
MODEL 8
REMARK VINA RESULT:      -4.3      3.178      3.412
REMARK  Name = 16686147
REMARK  5 active torsions:
REMARK  status: ('A' for Active; 'I' for Inactive)
REMARK    1  A    between atoms: C_2  and  C_3
REMARK    2  A    between atoms: C_2  and  C_9
REMARK    3  A    between atoms: C_3  and  P_4
REMARK    4  A    between atoms: P_4  and  O_7
REMARK    5  A    between atoms: C_9  and  N_10
REMARK                            x       y       z     vdW  Elec       q    Type
REMARK                         _______ _______ _______ _____ _____    ______ ____
ROOT
ATOM      1  F   UNL     1      35.810 -22.902 -14.018  0.00  0.00    -0.239 F 
ATOM      2  C   UNL     1      36.438 -23.845 -13.260  0.00  0.00    +0.149 C 
ENDROOT
BRANCH   2   3
ATOM      3  C   UNL     1      37.481 -24.528 -14.131  0.00  0.00    +0.116 C 
BRANCH   3   4
ATOM      4  P   UNL     1      37.268 -26.318 -14.265  0.00  0.00    +0.202 P 
ATOM      5  O   UNL     1      38.581 -26.950 -14.646  0.00  0.00    -0.294 OA
ATOM      6  H   UNL     1      36.029 -26.845 -14.568  0.00  0.00    +0.129 HD
BRANCH   4   7
ATOM      7  O   UNL     1      36.887 -26.661 -12.722  0.00  0.00    -0.345 OA
ATOM      8  H   UNL     1      37.615 -26.389 -12.141  0.00  0.00    +0.217 HD
ENDBRANCH   4   7
ENDBRANCH   3   4
ENDBRANCH   2   3
BRANCH   2   9
ATOM      9  C   UNL     1      37.043 -23.165 -12.036  0.00  0.00    -0.050 C 
BRANCH   9  10
ATOM     10  N   UNL     1      38.164 -23.951 -11.530  0.00  0.00    +0.382 N 
ATOM     11  H   UNL     1      38.624 -24.427 -12.306  0.00  0.00    -0.089 HD
ATOM     12  H   UNL     1      37.820 -24.643 -10.863  0.00  0.00    -0.089 HD
ATOM     13  H   UNL     1      38.831 -23.334 -11.067  0.00  0.00    -0.089 HD
ENDBRANCH   9  10
ENDBRANCH   2   9
TORSDOF 5
ENDMDL
MODEL 9
REMARK VINA RESULT:      -4.2     14.760     15.146
REMARK  Name = 16686147
REMARK  5 active torsions:
REMARK  status: ('A' for Active; 'I' for Inactive)
REMARK    1  A    between atoms: C_2  and  C_3
REMARK    2  A    between atoms: C_2  and  C_9
REMARK    3  A    between atoms: C_3  and  P_4
REMARK    4  A    between atoms: P_4  and  O_7
REMARK    5  A    between atoms: C_9  and  N_10
REMARK                            x       y       z     vdW  Elec       q    Type
REMARK                         _______ _______ _______ _____ _____    ______ ____
ROOT
ATOM      1  F   UNL     1      32.541 -14.885 -22.359  0.00  0.00    -0.239 F 
ATOM      2  C   UNL     1      33.479 -14.291 -23.151  0.00  0.00    +0.149 C 
ENDROOT
BRANCH   2   3
ATOM      3  C   UNL     1      33.493 -15.019 -24.486  0.00  0.00    +0.116 C 
BRANCH   3   4
ATOM      4  P   UNL     1      34.454 -16.549 -24.478  0.00  0.00    +0.202 P 
ATOM      5  O   UNL     1      34.915 -16.857 -25.878  0.00  0.00    -0.294 OA
ATOM      6  H   UNL     1      34.232 -17.499 -23.502  0.00  0.00    +0.129 HD
BRANCH   4   7
ATOM      7  O   UNL     1      35.702 -16.080 -23.548  0.00  0.00    -0.345 OA
ATOM      8  H   UNL     1      35.764 -16.661 -22.773  0.00  0.00    +0.217 HD
ENDBRANCH   4   7
ENDBRANCH   3   4
ENDBRANCH   2   3
BRANCH   2   9
ATOM      9  C   UNL     1      33.138 -12.811 -23.287  0.00  0.00    -0.050 C 
BRANCH   9  10
ATOM     10  N   UNL     1      34.159 -12.134 -24.082  0.00  0.00    +0.382 N 
ATOM     11  H   UNL     1      34.298 -11.189 -23.723  0.00  0.00    -0.089 HD
ATOM     12  H   UNL     1      33.855 -12.086 -25.055  0.00  0.00    -0.089 HD
ATOM     13  H   UNL     1      35.035 -12.652 -24.024  0.00  0.00    -0.089 HD
ENDBRANCH   9  10
ENDBRANCH   2   9
TORSDOF 5
ENDMDL
