MODEL 1
REMARK VINA RESULT:      -6.5      0.000      0.000
REMARK  Name = 5288675
REMARK  14 active torsions:
REMARK  status: ('A' for Active; 'I' for Inactive)
REMARK    1  A    between atoms: S_1  and  C_2
REMARK    2  A    between atoms: S_1  and  C_14
REMARK    3  A    between atoms: C_2  and  C_3
REMARK    4  A    between atoms: C_3  and  O_4
REMARK    5  A    between atoms: C_3  and  C_6
REMARK    6  A    between atoms: C_6  and  O_7
REMARK    7  A    between atoms: C_6  and  C_10
REMARK    8  A    between atoms: C_10  and  C_11
REMARK    9  A    between atoms: C_11  and  O_12
REMARK   10  A    between atoms: C_14  and  C_15
REMARK   11  A    between atoms: C_15  and  C_16
REMARK   12  A    between atoms: C_16  and  N_17
REMARK   13  A    between atoms: C_16  and  C_22
REMARK   14  A    between atoms: C_22  and  O_23
REMARK                            x       y       z     vdW  Elec       q    Type
REMARK                         _______ _______ _______ _____ _____    ______ ____
ROOT
ATOM      1  S   UNK     1      36.519 -23.692 -12.077  0.00  0.00    -0.138 S 
ENDROOT
BRANCH   1   2
ATOM      2  C   UNK     1      35.061 -24.378 -12.929  0.00  0.00    +0.090 C 
BRANCH   2   3
ATOM      3  C   UNK     1      35.185 -24.381 -14.460  0.00  0.00    +0.155 C 
BRANCH   3   4
ATOM      4  O   UNK     1      35.408 -25.720 -14.908  0.00  0.00    -0.381 OA
ATOM      5  H   UNK     1      35.782 -26.245 -14.184  0.00  0.00    +0.210 HD
ENDBRANCH   3   4
BRANCH   3   6
ATOM      6  C   UNK     1      33.986 -23.802 -15.225  0.00  0.00    +0.198 C 
BRANCH   6   7
ATOM      7  O   UNK     1      33.420 -22.705 -14.518  0.00  0.00    -0.375 OA
ATOM      8  H   UNK     1      33.893 -22.583 -13.680  0.00  0.00    +0.211 HD
ENDBRANCH   6   7
BRANCH   6  10
ATOM      9  O   UNK     1      35.551 -22.997 -16.883  0.00  0.00    -0.291 OA
ATOM     10  C   UNK     1      34.383 -23.272 -16.605  0.00  0.00    +0.209 C 
BRANCH  10  11
ATOM     11  C   UNK     1      33.275 -23.121 -17.631  0.00  0.00    +0.205 C 
BRANCH  11  12
ATOM     12  O   UNK     1      33.715 -23.563 -18.899  0.00  0.00    -0.375 OA
ATOM     13  H   UNK     1      34.617 -23.912 -18.825  0.00  0.00    +0.211 HD
ENDBRANCH  11  12
ENDBRANCH  10  11
ENDBRANCH   6  10
ENDBRANCH   3   6
ENDBRANCH   2   3
ENDBRANCH   1   2
BRANCH   1  14
ATOM     14  C   UNK     1      37.585 -25.148 -12.183  0.00  0.00    +0.056 C 
BRANCH  14  15
ATOM     15  C   UNK     1      38.827 -24.923 -13.050  0.00  0.00    +0.001 C 
BRANCH  15  16
ATOM     16  C   UNK     1      38.825 -25.642 -14.406  0.00  0.00    +0.037 C 
BRANCH  16  17
ATOM     17  N   UNK     1      38.062 -26.888 -14.291  0.00  0.00    +0.389 N 
ATOM     18  H   UNK     1      38.510 -27.500 -13.609  0.00  0.00    -0.088 HD
ATOM     19  H   UNK     1      38.033 -27.355 -15.198  0.00  0.00    -0.088 HD
ATOM     20  H   UNK     1      37.111 -26.678 -13.986  0.00  0.00    -0.088 HD
ENDBRANCH  16  17
BRANCH  16  22
ATOM     21  O   UNK     1      41.100 -26.445 -14.060  0.00  0.00    -0.253 OA
ATOM     22  C   UNK     1      40.232 -26.035 -14.820  0.00  0.00    +0.293 C 
BRANCH  22  23
ATOM     23  O   UNK     1      40.430 -25.910 -16.159  0.00  0.00    -0.482 OA
ATOM     24  H   UNK     1      41.252 -25.597 -16.483  0.00  0.00    +0.295 HD
ENDBRANCH  22  23
ENDBRANCH  16  22
ENDBRANCH  15  16
ENDBRANCH  14  15
ENDBRANCH   1  14
TORSDOF 14
ENDMDL
MODEL 2
REMARK VINA RESULT:      -6.4      3.324      7.323
REMARK  Name = 5288675
REMARK  14 active torsions:
REMARK  status: ('A' for Active; 'I' for Inactive)
REMARK    1  A    between atoms: S_1  and  C_2
REMARK    2  A    between atoms: S_1  and  C_14
REMARK    3  A    between atoms: C_2  and  C_3
REMARK    4  A    between atoms: C_3  and  O_4
REMARK    5  A    between atoms: C_3  and  C_6
REMARK    6  A    between atoms: C_6  and  O_7
REMARK    7  A    between atoms: C_6  and  C_10
REMARK    8  A    between atoms: C_10  and  C_11
REMARK    9  A    between atoms: C_11  and  O_12
REMARK   10  A    between atoms: C_14  and  C_15
REMARK   11  A    between atoms: C_15  and  C_16
REMARK   12  A    between atoms: C_16  and  N_17
REMARK   13  A    between atoms: C_16  and  C_22
REMARK   14  A    between atoms: C_22  and  O_23
REMARK                            x       y       z     vdW  Elec       q    Type
REMARK                         _______ _______ _______ _____ _____    ______ ____
ROOT
ATOM      1  S   UNK     1      34.518 -23.726 -15.313  0.00  0.00    -0.138 S 
ENDROOT
BRANCH   1   2
ATOM      2  C   UNK     1      35.635 -24.701 -14.254  0.00  0.00    +0.090 C 
BRANCH   2   3
ATOM      3  C   UNK     1      36.809 -25.336 -15.014  0.00  0.00    +0.155 C 
BRANCH   3   4
ATOM      4  O   UNK     1      37.537 -24.309 -15.692  0.00  0.00    -0.381 OA
ATOM      5  H   UNK     1      37.970 -23.736 -15.041  0.00  0.00    +0.210 HD
ENDBRANCH   3   4
BRANCH   3   6
ATOM      6  C   UNK     1      37.792 -26.151 -14.160  0.00  0.00    +0.198 C 
BRANCH   6   7
ATOM      7  O   UNK     1      38.159 -27.353 -14.826  0.00  0.00    -0.375 OA
ATOM      8  H   UNK     1      38.345 -28.042 -14.169  0.00  0.00    +0.211 HD
ENDBRANCH   6   7
BRANCH   6  10
ATOM      9  O   UNK     1      39.118 -24.384 -13.178  0.00  0.00    -0.291 OA
ATOM     10  C   UNK     1      39.092 -25.388 -13.890  0.00  0.00    +0.209 C 
BRANCH  10  11
ATOM     11  C   UNK     1      40.358 -25.939 -14.521  0.00  0.00    +0.205 C 
BRANCH  11  12
ATOM     12  O   UNK     1      40.302 -25.810 -15.928  0.00  0.00    -0.375 OA
ATOM     13  H   UNK     1      40.442 -26.678 -16.337  0.00  0.00    +0.211 HD
ENDBRANCH  11  12
ENDBRANCH  10  11
ENDBRANCH   6  10
ENDBRANCH   3   6
ENDBRANCH   2   3
ENDBRANCH   1   2
BRANCH   1  14
ATOM     14  C   UNK     1      33.002 -23.945 -14.353  0.00  0.00    +0.056 C 
BRANCH  14  15
ATOM     15  C   UNK     1      31.849 -23.060 -14.838  0.00  0.00    +0.001 C 
BRANCH  15  16
ATOM     16  C   UNK     1      31.184 -23.501 -16.149  0.00  0.00    +0.037 C 
BRANCH  16  17
ATOM     17  N   UNK     1      31.682 -22.668 -17.248  0.00  0.00    +0.389 N 
ATOM     18  H   UNK     1      31.418 -21.696 -17.084  0.00  0.00    -0.088 HD
ATOM     19  H   UNK     1      31.276 -22.986 -18.128  0.00  0.00    -0.088 HD
ATOM     20  H   UNK     1      32.698 -22.739 -17.295  0.00  0.00    -0.088 HD
ENDBRANCH  16  17
BRANCH  16  22
ATOM     21  O   UNK     1      28.915 -23.873 -15.339  0.00  0.00    -0.253 OA
ATOM     22  C   UNK     1      29.680 -23.293 -16.098  0.00  0.00    +0.293 C 
BRANCH  22  23
ATOM     23  O   UNK     1      29.260 -22.353 -16.985  0.00  0.00    -0.482 OA
ATOM     24  H   UNK     1      28.495 -21.844 -16.800  0.00  0.00    +0.295 HD
ENDBRANCH  22  23
ENDBRANCH  16  22
ENDBRANCH  15  16
ENDBRANCH  14  15
ENDBRANCH   1  14
TORSDOF 14
ENDMDL
MODEL 3
REMARK VINA RESULT:      -6.4      3.254      6.855
REMARK  Name = 5288675
REMARK  14 active torsions:
REMARK  status: ('A' for Active; 'I' for Inactive)
REMARK    1  A    between atoms: S_1  and  C_2
REMARK    2  A    between atoms: S_1  and  C_14
REMARK    3  A    between atoms: C_2  and  C_3
REMARK    4  A    between atoms: C_3  and  O_4
REMARK    5  A    between atoms: C_3  and  C_6
REMARK    6  A    between atoms: C_6  and  O_7
REMARK    7  A    between atoms: C_6  and  C_10
REMARK    8  A    between atoms: C_10  and  C_11
REMARK    9  A    between atoms: C_11  and  O_12
REMARK   10  A    between atoms: C_14  and  C_15
REMARK   11  A    between atoms: C_15  and  C_16
REMARK   12  A    between atoms: C_16  and  N_17
REMARK   13  A    between atoms: C_16  and  C_22
REMARK   14  A    between atoms: C_22  and  O_23
REMARK                            x       y       z     vdW  Elec       q    Type
REMARK                         _______ _______ _______ _____ _____    ______ ____
ROOT
ATOM      1  S   UNK     1      35.215 -23.106 -14.939  0.00  0.00    -0.138 S 
ENDROOT
BRANCH   1   2
ATOM      2  C   UNK     1      35.650 -24.776 -14.354  0.00  0.00    +0.090 C 
BRANCH   2   3
ATOM      3  C   UNK     1      36.888 -25.369 -15.045  0.00  0.00    +0.155 C 
BRANCH   3   4
ATOM      4  O   UNK     1      37.611 -24.319 -15.690  0.00  0.00    -0.381 OA
ATOM      5  H   UNK     1      38.559 -24.427 -15.519  0.00  0.00    +0.210 HD
ENDBRANCH   3   4
BRANCH   3   6
ATOM      6  C   UNK     1      37.853 -26.141 -14.133  0.00  0.00    +0.198 C 
BRANCH   6   7
ATOM      7  O   UNK     1      38.219 -27.382 -14.724  0.00  0.00    -0.375 OA
ATOM      8  H   UNK     1      37.769 -27.478 -15.577  0.00  0.00    +0.211 HD
ENDBRANCH   6   7
BRANCH   6  10
ATOM      9  O   UNK     1      39.192 -24.368 -13.180  0.00  0.00    -0.291 OA
ATOM     10  C   UNK     1      39.155 -25.374 -13.889  0.00  0.00    +0.209 C 
BRANCH  10  11
ATOM     11  C   UNK     1      40.410 -25.921 -14.543  0.00  0.00    +0.205 C 
BRANCH  11  12
ATOM     12  O   UNK     1      40.313 -25.827 -15.950  0.00  0.00    -0.375 OA
ATOM     13  H   UNK     1      39.936 -26.648 -16.303  0.00  0.00    +0.211 HD
ENDBRANCH  11  12
ENDBRANCH  10  11
ENDBRANCH   6  10
ENDBRANCH   3   6
ENDBRANCH   2   3
ENDBRANCH   1   2
BRANCH   1  14
ATOM     14  C   UNK     1      33.619 -23.506 -15.688  0.00  0.00    +0.056 C 
BRANCH  14  15
ATOM     15  C   UNK     1      32.426 -23.053 -14.842  0.00  0.00    +0.001 C 
BRANCH  15  16
ATOM     16  C   UNK     1      31.117 -23.819 -15.082  0.00  0.00    +0.037 C 
BRANCH  16  17
ATOM     17  N   UNK     1      29.984 -22.905 -14.907  0.00  0.00    +0.389 N 
ATOM     18  H   UNK     1      29.745 -22.845 -13.917  0.00  0.00    -0.088 HD
ATOM     19  H   UNK     1      29.181 -23.255 -15.429  0.00  0.00    -0.088 HD
ATOM     20  H   UNK     1      30.237 -21.979 -15.251  0.00  0.00    -0.088 HD
ENDBRANCH  16  17
BRANCH  16  22
ATOM     21  O   UNK     1      31.709 -25.173 -13.144  0.00  0.00    -0.253 OA
ATOM     22  C   UNK     1      30.937 -24.929 -14.062  0.00  0.00    +0.293 C 
BRANCH  22  23
ATOM     23  O   UNK     1      29.788 -25.628 -14.257  0.00  0.00    -0.482 OA
ATOM     24  H   UNK     1      28.989 -25.173 -14.442  0.00  0.00    +0.295 HD
ENDBRANCH  22  23
ENDBRANCH  16  22
ENDBRANCH  15  16
ENDBRANCH  14  15
ENDBRANCH   1  14
TORSDOF 14
ENDMDL
MODEL 4
REMARK VINA RESULT:      -6.4      4.018      7.892
REMARK  Name = 5288675
REMARK  14 active torsions:
REMARK  status: ('A' for Active; 'I' for Inactive)
REMARK    1  A    between atoms: S_1  and  C_2
REMARK    2  A    between atoms: S_1  and  C_14
REMARK    3  A    between atoms: C_2  and  C_3
REMARK    4  A    between atoms: C_3  and  O_4
REMARK    5  A    between atoms: C_3  and  C_6
REMARK    6  A    between atoms: C_6  and  O_7
REMARK    7  A    between atoms: C_6  and  C_10
REMARK    8  A    between atoms: C_10  and  C_11
REMARK    9  A    between atoms: C_11  and  O_12
REMARK   10  A    between atoms: C_14  and  C_15
REMARK   11  A    between atoms: C_15  and  C_16
REMARK   12  A    between atoms: C_16  and  N_17
REMARK   13  A    between atoms: C_16  and  C_22
REMARK   14  A    between atoms: C_22  and  O_23
REMARK                            x       y       z     vdW  Elec       q    Type
REMARK                         _______ _______ _______ _____ _____    ______ ____
ROOT
ATOM      1  S   UNK     1      32.503 -24.238 -14.044  0.00  0.00    -0.138 S 
ENDROOT
BRANCH   1   2
ATOM      2  C   UNK     1      34.207 -23.868 -14.573  0.00  0.00    +0.090 C 
BRANCH   2   3
ATOM      3  C   UNK     1      35.282 -24.417 -13.623  0.00  0.00    +0.155 C 
BRANCH   3   4
ATOM      4  O   UNK     1      34.650 -24.927 -12.447  0.00  0.00    -0.381 OA
ATOM      5  H   UNK     1      34.436 -25.863 -12.575  0.00  0.00    +0.210 HD
ENDBRANCH   3   4
BRANCH   3   6
ATOM      6  C   UNK     1      36.188 -25.512 -14.207  0.00  0.00    +0.198 C 
BRANCH   6   7
ATOM      7  O   UNK     1      36.826 -25.057 -15.393  0.00  0.00    -0.375 OA
ATOM      8  H   UNK     1      36.381 -25.437 -16.166  0.00  0.00    +0.211 HD
ENDBRANCH   6   7
BRANCH   6  10
ATOM      9  O   UNK     1      37.059 -26.376 -12.123  0.00  0.00    -0.291 OA
ATOM     10  C   UNK     1      37.303 -25.915 -13.238  0.00  0.00    +0.209 C 
BRANCH  10  11
ATOM     11  C   UNK     1      38.731 -25.743 -13.723  0.00  0.00    +0.205 C 
BRANCH  11  12
ATOM     12  O   UNK     1      39.058 -26.750 -14.658  0.00  0.00    -0.375 OA
ATOM     13  H   UNK     1      38.367 -27.430 -14.656  0.00  0.00    +0.211 HD
ENDBRANCH  11  12
ENDBRANCH  10  11
ENDBRANCH   6  10
ENDBRANCH   3   6
ENDBRANCH   2   3
ENDBRANCH   1   2
BRANCH   1  14
ATOM     14  C   UNK     1      31.670 -22.880 -14.898  0.00  0.00    +0.056 C 
BRANCH  14  15
ATOM     15  C   UNK     1      30.726 -23.355 -16.007  0.00  0.00    +0.001 C 
BRANCH  15  16
ATOM     16  C   UNK     1      29.239 -23.415 -15.629  0.00  0.00    +0.037 C 
BRANCH  16  17
ATOM     17  N   UNK     1      28.883 -24.796 -15.289  0.00  0.00    +0.389 N 
ATOM     18  H   UNK     1      28.615 -25.297 -16.136  0.00  0.00    -0.088 HD
ATOM     19  H   UNK     1      28.100 -24.794 -14.634  0.00  0.00    -0.088 HD
ATOM     20  H   UNK     1      29.684 -25.258 -14.860  0.00  0.00    -0.088 HD
ENDBRANCH  16  17
BRANCH  16  22
ATOM     21  O   UNK     1      28.163 -21.870 -17.177  0.00  0.00    -0.253 OA
ATOM     22  C   UNK     1      28.359 -23.019 -16.801  0.00  0.00    +0.293 C 
BRANCH  22  23
ATOM     23  O   UNK     1      27.817 -24.097 -17.426  0.00  0.00    -0.482 OA
ATOM     24  H   UNK     1      26.933 -24.349 -17.242  0.00  0.00    +0.295 HD
ENDBRANCH  22  23
ENDBRANCH  16  22
ENDBRANCH  15  16
ENDBRANCH  14  15
ENDBRANCH   1  14
TORSDOF 14
ENDMDL
MODEL 5
REMARK VINA RESULT:      -6.3      4.052      7.815
REMARK  Name = 5288675
REMARK  14 active torsions:
REMARK  status: ('A' for Active; 'I' for Inactive)
REMARK    1  A    between atoms: S_1  and  C_2
REMARK    2  A    between atoms: S_1  and  C_14
REMARK    3  A    between atoms: C_2  and  C_3
REMARK    4  A    between atoms: C_3  and  O_4
REMARK    5  A    between atoms: C_3  and  C_6
REMARK    6  A    between atoms: C_6  and  O_7
REMARK    7  A    between atoms: C_6  and  C_10
REMARK    8  A    between atoms: C_10  and  C_11
REMARK    9  A    between atoms: C_11  and  O_12
REMARK   10  A    between atoms: C_14  and  C_15
REMARK   11  A    between atoms: C_15  and  C_16
REMARK   12  A    between atoms: C_16  and  N_17
REMARK   13  A    between atoms: C_16  and  C_22
REMARK   14  A    between atoms: C_22  and  O_23
REMARK                            x       y       z     vdW  Elec       q    Type
REMARK                         _______ _______ _______ _____ _____    ______ ____
ROOT
ATOM      1  S   UNK     1      33.382 -23.353 -17.065  0.00  0.00    -0.138 S 
ENDROOT
BRANCH   1   2
ATOM      2  C   UNK     1      34.684 -23.181 -15.802  0.00  0.00    +0.090 C 
BRANCH   2   3
ATOM      3  C   UNK     1      34.803 -24.394 -14.867  0.00  0.00    +0.155 C 
BRANCH   3   4
ATOM      4  O   UNK     1      35.698 -25.345 -15.448  0.00  0.00    -0.381 OA
ATOM      5  H   UNK     1      35.262 -25.785 -16.193  0.00  0.00    +0.210 HD
ENDBRANCH   3   4
BRANCH   3   6
ATOM      6  C   UNK     1      35.272 -24.088 -13.437  0.00  0.00    +0.198 C 
BRANCH   6   7
ATOM      7  O   UNK     1      34.605 -24.924 -12.499  0.00  0.00    -0.375 OA
ATOM      8  H   UNK     1      34.794 -24.615 -11.600  0.00  0.00    +0.211 HD
ENDBRANCH   6   7
BRANCH   6  10
ATOM      9  O   UNK     1      37.618 -23.625 -13.794  0.00  0.00    -0.291 OA
ATOM     10  C   UNK     1      36.772 -24.339 -13.256  0.00  0.00    +0.209 C 
BRANCH  10  11
ATOM     11  C   UNK     1      37.173 -25.496 -12.360  0.00  0.00    +0.205 C 
BRANCH  11  12
ATOM     12  O   UNK     1      36.821 -26.727 -12.959  0.00  0.00    -0.375 OA
ATOM     13  H   UNK     1      37.611 -27.283 -13.045  0.00  0.00    +0.211 HD
ENDBRANCH  11  12
ENDBRANCH  10  11
ENDBRANCH   6  10
ENDBRANCH   3   6
ENDBRANCH   2   3
ENDBRANCH   1   2
BRANCH   1  14
ATOM     14  C   UNK     1      31.964 -23.485 -15.954  0.00  0.00    +0.056 C 
BRANCH  14  15
ATOM     15  C   UNK     1      30.720 -22.759 -16.475  0.00  0.00    +0.001 C 
BRANCH  15  16
ATOM     16  C   UNK     1      29.379 -23.266 -15.926  0.00  0.00    +0.037 C 
BRANCH  16  17
ATOM     17  N   UNK     1      29.411 -24.731 -15.850  0.00  0.00    +0.389 N 
ATOM     18  H   UNK     1      28.493 -25.104 -16.091  0.00  0.00    -0.088 HD
ATOM     19  H   UNK     1      29.656 -25.017 -14.903  0.00  0.00    -0.088 HD
ATOM     20  H   UNK     1      30.106 -25.090 -16.505  0.00  0.00    -0.088 HD
ENDBRANCH  16  17
BRANCH  16  22
ATOM     21  O   UNK     1      27.790 -21.779 -17.023  0.00  0.00    -0.253 OA
ATOM     22  C   UNK     1      28.234 -22.908 -16.856  0.00  0.00    +0.293 C 
BRANCH  22  23
ATOM     23  O   UNK     1      27.755 -23.990 -17.525  0.00  0.00    -0.482 OA
ATOM     24  H   UNK     1      28.343 -24.548 -17.994  0.00  0.00    +0.295 HD
ENDBRANCH  22  23
ENDBRANCH  16  22
ENDBRANCH  15  16
ENDBRANCH  14  15
ENDBRANCH   1  14
TORSDOF 14
ENDMDL
MODEL 6
REMARK VINA RESULT:      -6.3      3.091      6.722
REMARK  Name = 5288675
REMARK  14 active torsions:
REMARK  status: ('A' for Active; 'I' for Inactive)
REMARK    1  A    between atoms: S_1  and  C_2
REMARK    2  A    between atoms: S_1  and  C_14
REMARK    3  A    between atoms: C_2  and  C_3
REMARK    4  A    between atoms: C_3  and  O_4
REMARK    5  A    between atoms: C_3  and  C_6
REMARK    6  A    between atoms: C_6  and  O_7
REMARK    7  A    between atoms: C_6  and  C_10
REMARK    8  A    between atoms: C_10  and  C_11
REMARK    9  A    between atoms: C_11  and  O_12
REMARK   10  A    between atoms: C_14  and  C_15
REMARK   11  A    between atoms: C_15  and  C_16
REMARK   12  A    between atoms: C_16  and  N_17
REMARK   13  A    between atoms: C_16  and  C_22
REMARK   14  A    between atoms: C_22  and  O_23
REMARK                            x       y       z     vdW  Elec       q    Type
REMARK                         _______ _______ _______ _____ _____    ______ ____
ROOT
ATOM      1  S   UNK     1      34.930 -24.579 -14.938  0.00  0.00    -0.138 S 
ENDROOT
BRANCH   1   2
ATOM      2  C   UNK     1      35.821 -23.787 -13.560  0.00  0.00    +0.090 C 
BRANCH   2   3
ATOM      3  C   UNK     1      37.296 -23.489 -13.869  0.00  0.00    +0.155 C 
BRANCH   3   4
ATOM      4  O   UNK     1      38.061 -23.632 -12.670  0.00  0.00    -0.381 OA
ATOM      5  H   UNK     1      39.006 -23.606 -12.885  0.00  0.00    +0.210 HD
ENDBRANCH   3   4
BRANCH   3   6
ATOM      6  C   UNK     1      37.935 -24.355 -14.964  0.00  0.00    +0.198 C 
BRANCH   6   7
ATOM      7  O   UNK     1      38.813 -23.579 -15.771  0.00  0.00    -0.375 OA
ATOM      8  H   UNK     1      38.495 -23.579 -16.686  0.00  0.00    +0.211 HD
ENDBRANCH   6   7
BRANCH   6  10
ATOM      9  O   UNK     1      38.271 -26.382 -13.690  0.00  0.00    -0.291 OA
ATOM     10  C   UNK     1      38.773 -25.496 -14.382  0.00  0.00    +0.209 C 
BRANCH  10  11
ATOM     11  C   UNK     1      40.254 -25.503 -14.716  0.00  0.00    +0.205 C 
BRANCH  11  12
ATOM     12  O   UNK     1      40.459 -25.967 -16.035  0.00  0.00    -0.375 OA
ATOM     13  H   UNK     1      41.407 -26.108 -16.184  0.00  0.00    +0.211 HD
ENDBRANCH  11  12
ENDBRANCH  10  11
ENDBRANCH   6  10
ENDBRANCH   3   6
ENDBRANCH   2   3
ENDBRANCH   1   2
BRANCH   1  14
ATOM     14  C   UNK     1      33.848 -23.197 -15.370  0.00  0.00    +0.056 C 
BRANCH  14  15
ATOM     15  C   UNK     1      32.424 -23.635 -15.725  0.00  0.00    +0.001 C 
BRANCH  15  16
ATOM     16  C   UNK     1      31.377 -23.439 -14.620  0.00  0.00    +0.037 C 
BRANCH  16  17
ATOM     17  N   UNK     1      32.037 -22.922 -13.416  0.00  0.00    +0.389 N 
ATOM     18  H   UNK     1      32.987 -22.633 -13.647  0.00  0.00    -0.088 HD
ATOM     19  H   UNK     1      32.067 -23.652 -12.705  0.00  0.00    -0.088 HD
ATOM     20  H   UNK     1      31.516 -22.121 -13.060  0.00  0.00    -0.088 HD
ENDBRANCH  16  17
BRANCH  16  22
ATOM     21  O   UNK     1      29.940 -25.386 -14.912  0.00  0.00    -0.253 OA
ATOM     22  C   UNK     1      30.739 -24.760 -14.228  0.00  0.00    +0.293 C 
BRANCH  22  23
ATOM     23  O   UNK     1      31.175 -25.204 -13.020  0.00  0.00    -0.482 OA
ATOM     24  H   UNK     1      32.091 -25.205 -12.824  0.00  0.00    +0.295 HD
ENDBRANCH  22  23
ENDBRANCH  16  22
ENDBRANCH  15  16
ENDBRANCH  14  15
ENDBRANCH   1  14
TORSDOF 14
ENDMDL
MODEL 7
REMARK VINA RESULT:      -6.2      4.190      7.832
REMARK  Name = 5288675
REMARK  14 active torsions:
REMARK  status: ('A' for Active; 'I' for Inactive)
REMARK    1  A    between atoms: S_1  and  C_2
REMARK    2  A    between atoms: S_1  and  C_14
REMARK    3  A    between atoms: C_2  and  C_3
REMARK    4  A    between atoms: C_3  and  O_4
REMARK    5  A    between atoms: C_3  and  C_6
REMARK    6  A    between atoms: C_6  and  O_7
REMARK    7  A    between atoms: C_6  and  C_10
REMARK    8  A    between atoms: C_10  and  C_11
REMARK    9  A    between atoms: C_11  and  O_12
REMARK   10  A    between atoms: C_14  and  C_15
REMARK   11  A    between atoms: C_15  and  C_16
REMARK   12  A    between atoms: C_16  and  N_17
REMARK   13  A    between atoms: C_16  and  C_22
REMARK   14  A    between atoms: C_22  and  O_23
REMARK                            x       y       z     vdW  Elec       q    Type
REMARK                         _______ _______ _______ _____ _____    ______ ____
ROOT
ATOM      1  S   UNK     1      32.483 -24.037 -13.902  0.00  0.00    -0.138 S 
ENDROOT
BRANCH   1   2
ATOM      2  C   UNK     1      33.924 -23.786 -14.988  0.00  0.00    +0.090 C 
BRANCH   2   3
ATOM      3  C   UNK     1      35.225 -24.393 -14.439  0.00  0.00    +0.155 C 
BRANCH   3   4
ATOM      4  O   UNK     1      35.936 -25.019 -15.510  0.00  0.00    -0.381 OA
ATOM      5  H   UNK     1      36.097 -24.371 -16.212  0.00  0.00    +0.210 HD
ENDBRANCH   3   4
BRANCH   3   6
ATOM      6  C   UNK     1      36.170 -23.412 -13.730  0.00  0.00    +0.198 C 
BRANCH   6   7
ATOM      7  O   UNK     1      35.758 -23.200 -12.385  0.00  0.00    -0.375 OA
ATOM      8  H   UNK     1      36.292 -22.493 -11.992  0.00  0.00    +0.211 HD
ENDBRANCH   6   7
BRANCH   6  10
ATOM      9  O   UNK     1      38.316 -24.006 -14.672  0.00  0.00    -0.291 OA
ATOM     10  C   UNK     1      37.606 -23.937 -13.668  0.00  0.00    +0.209 C 
BRANCH  10  11
ATOM     11  C   UNK     1      38.131 -24.350 -12.305  0.00  0.00    +0.205 C 
BRANCH  11  12
ATOM     12  O   UNK     1      38.674 -23.235 -11.628  0.00  0.00    -0.375 OA
ATOM     13  H   UNK     1      38.662 -22.463 -12.216  0.00  0.00    +0.211 HD
ENDBRANCH  11  12
ENDBRANCH  10  11
ENDBRANCH   6  10
ENDBRANCH   3   6
ENDBRANCH   2   3
ENDBRANCH   1   2
BRANCH   1  14
ATOM     14  C   UNK     1      31.413 -22.757 -14.596  0.00  0.00    +0.056 C 
BRANCH  14  15
ATOM     15  C   UNK     1      30.598 -23.241 -15.800  0.00  0.00    +0.001 C 
BRANCH  15  16
ATOM     16  C   UNK     1      29.094 -23.419 -15.551  0.00  0.00    +0.037 C 
BRANCH  16  17
ATOM     17  N   UNK     1      28.836 -24.795 -15.114  0.00  0.00    +0.389 N 
ATOM     18  H   UNK     1      29.457 -25.432 -15.614  0.00  0.00    -0.088 HD
ATOM     19  H   UNK     1      27.867 -25.040 -15.315  0.00  0.00    -0.088 HD
ATOM     20  H   UNK     1      29.007 -24.872 -14.112  0.00  0.00    -0.088 HD
ENDBRANCH  16  17
BRANCH  16  22
ATOM     21  O   UNK     1      27.784 -24.112 -17.486  0.00  0.00    -0.253 OA
ATOM     22  C   UNK     1      28.299 -23.216 -16.828  0.00  0.00    +0.293 C 
BRANCH  22  23
ATOM     23  O   UNK     1      28.189 -21.904 -17.165  0.00  0.00    -0.482 OA
ATOM     24  H   UNK     1      28.738 -21.545 -17.833  0.00  0.00    +0.295 HD
ENDBRANCH  22  23
ENDBRANCH  16  22
ENDBRANCH  15  16
ENDBRANCH  14  15
ENDBRANCH   1  14
TORSDOF 14
ENDMDL
MODEL 8
REMARK VINA RESULT:      -6.2      2.588      3.755
REMARK  Name = 5288675
REMARK  14 active torsions:
REMARK  status: ('A' for Active; 'I' for Inactive)
REMARK    1  A    between atoms: S_1  and  C_2
REMARK    2  A    between atoms: S_1  and  C_14
REMARK    3  A    between atoms: C_2  and  C_3
REMARK    4  A    between atoms: C_3  and  O_4
REMARK    5  A    between atoms: C_3  and  C_6
REMARK    6  A    between atoms: C_6  and  O_7
REMARK    7  A    between atoms: C_6  and  C_10
REMARK    8  A    between atoms: C_10  and  C_11
REMARK    9  A    between atoms: C_11  and  O_12
REMARK   10  A    between atoms: C_14  and  C_15
REMARK   11  A    between atoms: C_15  and  C_16
REMARK   12  A    between atoms: C_16  and  N_17
REMARK   13  A    between atoms: C_16  and  C_22
REMARK   14  A    between atoms: C_22  and  O_23
REMARK                            x       y       z     vdW  Elec       q    Type
REMARK                         _______ _______ _______ _____ _____    ______ ____
ROOT
ATOM      1  S   UNK     1      37.199 -23.257 -15.543  0.00  0.00    -0.138 S 
ENDROOT
BRANCH   1   2
ATOM      2  C   UNK     1      35.814 -23.039 -14.380  0.00  0.00    +0.090 C 
BRANCH   2   3
ATOM      3  C   UNK     1      34.473 -23.570 -14.909  0.00  0.00    +0.155 C 
BRANCH   3   4
ATOM      4  O   UNK     1      34.652 -24.039 -16.247  0.00  0.00    -0.381 OA
ATOM      5  H   UNK     1      35.598 -24.076 -16.453  0.00  0.00    +0.210 HD
ENDBRANCH   3   4
BRANCH   3   6
ATOM      6  C   UNK     1      33.827 -24.690 -14.079  0.00  0.00    +0.198 C 
BRANCH   6   7
ATOM      7  O   UNK     1      34.336 -24.689 -12.751  0.00  0.00    -0.375 OA
ATOM      8  H   UNK     1      34.579 -25.593 -12.498  0.00  0.00    +0.211 HD
ENDBRANCH   6   7
BRANCH   6  10
ATOM      9  O   UNK     1      31.543 -25.481 -14.042  0.00  0.00    -0.291 OA
ATOM     10  C   UNK     1      32.310 -24.521 -13.964  0.00  0.00    +0.209 C 
BRANCH  10  11
ATOM     11  C   UNK     1      31.789 -23.116 -13.725  0.00  0.00    +0.205 C 
BRANCH  11  12
ATOM     12  O   UNK     1      32.197 -22.650 -12.455  0.00  0.00    -0.375 OA
ATOM     13  H   UNK     1      32.402 -23.406 -11.883  0.00  0.00    +0.211 HD
ENDBRANCH  11  12
ENDBRANCH  10  11
ENDBRANCH   6  10
ENDBRANCH   3   6
ENDBRANCH   2   3
ENDBRANCH   1   2
BRANCH   1  14
ATOM     14  C   UNK     1      37.700 -24.918 -15.035  0.00  0.00    +0.056 C 
BRANCH  14  15
ATOM     15  C   UNK     1      38.684 -24.918 -13.861  0.00  0.00    +0.001 C 
BRANCH  15  16
ATOM     16  C   UNK     1      38.120 -25.423 -12.526  0.00  0.00    +0.037 C 
BRANCH  16  17
ATOM     17  N   UNK     1      36.891 -26.182 -12.777  0.00  0.00    +0.389 N 
ATOM     18  H   UNK     1      37.089 -27.181 -12.709  0.00  0.00    -0.088 HD
ATOM     19  H   UNK     1      36.543 -25.968 -13.711  0.00  0.00    -0.088 HD
ATOM     20  H   UNK     1      36.187 -25.928 -12.084  0.00  0.00    -0.088 HD
ENDBRANCH  16  17
BRANCH  16  22
ATOM     21  O   UNK     1      36.781 -24.261 -10.853  0.00  0.00    -0.253 OA
ATOM     22  C   UNK     1      37.734 -24.266 -11.622  0.00  0.00    +0.293 C 
BRANCH  22  23
ATOM     23  O   UNK     1      38.590 -23.216 -11.732  0.00  0.00    -0.482 OA
ATOM     24  H   UNK     1      38.480 -22.463 -11.187  0.00  0.00    +0.295 HD
ENDBRANCH  22  23
ENDBRANCH  16  22
ENDBRANCH  15  16
ENDBRANCH  14  15
ENDBRANCH   1  14
TORSDOF 14
ENDMDL
MODEL 9
REMARK VINA RESULT:      -6.2      3.746      7.422
REMARK  Name = 5288675
REMARK  14 active torsions:
REMARK  status: ('A' for Active; 'I' for Inactive)
REMARK    1  A    between atoms: S_1  and  C_2
REMARK    2  A    between atoms: S_1  and  C_14
REMARK    3  A    between atoms: C_2  and  C_3
REMARK    4  A    between atoms: C_3  and  O_4
REMARK    5  A    between atoms: C_3  and  C_6
REMARK    6  A    between atoms: C_6  and  O_7
REMARK    7  A    between atoms: C_6  and  C_10
REMARK    8  A    between atoms: C_10  and  C_11
REMARK    9  A    between atoms: C_11  and  O_12
REMARK   10  A    between atoms: C_14  and  C_15
REMARK   11  A    between atoms: C_15  and  C_16
REMARK   12  A    between atoms: C_16  and  N_17
REMARK   13  A    between atoms: C_16  and  C_22
REMARK   14  A    between atoms: C_22  and  O_23
REMARK                            x       y       z     vdW  Elec       q    Type
REMARK                         _______ _______ _______ _____ _____    ______ ____
ROOT
ATOM      1  S   UNK     1      33.857 -23.343 -15.080  0.00  0.00    -0.138 S 
ENDROOT
BRANCH   1   2
ATOM      2  C   UNK     1      35.124 -24.430 -14.351  0.00  0.00    +0.090 C 
BRANCH   2   3
ATOM      3  C   UNK     1      36.048 -25.086 -15.389  0.00  0.00    +0.155 C 
BRANCH   3   4
ATOM      4  O   UNK     1      37.148 -24.212 -15.652  0.00  0.00    -0.381 OA
ATOM      5  H   UNK     1      37.721 -24.608 -16.326  0.00  0.00    +0.210 HD
ENDBRANCH   3   4
BRANCH   3   6
ATOM      6  C   UNK     1      36.599 -26.469 -15.010  0.00  0.00    +0.198 C 
BRANCH   6   7
ATOM      7  O   UNK     1      36.833 -27.252 -16.174  0.00  0.00    -0.375 OA
ATOM      8  H   UNK     1      37.767 -27.184 -16.426  0.00  0.00    +0.211 HD
ENDBRANCH   6   7
BRANCH   6  10
ATOM      9  O   UNK     1      39.003 -26.645 -14.825  0.00  0.00    -0.291 OA
ATOM     10  C   UNK     1      37.937 -26.374 -14.272  0.00  0.00    +0.209 C 
BRANCH  10  11
ATOM     11  C   UNK     1      37.896 -25.907 -12.829  0.00  0.00    +0.205 C 
BRANCH  11  12
ATOM     12  O   UNK     1      36.857 -26.561 -12.129  0.00  0.00    -0.375 OA
ATOM     13  H   UNK     1      36.941 -27.520 -12.248  0.00  0.00    +0.211 HD
ENDBRANCH  11  12
ENDBRANCH  10  11
ENDBRANCH   6  10
ENDBRANCH   3   6
ENDBRANCH   2   3
ENDBRANCH   1   2
BRANCH   1  14
ATOM     14  C   UNK     1      32.490 -23.769 -13.978  0.00  0.00    +0.056 C 
BRANCH  14  15
ATOM     15  C   UNK     1      31.148 -23.184 -14.428  0.00  0.00    +0.001 C 
BRANCH  15  16
ATOM     16  C   UNK     1      30.546 -23.811 -15.694  0.00  0.00    +0.037 C 
BRANCH  16  17
ATOM     17  N   UNK     1      30.476 -22.796 -16.749  0.00  0.00    +0.389 N 
ATOM     18  H   UNK     1      29.527 -22.425 -16.803  0.00  0.00    -0.088 HD
ATOM     19  H   UNK     1      30.727 -23.217 -17.644  0.00  0.00    -0.088 HD
ATOM     20  H   UNK     1      31.124 -22.038 -16.536  0.00  0.00    -0.088 HD
ENDBRANCH  16  17
BRANCH  16  22
ATOM     21  O   UNK     1      28.135 -23.868 -16.049  0.00  0.00    -0.253 OA
ATOM     22  C   UNK     1      29.121 -24.277 -15.450  0.00  0.00    +0.293 C 
BRANCH  22  23
ATOM     23  O   UNK     1      29.050 -25.240 -14.493  0.00  0.00    -0.482 OA
ATOM     24  H   UNK     1      29.782 -25.393 -13.928  0.00  0.00    +0.295 HD
ENDBRANCH  22  23
ENDBRANCH  16  22
ENDBRANCH  15  16
ENDBRANCH  14  15
ENDBRANCH   1  14
TORSDOF 14
ENDMDL
