MODEL 1
REMARK VINA RESULT:      -9.0      0.000      0.000
REMARK  Name = 5289418
REMARK  5 active torsions:
REMARK  status: ('A' for Active; 'I' for Inactive)
REMARK    1  A    between atoms: C_2  and  C_20
REMARK    2  A    between atoms: C_3  and  C_11
REMARK    3  A    between atoms: C_20  and  C_21
REMARK    4  A    between atoms: C_21  and  C_23
REMARK    5  A    between atoms: C_23  and  O_24
REMARK                            x       y       z     vdW  Elec       q    Type
REMARK                         _______ _______ _______ _____ _____    ______ ____
ROOT
ATOM      1  N   UNL     1      34.928 -19.140 -23.822  0.00  0.00    -0.312 N 
ATOM      2  C   UNL     1      34.838 -17.201 -22.743  0.00  0.00    -0.011 C 
ATOM      3  C   UNL     1      35.127 -18.521 -22.630  0.00  0.00    +0.044 C 
ATOM      4  C   UNL     1      34.437 -16.990 -24.086  0.00  0.00    -0.010 C 
ATOM      5  C   UNL     1      34.503 -18.206 -24.729  0.00  0.00    +0.057 C 
ATOM      6  C   UNL     1      34.024 -15.710 -24.694  0.00  0.00    +0.032 C 
ATOM      7  H   UNL     1      35.067 -20.097 -24.002  0.00  0.00    +0.152 HD
ENDROOT
BRANCH   3  11
ATOM      8  O   UNL     1      32.630 -19.560 -21.778  0.00  0.00    -0.270 OA
ATOM      9  N   UNL     1      32.868 -21.021 -19.937  0.00  0.00    -0.280 N 
ATOM     10  C   UNL     1      34.783 -20.080 -20.768  0.00  0.00    +0.056 C 
ATOM     11  C   UNL     1      35.578 -19.340 -21.543  0.00  0.00    +0.019 C 
ATOM     12  C   UNL     1      35.148 -20.938 -19.646  0.00  0.00    +0.018 C 
ATOM     13  C   UNL     1      33.949 -21.485 -19.179  0.00  0.00    +0.051 C 
ATOM     14  C   UNL     1      33.293 -20.147 -20.943  0.00  0.00    +0.250 C 
ATOM     15  C   UNL     1      36.351 -21.257 -19.045  0.00  0.00    +0.001 C 
ATOM     16  C   UNL     1      33.901 -22.358 -18.110  0.00  0.00    +0.015 C 
ATOM     17  C   UNL     1      36.325 -22.141 -17.960  0.00  0.00    +0.000 C 
ATOM     18  C   UNL     1      35.113 -22.686 -17.498  0.00  0.00    +0.001 C 
ATOM     19  H   UNL     1      31.931 -21.277 -19.783  0.00  0.00    +0.155 HD
ENDBRANCH   3  11
BRANCH   2  20
ATOM     20  C   UNL     1      34.921 -16.173 -21.684  0.00  0.00    +0.039 C 
BRANCH  20  21
ATOM     21  C   UNL     1      33.842 -16.295 -20.589  0.00  0.00    +0.114 C 
BRANCH  21  23
ATOM     22  O   UNL     1      32.205 -14.875 -21.707  0.00  0.00    -0.250 OA
ATOM     23  C   UNL     1      32.463 -15.877 -21.056  0.00  0.00    +0.314 C 
BRANCH  23  24
ATOM     24  O   UNL     1      31.511 -16.751 -20.634  0.00  0.00    -0.480 OA
ATOM     25  H   UNL     1      31.393 -17.566 -21.079  0.00  0.00    +0.295 HD
ENDBRANCH  23  24
ENDBRANCH  21  23
ENDBRANCH  20  21
ENDBRANCH   2  20
TORSDOF 5
ENDMDL
MODEL 2
REMARK VINA RESULT:      -9.0      4.436      6.731
REMARK  Name = 5289418
REMARK  5 active torsions:
REMARK  status: ('A' for Active; 'I' for Inactive)
REMARK    1  A    between atoms: C_2  and  C_20
REMARK    2  A    between atoms: C_3  and  C_11
REMARK    3  A    between atoms: C_20  and  C_21
REMARK    4  A    between atoms: C_21  and  C_23
REMARK    5  A    between atoms: C_23  and  O_24
REMARK                            x       y       z     vdW  Elec       q    Type
REMARK                         _______ _______ _______ _____ _____    ______ ____
ROOT
ATOM      1  N   UNL     1      34.217 -11.564 -24.018  0.00  0.00    -0.312 N 
ATOM      2  C   UNL     1      32.495 -11.607 -22.616  0.00  0.00    -0.011 C 
ATOM      3  C   UNL     1      33.536 -12.318 -23.117  0.00  0.00    +0.044 C 
ATOM      4  C   UNL     1      32.534 -10.338 -23.246  0.00  0.00    -0.010 C 
ATOM      5  C   UNL     1      33.609 -10.340 -24.107  0.00  0.00    +0.057 C 
ATOM      6  C   UNL     1      31.602  -9.215 -23.027  0.00  0.00    +0.032 C 
ATOM      7  H   UNL     1      35.013 -11.850 -24.521  0.00  0.00    +0.152 HD
ENDROOT
BRANCH   3  11
ATOM      8  O   UNL     1      32.893 -13.484 -25.620  0.00  0.00    -0.270 OA
ATOM      9  N   UNL     1      33.531 -15.756 -25.720  0.00  0.00    -0.280 N 
ATOM     10  C   UNL     1      33.971 -14.642 -23.770  0.00  0.00    +0.056 C 
ATOM     11  C   UNL     1      34.025 -13.645 -22.883  0.00  0.00    +0.019 C 
ATOM     12  C   UNL     1      34.438 -16.015 -23.622  0.00  0.00    +0.018 C 
ATOM     13  C   UNL     1      34.147 -16.648 -24.835  0.00  0.00    +0.051 C 
ATOM     14  C   UNL     1      33.383 -14.491 -25.143  0.00  0.00    +0.250 C 
ATOM     15  C   UNL     1      35.050 -16.708 -22.595  0.00  0.00    +0.001 C 
ATOM     16  C   UNL     1      34.450 -17.975 -25.068  0.00  0.00    +0.015 C 
ATOM     17  C   UNL     1      35.366 -18.054 -22.810  0.00  0.00    +0.000 C 
ATOM     18  C   UNL     1      35.069 -18.681 -24.034  0.00  0.00    +0.001 C 
ATOM     19  H   UNL     1      33.241 -15.989 -26.631  0.00  0.00    +0.155 HD
ENDBRANCH   3  11
BRANCH   2  20
ATOM     20  C   UNL     1      31.507 -12.055 -21.613  0.00  0.00    +0.039 C 
BRANCH  20  21
ATOM     21  C   UNL     1      31.998 -11.981 -20.154  0.00  0.00    +0.114 C 
BRANCH  21  23
ATOM     22  O   UNL     1      30.415 -10.426 -19.143  0.00  0.00    -0.250 OA
ATOM     23  C   UNL     1      31.565 -10.718 -19.438  0.00  0.00    +0.314 C 
BRANCH  23  24
ATOM     24  O   UNL     1      32.624  -9.906 -19.181  0.00  0.00    -0.480 OA
ATOM     25  H   UNL     1      33.397 -10.256 -18.785  0.00  0.00    +0.295 HD
ENDBRANCH  23  24
ENDBRANCH  21  23
ENDBRANCH  20  21
ENDBRANCH   2  20
TORSDOF 5
ENDMDL
MODEL 3
REMARK VINA RESULT:      -9.0      5.644     10.004
REMARK  Name = 5289418
REMARK  5 active torsions:
REMARK  status: ('A' for Active; 'I' for Inactive)
REMARK    1  A    between atoms: C_2  and  C_20
REMARK    2  A    between atoms: C_3  and  C_11
REMARK    3  A    between atoms: C_20  and  C_21
REMARK    4  A    between atoms: C_21  and  C_23
REMARK    5  A    between atoms: C_23  and  O_24
REMARK                            x       y       z     vdW  Elec       q    Type
REMARK                         _______ _______ _______ _____ _____    ______ ____
ROOT
ATOM      1  N   UNL     1      35.574 -23.042 -13.532  0.00  0.00    -0.312 N 
ATOM      2  C   UNL     1      37.069 -24.638 -13.921  0.00  0.00    -0.011 C 
ATOM      3  C   UNL     1      36.463 -23.537 -14.431  0.00  0.00    +0.044 C 
ATOM      4  C   UNL     1      36.522 -24.836 -12.628  0.00  0.00    -0.010 C 
ATOM      5  C   UNL     1      35.601 -23.834 -12.415  0.00  0.00    +0.057 C 
ATOM      6  C   UNL     1      36.868 -25.911 -11.678  0.00  0.00    +0.032 C 
ATOM      7  H   UNL     1      35.008 -22.248 -13.662  0.00  0.00    +0.152 HD
ENDROOT
BRANCH   3  11
ATOM      8  O   UNL     1      33.876 -24.038 -15.478  0.00  0.00    -0.270 OA
ATOM      9  N   UNL     1      33.580 -23.047 -17.601  0.00  0.00    -0.280 N 
ATOM     10  C   UNL     1      35.614 -22.750 -16.593  0.00  0.00    +0.056 C 
ATOM     11  C   UNL     1      36.580 -22.838 -15.677  0.00  0.00    +0.019 C 
ATOM     12  C   UNL     1      35.642 -22.066 -17.881  0.00  0.00    +0.018 C 
ATOM     13  C   UNL     1      34.383 -22.277 -18.451  0.00  0.00    +0.051 C 
ATOM     14  C   UNL     1      34.263 -23.383 -16.428  0.00  0.00    +0.250 C 
ATOM     15  C   UNL     1      36.603 -21.329 -18.547  0.00  0.00    +0.001 C 
ATOM     16  C   UNL     1      34.037 -21.771 -19.688  0.00  0.00    +0.015 C 
ATOM     17  C   UNL     1      36.273 -20.806 -19.802  0.00  0.00    +0.000 C 
ATOM     18  C   UNL     1      35.003 -21.025 -20.367  0.00  0.00    +0.001 C 
ATOM     19  H   UNL     1      32.656 -23.315 -17.803  0.00  0.00    +0.155 HD
ENDBRANCH   3  11
BRANCH   2  20
ATOM     20  C   UNL     1      38.097 -25.477 -14.573  0.00  0.00    +0.039 C 
BRANCH  20  21
ATOM     21  C   UNL     1      39.539 -25.201 -14.102  0.00  0.00    +0.114 C 
BRANCH  21  23
ATOM     22  O   UNL     1      41.334 -26.850 -14.142  0.00  0.00    -0.250 OA
ATOM     23  C   UNL     1      40.564 -26.115 -14.742  0.00  0.00    +0.314 C 
BRANCH  23  24
ATOM     24  O   UNL     1      40.553 -26.000 -16.096  0.00  0.00    -0.480 OA
ATOM     25  H   UNL     1      40.970 -26.651 -16.625  0.00  0.00    +0.295 HD
ENDBRANCH  23  24
ENDBRANCH  21  23
ENDBRANCH  20  21
ENDBRANCH   2  20
TORSDOF 5
ENDMDL
MODEL 4
REMARK VINA RESULT:      -8.8      1.597      2.076
REMARK  Name = 5289418
REMARK  5 active torsions:
REMARK  status: ('A' for Active; 'I' for Inactive)
REMARK    1  A    between atoms: C_2  and  C_20
REMARK    2  A    between atoms: C_3  and  C_11
REMARK    3  A    between atoms: C_20  and  C_21
REMARK    4  A    between atoms: C_21  and  C_23
REMARK    5  A    between atoms: C_23  and  O_24
REMARK                            x       y       z     vdW  Elec       q    Type
REMARK                         _______ _______ _______ _____ _____    ______ ____
ROOT
ATOM      1  N   UNL     1      34.607 -19.144 -23.507  0.00  0.00    -0.312 N 
ATOM      2  C   UNL     1      34.318 -17.336 -22.249  0.00  0.00    -0.011 C 
ATOM      3  C   UNL     1      34.246 -18.690 -22.280  0.00  0.00    +0.044 C 
ATOM      4  C   UNL     1      34.751 -16.927 -23.536  0.00  0.00    -0.010 C 
ATOM      5  C   UNL     1      34.921 -18.066 -24.292  0.00  0.00    +0.057 C 
ATOM      6  C   UNL     1      34.979 -15.543 -23.993  0.00  0.00    +0.032 C 
ATOM      7  H   UNL     1      34.638 -20.087 -23.785  0.00  0.00    +0.152 HD
ENDROOT
BRANCH   3  11
ATOM      8  O   UNL     1      36.773 -19.084 -21.056  0.00  0.00    -0.270 OA
ATOM      9  N   UNL     1      36.669 -20.686 -19.324  0.00  0.00    -0.280 N 
ATOM     10  C   UNL     1      34.719 -20.233 -20.433  0.00  0.00    +0.056 C 
ATOM     11  C   UNL     1      33.878 -19.677 -21.307  0.00  0.00    +0.019 C 
ATOM     12  C   UNL     1      34.438 -21.238 -19.415  0.00  0.00    +0.018 C 
ATOM     13  C   UNL     1      35.656 -21.477 -18.770  0.00  0.00    +0.051 C 
ATOM     14  C   UNL     1      36.178 -19.885 -20.359  0.00  0.00    +0.250 C 
ATOM     15  C   UNL     1      33.293 -21.912 -19.032  0.00  0.00    +0.001 C 
ATOM     16  C   UNL     1      35.780 -22.383 -17.735  0.00  0.00    +0.015 C 
ATOM     17  C   UNL     1      33.397 -22.835 -17.985  0.00  0.00    +0.000 C 
ATOM     18  C   UNL     1      34.627 -23.067 -17.343  0.00  0.00    +0.001 C 
ATOM     19  H   UNL     1      37.606 -20.693 -19.023  0.00  0.00    +0.155 HD
ENDBRANCH   3  11
BRANCH   2  20
ATOM     20  C   UNL     1      34.010 -16.448 -21.108  0.00  0.00    +0.039 C 
BRANCH  20  21
ATOM     21  C   UNL     1      32.558 -15.930 -21.075  0.00  0.00    +0.114 C 
BRANCH  21  23
ATOM     22  O   UNL     1      32.661 -13.560 -20.514  0.00  0.00    -0.250 OA
ATOM     23  C   UNL     1      32.446 -14.442 -21.333  0.00  0.00    +0.314 C 
BRANCH  23  24
ATOM     24  O   UNL     1      32.038 -14.188 -22.604  0.00  0.00    -0.480 OA
ATOM     25  H   UNL     1      31.269 -13.674 -22.755  0.00  0.00    +0.295 HD
ENDBRANCH  23  24
ENDBRANCH  21  23
ENDBRANCH  20  21
ENDBRANCH   2  20
TORSDOF 5
ENDMDL
MODEL 5
REMARK VINA RESULT:      -8.7      6.896      9.332
REMARK  Name = 5289418
REMARK  5 active torsions:
REMARK  status: ('A' for Active; 'I' for Inactive)
REMARK    1  A    between atoms: C_2  and  C_20
REMARK    2  A    between atoms: C_3  and  C_11
REMARK    3  A    between atoms: C_20  and  C_21
REMARK    4  A    between atoms: C_21  and  C_23
REMARK    5  A    between atoms: C_23  and  O_24
REMARK                            x       y       z     vdW  Elec       q    Type
REMARK                         _______ _______ _______ _____ _____    ______ ____
ROOT
ATOM      1  N   UNL     1      35.969 -26.471 -14.888  0.00  0.00    -0.312 N 
ATOM      2  C   UNL     1      37.080 -24.552 -14.762  0.00  0.00    -0.011 C 
ATOM      3  C   UNL     1      35.903 -25.132 -15.105  0.00  0.00    +0.044 C 
ATOM      4  C   UNL     1      37.925 -25.594 -14.306  0.00  0.00    -0.010 C 
ATOM      5  C   UNL     1      37.212 -26.769 -14.395  0.00  0.00    +0.057 C 
ATOM      6  C   UNL     1      39.312 -25.458 -13.823  0.00  0.00    +0.032 C 
ATOM      7  H   UNL     1      35.245 -27.117 -15.057  0.00  0.00    +0.152 HD
ENDROOT
BRANCH   3  11
ATOM      8  O   UNL     1      34.627 -24.455 -12.665  0.00  0.00    -0.270 OA
ATOM      9  N   UNL     1      32.480 -23.538 -13.022  0.00  0.00    -0.280 N 
ATOM     10  C   UNL     1      33.668 -24.148 -14.881  0.00  0.00    +0.056 C 
ATOM     11  C   UNL     1      34.669 -24.621 -15.626  0.00  0.00    +0.019 C 
ATOM     12  C   UNL     1      32.384 -23.612 -15.318  0.00  0.00    +0.018 C 
ATOM     13  C   UNL     1      31.702 -23.256 -14.150  0.00  0.00    +0.051 C 
ATOM     14  C   UNL     1      33.713 -24.091 -13.381  0.00  0.00    +0.250 C 
ATOM     15  C   UNL     1      31.804 -23.423 -16.559  0.00  0.00    +0.001 C 
ATOM     16  C   UNL     1      30.436 -22.707 -14.171  0.00  0.00    +0.015 C 
ATOM     17  C   UNL     1      30.520 -22.867 -16.603  0.00  0.00    +0.000 C 
ATOM     18  C   UNL     1      29.843 -22.512 -15.421  0.00  0.00    +0.001 C 
ATOM     19  H   UNL     1      32.197 -23.367 -12.095  0.00  0.00    +0.155 HD
ENDBRANCH   3  11
BRANCH   2  20
ATOM     20  C   UNL     1      37.427 -23.117 -14.844  0.00  0.00    +0.039 C 
BRANCH  20  21
ATOM     21  C   UNL     1      37.978 -22.670 -16.212  0.00  0.00    +0.114 C 
BRANCH  21  23
ATOM     22  O   UNL     1      36.000 -22.282 -17.585  0.00  0.00    -0.250 OA
ATOM     23  C   UNL     1      36.992 -21.848 -17.016  0.00  0.00    +0.314 C 
BRANCH  23  24
ATOM     24  O   UNL     1      37.358 -20.540 -17.063  0.00  0.00    -0.480 OA
ATOM     25  H   UNL     1      36.704 -19.869 -17.046  0.00  0.00    +0.295 HD
ENDBRANCH  23  24
ENDBRANCH  21  23
ENDBRANCH  20  21
ENDBRANCH   2  20
TORSDOF 5
ENDMDL
MODEL 6
REMARK VINA RESULT:      -8.6      4.372      8.269
REMARK  Name = 5289418
REMARK  5 active torsions:
REMARK  status: ('A' for Active; 'I' for Inactive)
REMARK    1  A    between atoms: C_2  and  C_20
REMARK    2  A    between atoms: C_3  and  C_11
REMARK    3  A    between atoms: C_20  and  C_21
REMARK    4  A    between atoms: C_21  and  C_23
REMARK    5  A    between atoms: C_23  and  O_24
REMARK                            x       y       z     vdW  Elec       q    Type
REMARK                         _______ _______ _______ _____ _____    ______ ____
ROOT
ATOM      1  N   UNL     1      34.853 -15.418 -22.677  0.00  0.00    -0.312 N 
ATOM      2  C   UNL     1      34.097 -15.911 -24.706  0.00  0.00    -0.011 C 
ATOM      3  C   UNL     1      34.319 -14.912 -23.818  0.00  0.00    +0.044 C 
ATOM      4  C   UNL     1      34.518 -17.110 -24.078  0.00  0.00    -0.010 C 
ATOM      5  C   UNL     1      34.981 -16.774 -22.824  0.00  0.00    +0.057 C 
ATOM      6  C   UNL     1      34.475 -18.470 -24.649  0.00  0.00    +0.032 C 
ATOM      7  H   UNL     1      35.105 -14.899 -21.880  0.00  0.00    +0.152 HD
ENDROOT
BRANCH   3  11
ATOM      8  O   UNL     1      32.192 -14.719 -21.952  0.00  0.00    -0.270 OA
ATOM      9  N   UNL     1      31.471 -12.488 -21.670  0.00  0.00    -0.280 N 
ATOM     10  C   UNL     1      33.186 -12.843 -23.143  0.00  0.00    +0.056 C 
ATOM     11  C   UNL     1      34.106 -13.494 -23.858  0.00  0.00    +0.019 C 
ATOM     12  C   UNL     1      32.898 -11.414 -23.118  0.00  0.00    +0.018 C 
ATOM     13  C   UNL     1      31.848 -11.253 -22.208  0.00  0.00    +0.051 C 
ATOM     14  C   UNL     1      32.247 -13.528 -22.192  0.00  0.00    +0.250 C 
ATOM     15  C   UNL     1      33.435 -10.323 -23.776  0.00  0.00    +0.001 C 
ATOM     16  C   UNL     1      31.301 -10.018 -21.921  0.00  0.00    +0.015 C 
ATOM     17  C   UNL     1      32.895  -9.062 -23.499  0.00  0.00    +0.000 C 
ATOM     18  C   UNL     1      31.839  -8.911 -22.581  0.00  0.00    +0.001 C 
ATOM     19  H   UNL     1      30.752 -12.610 -21.009  0.00  0.00    +0.155 HD
ENDBRANCH   3  11
BRANCH   2  20
ATOM     20  C   UNL     1      33.527 -15.791 -26.065  0.00  0.00    +0.039 C 
BRANCH  20  21
ATOM     21  C   UNL     1      32.611 -14.568 -26.268  0.00  0.00    +0.114 C 
BRANCH  21  23
ATOM     22  O   UNL     1      34.190 -13.609 -27.859  0.00  0.00    -0.250 OA
ATOM     23  C   UNL     1      33.059 -13.663 -27.397  0.00  0.00    +0.314 C 
BRANCH  23  24
ATOM     24  O   UNL     1      32.043 -12.872 -27.832  0.00  0.00    -0.480 OA
ATOM     25  H   UNL     1      31.586 -12.322 -27.227  0.00  0.00    +0.295 HD
ENDBRANCH  23  24
ENDBRANCH  21  23
ENDBRANCH  20  21
ENDBRANCH   2  20
TORSDOF 5
ENDMDL
MODEL 7
REMARK VINA RESULT:      -8.5      5.482      9.984
REMARK  Name = 5289418
REMARK  5 active torsions:
REMARK  status: ('A' for Active; 'I' for Inactive)
REMARK    1  A    between atoms: C_2  and  C_20
REMARK    2  A    between atoms: C_3  and  C_11
REMARK    3  A    between atoms: C_20  and  C_21
REMARK    4  A    between atoms: C_21  and  C_23
REMARK    5  A    between atoms: C_23  and  O_24
REMARK                            x       y       z     vdW  Elec       q    Type
REMARK                         _______ _______ _______ _____ _____    ______ ____
ROOT
ATOM      1  N   UNL     1      35.145 -23.469 -13.232  0.00  0.00    -0.312 N 
ATOM      2  C   UNL     1      36.429 -25.083 -14.057  0.00  0.00    -0.011 C 
ATOM      3  C   UNL     1      35.528 -24.116 -14.362  0.00  0.00    +0.044 C 
ATOM      4  C   UNL     1      36.615 -25.031 -12.652  0.00  0.00    -0.010 C 
ATOM      5  C   UNL     1      35.808 -24.024 -12.169  0.00  0.00    +0.057 C 
ATOM      6  C   UNL     1      37.503 -25.890 -11.846  0.00  0.00    +0.032 C 
ATOM      7  H   UNL     1      34.500 -22.727 -13.185  0.00  0.00    +0.152 HD
ENDROOT
BRANCH   3  11
ATOM      8  O   UNL     1      37.672 -22.549 -15.357  0.00  0.00    -0.270 OA
ATOM      9  N   UNL     1      37.153 -21.577 -17.446  0.00  0.00    -0.280 N 
ATOM     10  C   UNL     1      35.539 -22.881 -16.481  0.00  0.00    +0.056 C 
ATOM     11  C   UNL     1      34.938 -23.674 -15.592  0.00  0.00    +0.019 C 
ATOM     12  C   UNL     1      35.021 -22.383 -17.750  0.00  0.00    +0.018 C 
ATOM     13  C   UNL     1      36.041 -21.596 -18.295  0.00  0.00    +0.051 C 
ATOM     14  C   UNL     1      36.930 -22.346 -16.300  0.00  0.00    +0.250 C 
ATOM     15  C   UNL     1      33.822 -22.546 -18.420  0.00  0.00    +0.001 C 
ATOM     16  C   UNL     1      35.910 -20.952 -19.509  0.00  0.00    +0.015 C 
ATOM     17  C   UNL     1      33.668 -21.901 -19.652  0.00  0.00    +0.000 C 
ATOM     18  C   UNL     1      34.701 -21.112 -20.191  0.00  0.00    +0.001 C 
ATOM     19  H   UNL     1      37.985 -21.085 -17.632  0.00  0.00    +0.155 HD
ENDBRANCH   3  11
BRANCH   2  20
ATOM     20  C   UNL     1      37.094 -26.014 -14.992  0.00  0.00    +0.039 C 
BRANCH  20  21
ATOM     21  C   UNL     1      38.485 -26.495 -14.534  0.00  0.00    +0.114 C 
BRANCH  21  23
ATOM     22  O   UNL     1      39.962 -24.579 -14.230  0.00  0.00    -0.250 OA
ATOM     23  C   UNL     1      39.601 -25.538 -14.898  0.00  0.00    +0.314 C 
BRANCH  23  24
ATOM     24  O   UNL     1      40.153 -25.852 -16.099  0.00  0.00    -0.480 OA
ATOM     25  H   UNL     1      40.557 -25.185 -16.618  0.00  0.00    +0.295 HD
ENDBRANCH  23  24
ENDBRANCH  21  23
ENDBRANCH  20  21
ENDBRANCH   2  20
TORSDOF 5
ENDMDL
MODEL 8
REMARK VINA RESULT:      -8.4      4.999      8.936
REMARK  Name = 5289418
REMARK  5 active torsions:
REMARK  status: ('A' for Active; 'I' for Inactive)
REMARK    1  A    between atoms: C_2  and  C_20
REMARK    2  A    between atoms: C_3  and  C_11
REMARK    3  A    between atoms: C_20  and  C_21
REMARK    4  A    between atoms: C_21  and  C_23
REMARK    5  A    between atoms: C_23  and  O_24
REMARK                            x       y       z     vdW  Elec       q    Type
REMARK                         _______ _______ _______ _____ _____    ______ ____
ROOT
ATOM      1  N   UNL     1      32.627 -13.850 -25.333  0.00  0.00    -0.312 N 
ATOM      2  C   UNL     1      33.885 -14.857 -23.803  0.00  0.00    -0.011 C 
ATOM      3  C   UNL     1      33.105 -13.778 -24.064  0.00  0.00    +0.044 C 
ATOM      4  C   UNL     1      33.889 -15.644 -24.982  0.00  0.00    -0.010 C 
ATOM      5  C   UNL     1      33.103 -14.998 -25.910  0.00  0.00    +0.057 C 
ATOM      6  C   UNL     1      34.599 -16.921 -25.188  0.00  0.00    +0.032 C 
ATOM      7  H   UNL     1      32.038 -13.190 -25.763  0.00  0.00    +0.152 HD
ENDROOT
BRANCH   3  11
ATOM      8  O   UNL     1      34.630 -11.788 -25.388  0.00  0.00    -0.270 OA
ATOM      9  N   UNL     1      34.305  -9.652 -24.433  0.00  0.00    -0.280 N 
ATOM     10  C   UNL     1      33.152 -11.393 -23.494  0.00  0.00    +0.056 C 
ATOM     11  C   UNL     1      32.714 -12.636 -23.290  0.00  0.00    +0.019 C 
ATOM     12  C   UNL     1      32.814 -10.177 -22.763  0.00  0.00    +0.018 C 
ATOM     13  C   UNL     1      33.541  -9.150 -23.374  0.00  0.00    +0.051 C 
ATOM     14  C   UNL     1      34.125 -11.031 -24.580  0.00  0.00    +0.250 C 
ATOM     15  C   UNL     1      31.985  -9.913 -21.688  0.00  0.00    +0.001 C 
ATOM     16  C   UNL     1      33.472  -7.840 -22.945  0.00  0.00    +0.015 C 
ATOM     17  C   UNL     1      31.901  -8.591 -21.238  0.00  0.00    +0.000 C 
ATOM     18  C   UNL     1      32.637  -7.564 -21.860  0.00  0.00    +0.001 C 
ATOM     19  H   UNL     1      34.893  -9.105 -25.002  0.00  0.00    +0.155 HD
ENDBRANCH   3  11
BRANCH   2  20
ATOM     20  C   UNL     1      34.596 -15.163 -22.544  0.00  0.00    +0.039 C 
BRANCH  20  21
ATOM     21  C   UNL     1      33.845 -16.128 -21.605  0.00  0.00    +0.114 C 
BRANCH  21  23
ATOM     22  O   UNL     1      35.560 -17.501 -20.548  0.00  0.00    -0.250 OA
ATOM     23  C   UNL     1      34.612 -17.400 -21.313  0.00  0.00    +0.314 C 
BRANCH  23  24
ATOM     24  O   UNL     1      34.136 -18.444 -22.043  0.00  0.00    -0.480 OA
ATOM     25  H   UNL     1      33.841 -19.221 -21.611  0.00  0.00    +0.295 HD
ENDBRANCH  23  24
ENDBRANCH  21  23
ENDBRANCH  20  21
ENDBRANCH   2  20
TORSDOF 5
ENDMDL
MODEL 9
REMARK VINA RESULT:      -8.4      6.797      9.540
REMARK  Name = 5289418
REMARK  5 active torsions:
REMARK  status: ('A' for Active; 'I' for Inactive)
REMARK    1  A    between atoms: C_2  and  C_20
REMARK    2  A    between atoms: C_3  and  C_11
REMARK    3  A    between atoms: C_20  and  C_21
REMARK    4  A    between atoms: C_21  and  C_23
REMARK    5  A    between atoms: C_23  and  O_24
REMARK                            x       y       z     vdW  Elec       q    Type
REMARK                         _______ _______ _______ _____ _____    ______ ____
ROOT
ATOM      1  N   UNL     1      36.365 -22.373 -15.554  0.00  0.00    -0.312 N 
ATOM      2  C   UNL     1      36.710 -24.440 -14.817  0.00  0.00    -0.011 C 
ATOM      3  C   UNL     1      35.789 -23.456 -14.971  0.00  0.00    +0.044 C 
ATOM      4  C   UNL     1      37.929 -23.935 -15.336  0.00  0.00    -0.010 C 
ATOM      5  C   UNL     1      37.685 -22.656 -15.784  0.00  0.00    +0.057 C 
ATOM      6  C   UNL     1      39.224 -24.640 -15.390  0.00  0.00    +0.032 C 
ATOM      7  H   UNL     1      35.910 -21.528 -15.774  0.00  0.00    +0.152 HD
ENDROOT
BRANCH   3  11
ATOM      8  O   UNL     1      34.733 -23.260 -17.595  0.00  0.00    -0.270 OA
ATOM      9  N   UNL     1      32.379 -23.065 -17.581  0.00  0.00    -0.280 N 
ATOM     10  C   UNL     1      33.416 -23.235 -15.548  0.00  0.00    +0.056 C 
ATOM     11  C   UNL     1      34.396 -23.353 -14.650  0.00  0.00    +0.019 C 
ATOM     12  C   UNL     1      31.980 -23.124 -15.317  0.00  0.00    +0.018 C 
ATOM     13  C   UNL     1      31.398 -23.024 -16.585  0.00  0.00    +0.051 C 
ATOM     14  C   UNL     1      33.657 -23.195 -17.029  0.00  0.00    +0.250 C 
ATOM     15  C   UNL     1      31.197 -23.104 -14.178  0.00  0.00    +0.001 C 
ATOM     16  C   UNL     1      30.034 -22.902 -16.764  0.00  0.00    +0.015 C 
ATOM     17  C   UNL     1      29.813 -22.982 -14.337  0.00  0.00    +0.000 C 
ATOM     18  C   UNL     1      29.237 -22.882 -15.618  0.00  0.00    +0.001 C 
ATOM     19  H   UNL     1      32.193 -23.011 -18.546  0.00  0.00    +0.155 HD
ENDBRANCH   3  11
BRANCH   2  20
ATOM     20  C   UNL     1      36.498 -25.778 -14.226  0.00  0.00    +0.039 C 
BRANCH  20  21
ATOM     21  C   UNL     1      37.040 -25.936 -12.791  0.00  0.00    +0.114 C 
BRANCH  21  23
ATOM     22  O   UNL     1      35.177 -24.932 -11.581  0.00  0.00    -0.250 OA
ATOM     23  C   UNL     1      36.378 -25.008 -11.794  0.00  0.00    +0.314 C 
BRANCH  23  24
ATOM     24  O   UNL     1      37.292 -24.222 -11.166  0.00  0.00    -0.480 OA
ATOM     25  H   UNL     1      37.981 -23.819 -11.658  0.00  0.00    +0.295 HD
ENDBRANCH  23  24
ENDBRANCH  21  23
ENDBRANCH  20  21
ENDBRANCH   2  20
TORSDOF 5
ENDMDL
