MODEL 1
REMARK VINA RESULT:     -11.2      0.000      0.000
REMARK  Name = 20317278
REMARK  2 active torsions:
REMARK  status: ('A' for Active; 'I' for Inactive)
REMARK    1  A    between atoms: C_8  and  C_16
REMARK    2  A    between atoms: C_13  and  N_24
REMARK                            x       y       z     vdW  Elec       q    Type
REMARK                         _______ _______ _______ _____ _____    ______ ____
ROOT
ATOM      1  N   UNL     1      33.882 -15.711 -23.982  0.00  0.00    -0.279 N 
ATOM      2  N   UNL     1      33.420 -13.505 -26.041  0.00  0.00    -0.262 NA
ATOM      3  N   UNL     1      34.386 -16.838 -25.808  0.00  0.00    -0.131 NA
ATOM      4  N   UNL     1      34.927 -17.500 -24.733  0.00  0.00    -0.133 NA
ATOM      5  C   UNL     1      33.328 -14.732 -23.129  0.00  0.00    +0.068 C 
ATOM      6  C   UNL     1      33.016 -13.437 -23.587  0.00  0.00    +0.035 C 
ATOM      7  C   UNL     1      33.741 -15.787 -25.350  0.00  0.00    +0.172 A 
ATOM      8  C   UNL     1      33.467 -12.889 -24.910  0.00  0.00    +0.078 C 
ATOM      9  C   UNL     1      32.887 -14.853 -26.117  0.00  0.00    +0.191 C 
ATOM     10  C   UNL     1      34.597 -16.834 -23.650  0.00  0.00    +0.147 A 
ATOM     11  C   UNL     1      33.050 -15.085 -21.798  0.00  0.00    +0.019 C 
ATOM     12  C   UNL     1      32.348 -12.551 -22.723  0.00  0.00    +0.027 C 
ATOM     13  C   UNL     1      32.045 -12.925 -21.414  0.00  0.00    +0.143 C 
ATOM     14  C   UNL     1      32.410 -14.182 -20.948  0.00  0.00    +0.026 C 
ATOM     15  C   UNL     1      35.105 -17.185 -22.307  0.00  0.00    +0.074 C 
ENDROOT
BRANCH   8  16
ATOM     16  C   UNL     1      34.057 -11.516 -24.938  0.00  0.00    +0.017 C 
ATOM     17  C   UNL     1      33.707 -10.587 -23.959  0.00  0.00    +0.001 C 
ATOM     18  C   UNL     1      34.957 -11.164 -25.944  0.00  0.00    +0.001 C 
ATOM     19  C   UNL     1      34.258  -9.306 -23.985  0.00  0.00    +0.000 C 
ATOM     20  C   UNL     1      35.507  -9.883 -25.970  0.00  0.00    +0.000 C 
ATOM     21  C   UNL     1      35.158  -8.954 -24.991  0.00  0.00    +0.000 C 
ENDBRANCH   8  16
BRANCH  13  24
ATOM     22  O   UNL     1      31.806 -11.866 -19.380  0.00  0.00    -0.126 OA
ATOM     23  O   UNL     1      30.389 -11.379 -20.983  0.00  0.00    -0.126 OA
ATOM     24  N   UNL     1      31.381 -12.013 -20.551  0.00  0.00    +0.058 N 
ENDBRANCH  13  24
TORSDOF 2
ENDMDL
MODEL 2
REMARK VINA RESULT:     -10.7      2.916      6.656
REMARK  Name = 20317278
REMARK  2 active torsions:
REMARK  status: ('A' for Active; 'I' for Inactive)
REMARK    1  A    between atoms: C_8  and  C_16
REMARK    2  A    between atoms: C_13  and  N_24
REMARK                            x       y       z     vdW  Elec       q    Type
REMARK                         _______ _______ _______ _____ _____    ______ ____
ROOT
ATOM      1  N   UNL     1      32.963 -10.031 -23.009  0.00  0.00    -0.279 N 
ATOM      2  N   UNL     1      31.591 -12.279 -21.465  0.00  0.00    -0.262 NA
ATOM      3  N   UNL     1      32.068  -8.835 -21.389  0.00  0.00    -0.131 NA
ATOM      4  N   UNL     1      33.075  -8.097 -21.961  0.00  0.00    -0.133 NA
ATOM      5  C   UNL     1      33.191 -11.088 -23.918  0.00  0.00    +0.068 C 
ATOM      6  C   UNL     1      32.824 -12.415 -23.621  0.00  0.00    +0.035 C 
ATOM      7  C   UNL     1      31.988  -9.976 -22.037  0.00  0.00    +0.172 A 
ATOM      8  C   UNL     1      32.412 -12.882 -22.255  0.00  0.00    +0.078 C 
ATOM      9  C   UNL     1      30.967 -11.034 -21.872  0.00  0.00    +0.191 C 
ATOM     10  C   UNL     1      33.582  -8.809 -22.941  0.00  0.00    +0.147 A 
ATOM     11  C   UNL     1      33.767 -10.787 -25.163  0.00  0.00    +0.019 C 
ATOM     12  C   UNL     1      32.961 -13.398 -24.618  0.00  0.00    +0.027 C 
ATOM     13  C   UNL     1      33.500 -13.080 -25.864  0.00  0.00    +0.143 C 
ATOM     14  C   UNL     1      33.918 -11.781 -26.129  0.00  0.00    +0.026 C 
ATOM     15  C   UNL     1      34.770  -8.383 -23.710  0.00  0.00    +0.074 C 
ENDROOT
BRANCH   8  16
ATOM     16  C   UNL     1      33.018 -14.142 -21.729  0.00  0.00    +0.017 C 
ATOM     17  C   UNL     1      34.383 -14.378 -21.889  0.00  0.00    +0.001 C 
ATOM     18  C   UNL     1      32.219 -15.082 -21.080  0.00  0.00    +0.001 C 
ATOM     19  C   UNL     1      34.950 -15.554 -21.398  0.00  0.00    +0.000 C 
ATOM     20  C   UNL     1      32.785 -16.258 -20.589  0.00  0.00    +0.000 C 
ATOM     21  C   UNL     1      34.151 -16.494 -20.748  0.00  0.00    +0.000 C 
ENDBRANCH   8  16
BRANCH  13  24
ATOM     22  O   UNL     1      33.999 -13.758 -28.011  0.00  0.00    -0.126 OA
ATOM     23  O   UNL     1      33.410 -15.281 -26.545  0.00  0.00    -0.126 OA
ATOM     24  N   UNL     1      33.643 -14.088 -26.854  0.00  0.00    +0.058 N 
ENDBRANCH  13  24
TORSDOF 2
ENDMDL
MODEL 3
REMARK VINA RESULT:      -9.9     10.798     13.811
REMARK  Name = 20317278
REMARK  2 active torsions:
REMARK  status: ('A' for Active; 'I' for Inactive)
REMARK    1  A    between atoms: C_8  and  C_16
REMARK    2  A    between atoms: C_13  and  N_24
REMARK                            x       y       z     vdW  Elec       q    Type
REMARK                         _______ _______ _______ _____ _____    ______ ____
ROOT
ATOM      1  N   UNL     1      35.219 -22.384 -17.978  0.00  0.00    -0.279 N 
ATOM      2  N   UNL     1      37.443 -22.417 -15.887  0.00  0.00    -0.262 NA
ATOM      3  N   UNL     1      36.802 -21.395 -19.149  0.00  0.00    -0.131 NA
ATOM      4  N   UNL     1      35.853 -21.864 -20.023  0.00  0.00    -0.133 NA
ATOM      5  C   UNL     1      34.473 -22.861 -16.877  0.00  0.00    +0.068 C 
ATOM      6  C   UNL     1      35.079 -23.155 -15.641  0.00  0.00    +0.035 C 
ATOM      7  C   UNL     1      36.404 -21.684 -17.929  0.00  0.00    +0.172 A 
ATOM      8  C   UNL     1      36.564 -23.249 -15.440  0.00  0.00    +0.078 C 
ATOM      9  C   UNL     1      37.026 -21.259 -16.656  0.00  0.00    +0.191 C 
ATOM     10  C   UNL     1      34.902 -22.427 -19.312  0.00  0.00    +0.147 A 
ATOM     11  C   UNL     1      33.083 -23.006 -17.023  0.00  0.00    +0.019 C 
ATOM     12  C   UNL     1      34.265 -23.503 -14.548  0.00  0.00    +0.027 C 
ATOM     13  C   UNL     1      32.882 -23.608 -14.696  0.00  0.00    +0.143 C 
ATOM     14  C   UNL     1      32.295 -23.377 -15.934  0.00  0.00    +0.026 C 
ATOM     15  C   UNL     1      33.768 -23.152 -19.922  0.00  0.00    +0.074 C 
ENDROOT
BRANCH   8  16
ATOM     16  C   UNL     1      37.100 -24.420 -14.683  0.00  0.00    +0.017 C 
ATOM     17  C   UNL     1      36.851 -25.716 -15.135  0.00  0.00    +0.001 C 
ATOM     18  C   UNL     1      37.848 -24.219 -13.524  0.00  0.00    +0.001 C 
ATOM     19  C   UNL     1      37.351 -26.810 -14.429  0.00  0.00    +0.000 C 
ATOM     20  C   UNL     1      38.348 -25.312 -12.818  0.00  0.00    +0.000 C 
ATOM     21  C   UNL     1      38.099 -26.608 -13.270  0.00  0.00    +0.000 C 
ENDBRANCH   8  16
BRANCH  13  24
ATOM     22  O   UNL     1      31.788 -25.181 -13.413  0.00  0.00    -0.126 OA
ATOM     23  O   UNL     1      31.673 -23.076 -12.805  0.00  0.00    -0.126 OA
ATOM     24  N   UNL     1      32.075 -23.973 -13.585  0.00  0.00    +0.058 N 
ENDBRANCH  13  24
TORSDOF 2
ENDMDL
MODEL 4
REMARK VINA RESULT:      -9.0     10.762     13.286
REMARK  Name = 20317278
REMARK  2 active torsions:
REMARK  status: ('A' for Active; 'I' for Inactive)
REMARK    1  A    between atoms: C_8  and  C_16
REMARK    2  A    between atoms: C_13  and  N_24
REMARK                            x       y       z     vdW  Elec       q    Type
REMARK                         _______ _______ _______ _____ _____    ______ ____
ROOT
ATOM      1  N   UNL     1      35.990 -21.964 -17.889  0.00  0.00    -0.279 N 
ATOM      2  N   UNL     1      33.211 -23.201 -18.148  0.00  0.00    -0.262 NA
ATOM      3  N   UNL     1      35.454 -21.186 -19.880  0.00  0.00    -0.131 NA
ATOM      4  N   UNL     1      36.478 -20.419 -19.382  0.00  0.00    -0.133 NA
ATOM      5  C   UNL     1      36.008 -22.778 -16.735  0.00  0.00    +0.068 C 
ATOM      6  C   UNL     1      34.878 -23.515 -16.328  0.00  0.00    +0.035 C 
ATOM      7  C   UNL     1      35.186 -22.123 -18.997  0.00  0.00    +0.172 A 
ATOM      8  C   UNL     1      33.503 -23.318 -16.898  0.00  0.00    +0.078 C 
ATOM      9  C   UNL     1      34.257 -23.264 -19.151  0.00  0.00    +0.191 C 
ATOM     10  C   UNL     1      36.806 -20.909 -18.208  0.00  0.00    +0.147 A 
ATOM     11  C   UNL     1      37.203 -22.876 -16.004  0.00  0.00    +0.019 C 
ATOM     12  C   UNL     1      34.999 -24.405 -15.246  0.00  0.00    +0.027 C 
ATOM     13  C   UNL     1      36.202 -24.520 -14.549  0.00  0.00    +0.143 C 
ATOM     14  C   UNL     1      37.295 -23.745 -14.917  0.00  0.00    +0.026 C 
ATOM     15  C   UNL     1      37.794 -20.265 -17.318  0.00  0.00    +0.074 C 
ENDROOT
BRANCH   8  16
ATOM     16  C   UNL     1      32.356 -23.213 -15.946  0.00  0.00    +0.017 C 
ATOM     17  C   UNL     1      31.054 -23.094 -16.434  0.00  0.00    +0.001 C 
ATOM     18  C   UNL     1      32.586 -23.234 -14.571  0.00  0.00    +0.001 C 
ATOM     19  C   UNL     1      29.983 -22.997 -15.546  0.00  0.00    +0.000 C 
ATOM     20  C   UNL     1      31.515 -23.136 -13.683  0.00  0.00    +0.000 C 
ATOM     21  C   UNL     1      30.214 -23.017 -14.171  0.00  0.00    +0.000 C 
ENDBRANCH   8  16
BRANCH  13  24
ATOM     22  O   UNL     1      37.006 -26.446 -13.569  0.00  0.00    -0.126 OA
ATOM     23  O   UNL     1      35.688 -25.147 -12.390  0.00  0.00    -0.126 OA
ATOM     24  N   UNL     1      36.303 -25.414 -13.450  0.00  0.00    +0.058 N 
ENDBRANCH  13  24
TORSDOF 2
ENDMDL
MODEL 5
REMARK VINA RESULT:      -8.7      4.089      6.769
REMARK  Name = 20317278
REMARK  2 active torsions:
REMARK  status: ('A' for Active; 'I' for Inactive)
REMARK    1  A    between atoms: C_8  and  C_16
REMARK    2  A    between atoms: C_13  and  N_24
REMARK                            x       y       z     vdW  Elec       q    Type
REMARK                         _______ _______ _______ _____ _____    ______ ____
ROOT
ATOM      1  N   UNL     1      32.061  -9.745 -21.109  0.00  0.00    -0.279 N 
ATOM      2  N   UNL     1      33.088  -6.907 -21.564  0.00  0.00    -0.262 NA
ATOM      3  N   UNL     1      31.516  -8.870 -19.161  0.00  0.00    -0.131 NA
ATOM      4  N   UNL     1      30.776 -10.012 -19.339  0.00  0.00    -0.133 NA
ATOM      5  C   UNL     1      32.710  -9.947 -22.347  0.00  0.00    +0.068 C 
ATOM      6  C   UNL     1      33.290  -8.882 -23.064  0.00  0.00    +0.035 C 
ATOM      7  C   UNL     1      32.301  -8.731 -20.208  0.00  0.00    +0.172 A 
ATOM      8  C   UNL     1      33.059  -7.434 -22.740  0.00  0.00    +0.078 C 
ATOM      9  C   UNL     1      33.372  -7.729 -20.403  0.00  0.00    +0.191 C 
ATOM     10  C   UNL     1      31.129 -10.539 -20.490  0.00  0.00    +0.147 A 
ATOM     11  C   UNL     1      32.806 -11.256 -22.847  0.00  0.00    +0.019 C 
ATOM     12  C   UNL     1      34.032  -9.166 -24.224  0.00  0.00    +0.027 C 
ATOM     13  C   UNL     1      34.151 -10.475 -24.691  0.00  0.00    +0.143 C 
ATOM     14  C   UNL     1      33.525 -11.515 -24.013  0.00  0.00    +0.026 C 
ATOM     15  C   UNL     1      30.454 -11.718 -21.072  0.00  0.00    +0.074 C 
ENDROOT
BRANCH   8  16
ATOM     16  C   UNL     1      32.732  -6.505 -23.864  0.00  0.00    +0.017 C 
ATOM     17  C   UNL     1      33.681  -6.247 -24.853  0.00  0.00    +0.001 C 
ATOM     18  C   UNL     1      31.479  -5.897 -23.924  0.00  0.00    +0.001 C 
ATOM     19  C   UNL     1      33.377  -5.380 -25.902  0.00  0.00    +0.000 C 
ATOM     20  C   UNL     1      31.174  -5.030 -24.974  0.00  0.00    +0.000 C 
ATOM     21  C   UNL     1      32.124  -4.771 -25.962  0.00  0.00    +0.000 C 
ENDBRANCH   8  16
BRANCH  13  24
ATOM     22  O   UNL     1      34.551 -11.704 -26.601  0.00  0.00    -0.126 OA
ATOM     23  O   UNL     1      35.872 -10.009 -26.154  0.00  0.00    -0.126 OA
ATOM     24  N   UNL     1      34.894 -10.743 -25.872  0.00  0.00    +0.058 N 
ENDBRANCH  13  24
TORSDOF 2
ENDMDL
MODEL 6
REMARK VINA RESULT:      -8.6     12.192     15.001
REMARK  Name = 20317278
REMARK  2 active torsions:
REMARK  status: ('A' for Active; 'I' for Inactive)
REMARK    1  A    between atoms: C_8  and  C_16
REMARK    2  A    between atoms: C_13  and  N_24
REMARK                            x       y       z     vdW  Elec       q    Type
REMARK                         _______ _______ _______ _____ _____    ______ ____
ROOT
ATOM      1  N   UNL     1      34.918 -23.073 -16.101  0.00  0.00    -0.279 N 
ATOM      2  N   UNL     1      37.962 -22.839 -16.085  0.00  0.00    -0.262 NA
ATOM      3  N   UNL     1      35.201 -22.180 -18.095  0.00  0.00    -0.131 NA
ATOM      4  N   UNL     1      33.957 -22.758 -18.058  0.00  0.00    -0.133 NA
ATOM      5  C   UNL     1      35.156 -23.446 -14.760  0.00  0.00    +0.068 C 
ATOM      6  C   UNL     1      36.460 -23.596 -14.251  0.00  0.00    +0.035 C 
ATOM      7  C   UNL     1      35.758 -22.347 -16.915  0.00  0.00    +0.172 A 
ATOM      8  C   UNL     1      37.692 -23.637 -15.109  0.00  0.00    +0.078 C 
ATOM      9  C   UNL     1      37.037 -21.778 -16.437  0.00  0.00    +0.191 C 
ATOM     10  C   UNL     1      33.789 -23.263 -16.857  0.00  0.00    +0.147 A 
ATOM     11  C   UNL     1      34.052 -23.634 -13.911  0.00  0.00    +0.019 C 
ATOM     12  C   UNL     1      36.632 -23.843 -12.877  0.00  0.00    +0.027 C 
ATOM     13  C   UNL     1      35.528 -23.992 -12.037  0.00  0.00    +0.143 C 
ATOM     14  C   UNL     1      34.242 -23.904 -12.556  0.00  0.00    +0.026 C 
ATOM     15  C   UNL     1      32.609 -24.071 -16.485  0.00  0.00    +0.074 C 
ENDROOT
BRANCH   8  16
ATOM     16  C   UNL     1      38.697 -24.711 -14.846  0.00  0.00    +0.017 C 
ATOM     17  C   UNL     1      40.048 -24.387 -14.720  0.00  0.00    +0.001 C 
ATOM     18  C   UNL     1      38.285 -26.038 -14.728  0.00  0.00    +0.001 C 
ATOM     19  C   UNL     1      40.986 -25.389 -14.475  0.00  0.00    +0.000 C 
ATOM     20  C   UNL     1      39.223 -27.040 -14.482  0.00  0.00    +0.000 C 
ATOM     21  C   UNL     1      40.574 -26.716 -14.356  0.00  0.00    +0.000 C 
ENDBRANCH   8  16
BRANCH  13  24
ATOM     22  O   UNL     1      35.061 -25.175 -10.114  0.00  0.00    -0.126 OA
ATOM     23  O   UNL     1      36.541 -23.557 -10.011  0.00  0.00    -0.126 OA
ATOM     24  N   UNL     1      35.719 -24.254 -10.654  0.00  0.00    +0.058 N 
ENDBRANCH  13  24
TORSDOF 2
ENDMDL
MODEL 7
REMARK VINA RESULT:      -8.3     10.848     13.820
REMARK  Name = 20317278
REMARK  2 active torsions:
REMARK  status: ('A' for Active; 'I' for Inactive)
REMARK    1  A    between atoms: C_8  and  C_16
REMARK    2  A    between atoms: C_13  and  N_24
REMARK                            x       y       z     vdW  Elec       q    Type
REMARK                         _______ _______ _______ _____ _____    ______ ____
ROOT
ATOM      1  N   UNL     1      35.456 -24.604 -13.022  0.00  0.00    -0.279 N 
ATOM      2  N   UNL     1      36.355 -24.958 -15.918  0.00  0.00    -0.262 NA
ATOM      3  N   UNL     1      37.310 -25.741 -12.668  0.00  0.00    -0.131 NA
ATOM      4  N   UNL     1      36.963 -25.113 -11.497  0.00  0.00    -0.133 NA
ATOM      5  C   UNL     1      34.313 -24.083 -13.668  0.00  0.00    +0.068 C 
ATOM      6  C   UNL     1      34.257 -23.926 -15.066  0.00  0.00    +0.035 C 
ATOM      7  C   UNL     1      36.392 -25.456 -13.566  0.00  0.00    +0.172 A 
ATOM      8  C   UNL     1      35.452 -24.038 -15.968  0.00  0.00    +0.078 C 
ATOM      9  C   UNL     1      36.265 -26.015 -14.929  0.00  0.00    +0.191 C 
ATOM     10  C   UNL     1      35.843 -24.461 -11.714  0.00  0.00    +0.147 A 
ATOM     11  C   UNL     1      33.196 -23.750 -12.884  0.00  0.00    +0.019 C 
ATOM     12  C   UNL     1      33.047 -23.523 -15.658  0.00  0.00    +0.027 C 
ATOM     13  C   UNL     1      31.932 -23.230 -14.873  0.00  0.00    +0.143 C 
ATOM     14  C   UNL     1      32.012 -23.327 -13.488  0.00  0.00    +0.026 C 
ATOM     15  C   UNL     1      35.229 -23.566 -10.711  0.00  0.00    +0.074 C 
ENDROOT
BRANCH   8  16
ATOM     16  C   UNL     1      35.652 -22.982 -17.006  0.00  0.00    +0.017 C 
ATOM     17  C   UNL     1      34.749 -22.862 -18.062  0.00  0.00    +0.001 C 
ATOM     18  C   UNL     1      36.743 -22.117 -16.920  0.00  0.00    +0.001 C 
ATOM     19  C   UNL     1      34.935 -21.876 -19.030  0.00  0.00    +0.000 C 
ATOM     20  C   UNL     1      36.929 -21.131 -17.888  0.00  0.00    +0.000 C 
ATOM     21  C   UNL     1      36.025 -21.011 -18.944  0.00  0.00    +0.000 C 
ENDBRANCH   8  16
BRANCH  13  24
ATOM     22  O   UNL     1      30.692 -22.656 -16.730  0.00  0.00    -0.126 OA
ATOM     23  O   UNL     1      29.713 -22.611 -14.767  0.00  0.00    -0.126 OA
ATOM     24  N   UNL     1      30.721 -22.812 -15.486  0.00  0.00    +0.058 N 
ENDBRANCH  13  24
TORSDOF 2
ENDMDL
