MODEL 1
REMARK VINA RESULT:      -8.2      0.000      0.000
REMARK  Name = 3781
REMARK  3 active torsions:
REMARK  status: ('A' for Active; 'I' for Inactive)
REMARK    1  A    between atoms: N_2  and  C_15
REMARK    2  A    between atoms: C_15  and  C_16
REMARK    3  A    between atoms: C_16  and  N_18
REMARK                            x       y       z     vdW  Elec       q    Type
REMARK                         _______ _______ _______ _____ _____    ______ ____
ROOT
ATOM      1  S   UNL     1      32.920 -23.046 -17.811  0.00  0.00    -0.083 S 
ATOM      2  N   UNL     1      34.652 -23.289 -15.231  0.00  0.00    -0.274 N 
ATOM      3  N   UNL     1      36.600 -22.318 -16.269  0.00  0.00    -0.228 NA
ATOM      4  C   UNL     1      33.257 -23.468 -15.059  0.00  0.00    +0.059 C 
ATOM      5  C   UNL     1      35.296 -22.713 -16.361  0.00  0.00    +0.141 C 
ATOM      6  C   UNL     1      32.371 -23.370 -16.150  0.00  0.00    +0.043 C 
ATOM      7  C   UNL     1      34.600 -22.536 -17.562  0.00  0.00    +0.061 C 
ATOM      8  C   UNL     1      32.684 -23.728 -13.795  0.00  0.00    +0.015 C 
ATOM      9  C   UNL     1      30.986 -23.548 -15.972  0.00  0.00    +0.008 C 
ATOM     10  C   UNL     1      35.260 -21.954 -18.655  0.00  0.00    +0.011 C 
ATOM     11  C   UNL     1      31.307 -23.900 -13.623  0.00  0.00    +0.001 C 
ATOM     12  C   UNL     1      30.457 -23.813 -14.713  0.00  0.00    +0.001 C 
ATOM     13  C   UNL     1      37.205 -21.759 -17.340  0.00  0.00    +0.100 C 
ATOM     14  C   UNL     1      36.582 -21.554 -18.548  0.00  0.00    +0.021 C 
ENDROOT
BRANCH   2  15
ATOM     15  C   UNL     1      35.533 -23.586 -14.094  0.00  0.00    +0.076 C 
BRANCH  15  16
ATOM     16  C   UNL     1      35.858 -25.083 -14.041  0.00  0.00    -0.038 C 
ATOM     17  C   UNL     1      37.063 -25.443 -14.909  0.00  0.00    -0.021 C 
BRANCH  16  18
ATOM     18  N   UNL     1      36.146 -25.460 -12.656  0.00  0.00    +0.387 N 
ATOM     19  C   UNL     1      35.759 -24.385 -11.744  0.00  0.00    -0.101 C 
ATOM     20  C   UNL     1      37.565 -25.778 -12.499  0.00  0.00    -0.101 C 
ATOM     21  H   UNL     1      35.602 -26.291 -12.425  0.00  0.00    -0.080 HD
ENDBRANCH  16  18
ENDBRANCH  15  16
ENDBRANCH   2  15
TORSDOF 3
ENDMDL
MODEL 2
REMARK VINA RESULT:      -8.0      1.847      5.257
REMARK  Name = 3781
REMARK  3 active torsions:
REMARK  status: ('A' for Active; 'I' for Inactive)
REMARK    1  A    between atoms: N_2  and  C_15
REMARK    2  A    between atoms: C_15  and  C_16
REMARK    3  A    between atoms: C_16  and  N_18
REMARK                            x       y       z     vdW  Elec       q    Type
REMARK                         _______ _______ _______ _____ _____    ______ ____
ROOT
ATOM      1  S   UNL     1      37.288 -22.437 -16.145  0.00  0.00    -0.083 S 
ATOM      2  N   UNL     1      34.348 -23.469 -16.249  0.00  0.00    -0.274 N 
ATOM      3  N   UNL     1      34.313 -24.051 -13.909  0.00  0.00    -0.228 NA
ATOM      4  C   UNL     1      34.777 -22.711 -17.365  0.00  0.00    +0.059 C 
ATOM      5  C   UNL     1      34.988 -23.541 -14.980  0.00  0.00    +0.141 C 
ATOM      6  C   UNL     1      36.081 -22.181 -17.428  0.00  0.00    +0.043 C 
ATOM      7  C   UNL     1      36.300 -23.081 -14.820  0.00  0.00    +0.061 C 
ATOM      8  C   UNL     1      33.923 -22.428 -18.454  0.00  0.00    +0.015 C 
ATOM      9  C   UNL     1      36.500 -21.427 -18.540  0.00  0.00    +0.008 C 
ATOM     10  C   UNL     1      36.899 -23.154 -13.553  0.00  0.00    +0.011 C 
ATOM     11  C   UNL     1      34.344 -21.675 -19.555  0.00  0.00    +0.001 C 
ATOM     12  C   UNL     1      35.635 -21.177 -19.599  0.00  0.00    +0.001 C 
ATOM     13  C   UNL     1      34.919 -24.104 -12.702  0.00  0.00    +0.100 C 
ATOM     14  C   UNL     1      36.203 -23.669 -12.472  0.00  0.00    +0.021 C 
ENDROOT
BRANCH   2  15
ATOM     15  C   UNL     1      33.046 -24.145 -16.330  0.00  0.00    +0.076 C 
BRANCH  15  16
ATOM     16  C   UNL     1      31.982 -23.359 -15.556  0.00  0.00    -0.038 C 
ATOM     17  C   UNL     1      30.878 -22.828 -16.471  0.00  0.00    -0.021 C 
BRANCH  16  18
ATOM     18  N   UNL     1      31.379 -24.235 -14.551  0.00  0.00    +0.387 N 
ATOM     19  C   UNL     1      30.286 -25.008 -15.138  0.00  0.00    -0.101 C 
ATOM     20  C   UNL     1      30.899 -23.451 -13.414  0.00  0.00    -0.101 C 
ATOM     21  H   UNL     1      32.091 -24.885 -14.217  0.00  0.00    -0.080 HD
ENDBRANCH  16  18
ENDBRANCH  15  16
ENDBRANCH   2  15
TORSDOF 3
ENDMDL
MODEL 3
REMARK VINA RESULT:      -7.9     10.677     13.491
REMARK  Name = 3781
REMARK  3 active torsions:
REMARK  status: ('A' for Active; 'I' for Inactive)
REMARK    1  A    between atoms: N_2  and  C_15
REMARK    2  A    between atoms: C_15  and  C_16
REMARK    3  A    between atoms: C_16  and  N_18
REMARK                            x       y       z     vdW  Elec       q    Type
REMARK                         _______ _______ _______ _____ _____    ______ ____
ROOT
ATOM      1  S   UNL     1      33.279 -10.657 -24.266  0.00  0.00    -0.083 S 
ATOM      2  N   UNL     1      32.791 -13.482 -23.042  0.00  0.00    -0.274 N 
ATOM      3  N   UNL     1      31.865 -12.600 -20.998  0.00  0.00    -0.228 NA
ATOM      4  C   UNL     1      33.073 -13.449 -24.429  0.00  0.00    +0.059 C 
ATOM      5  C   UNL     1      32.403 -12.378 -22.233  0.00  0.00    +0.141 C 
ATOM      6  C   UNL     1      33.300 -12.230 -25.097  0.00  0.00    +0.043 C 
ATOM      7  C   UNL     1      32.557 -11.067 -22.698  0.00  0.00    +0.061 C 
ATOM      8  C   UNL     1      33.119 -14.623 -25.214  0.00  0.00    +0.015 C 
ATOM      9  C   UNL     1      33.579 -12.205 -26.477  0.00  0.00    +0.008 C 
ATOM     10  C   UNL     1      32.153 -10.001 -21.882  0.00  0.00    +0.011 C 
ATOM     11  C   UNL     1      33.392 -14.592 -26.585  0.00  0.00    +0.001 C 
ATOM     12  C   UNL     1      33.626 -13.381 -27.217  0.00  0.00    +0.001 C 
ATOM     13  C   UNL     1      31.485 -11.550 -20.237  0.00  0.00    +0.100 C 
ATOM     14  C   UNL     1      31.605 -10.238 -20.632  0.00  0.00    +0.021 C 
ENDROOT
BRANCH   2  15
ATOM     15  C   UNL     1      32.749 -14.791 -22.375  0.00  0.00    +0.076 C 
BRANCH  15  16
ATOM     16  C   UNL     1      34.158 -15.231 -21.962  0.00  0.00    -0.038 C 
ATOM     17  C   UNL     1      34.420 -15.006 -20.473  0.00  0.00    -0.021 C 
BRANCH  16  18
ATOM     18  N   UNL     1      34.319 -16.655 -22.258  0.00  0.00    +0.387 N 
ATOM     19  C   UNL     1      34.943 -17.343 -21.130  0.00  0.00    -0.101 C 
ATOM     20  C   UNL     1      35.113 -16.836 -23.472  0.00  0.00    -0.101 C 
ATOM     21  H   UNL     1      33.396 -17.061 -22.414  0.00  0.00    -0.080 HD
ENDBRANCH  16  18
ENDBRANCH  15  16
ENDBRANCH   2  15
TORSDOF 3
ENDMDL
MODEL 4
REMARK VINA RESULT:      -7.9     12.144     14.515
REMARK  Name = 3781
REMARK  3 active torsions:
REMARK  status: ('A' for Active; 'I' for Inactive)
REMARK    1  A    between atoms: N_2  and  C_15
REMARK    2  A    between atoms: C_15  and  C_16
REMARK    3  A    between atoms: C_16  and  N_18
REMARK                            x       y       z     vdW  Elec       q    Type
REMARK                         _______ _______ _______ _____ _____    ______ ____
ROOT
ATOM      1  S   UNL     1      33.055  -8.372 -22.461  0.00  0.00    -0.083 S 
ATOM      2  N   UNL     1      32.619 -11.437 -22.830  0.00  0.00    -0.274 N 
ATOM      3  N   UNL     1      34.087 -11.566 -24.738  0.00  0.00    -0.228 NA
ATOM      4  C   UNL     1      32.177 -10.892 -21.599  0.00  0.00    +0.059 C 
ATOM      5  C   UNL     1      33.502 -10.818 -23.758  0.00  0.00    +0.141 C 
ATOM      6  C   UNL     1      32.329  -9.522 -21.312  0.00  0.00    +0.043 C 
ATOM      7  C   UNL     1      33.785  -9.450 -23.666  0.00  0.00    +0.061 C 
ATOM      8  C   UNL     1      31.586 -11.690 -20.595  0.00  0.00    +0.015 C 
ATOM      9  C   UNL     1      31.889  -8.988 -20.087  0.00  0.00    +0.008 C 
ATOM     10  C   UNL     1      34.669  -8.872 -24.589  0.00  0.00    +0.011 C 
ATOM     11  C   UNL     1      31.153 -11.155 -19.377  0.00  0.00    +0.001 C 
ATOM     12  C   UNL     1      31.301  -9.802 -19.125  0.00  0.00    +0.001 C 
ATOM     13  C   UNL     1      34.936 -10.978 -25.610  0.00  0.00    +0.100 C 
ATOM     14  C   UNL     1      35.260  -9.642 -25.577  0.00  0.00    +0.021 C 
ENDROOT
BRANCH   2  15
ATOM     15  C   UNL     1      32.264 -12.828 -23.139  0.00  0.00    +0.076 C 
BRANCH  15  16
ATOM     16  C   UNL     1      33.276 -13.795 -22.513  0.00  0.00    -0.038 C 
ATOM     17  C   UNL     1      32.594 -14.905 -21.713  0.00  0.00    -0.021 C 
BRANCH  16  18
ATOM     18  N   UNL     1      34.075 -14.403 -23.576  0.00  0.00    +0.387 N 
ATOM     19  C   UNL     1      33.225 -14.769 -24.708  0.00  0.00    -0.101 C 
ATOM     20  C   UNL     1      34.788 -15.575 -23.072  0.00  0.00    -0.101 C 
ATOM     21  H   UNL     1      34.763 -13.721 -23.897  0.00  0.00    -0.080 HD
ENDBRANCH  16  18
ENDBRANCH  15  16
ENDBRANCH   2  15
TORSDOF 3
ENDMDL
MODEL 5
REMARK VINA RESULT:      -7.7     14.368     17.343
REMARK  Name = 3781
REMARK  3 active torsions:
REMARK  status: ('A' for Active; 'I' for Inactive)
REMARK    1  A    between atoms: N_2  and  C_15
REMARK    2  A    between atoms: C_15  and  C_16
REMARK    3  A    between atoms: C_16  and  N_18
REMARK                            x       y       z     vdW  Elec       q    Type
REMARK                         _______ _______ _______ _____ _____    ______ ____
ROOT
ATOM      1  S   UNL     1      32.248 -11.892 -22.842  0.00  0.00    -0.083 S 
ATOM      2  N   UNL     1      33.044  -8.896 -22.519  0.00  0.00    -0.274 N 
ATOM      3  N   UNL     1      32.058  -8.717 -20.325  0.00  0.00    -0.228 NA
ATOM      4  C   UNL     1      33.677  -9.594 -23.576  0.00  0.00    +0.059 C 
ATOM      5  C   UNL     1      32.346  -9.476 -21.423  0.00  0.00    +0.141 C 
ATOM      6  C   UNL     1      33.407 -10.955 -23.814  0.00  0.00    +0.043 C 
ATOM      7  C   UNL     1      31.964 -10.822 -21.456  0.00  0.00    +0.061 C 
ATOM      8  C   UNL     1      34.621  -8.975 -24.425  0.00  0.00    +0.015 C 
ATOM      9  C   UNL     1      34.041 -11.643 -24.866  0.00  0.00    +0.008 C 
ATOM     10  C   UNL     1      31.287 -11.367 -20.355  0.00  0.00    +0.011 C 
ATOM     11  C   UNL     1      35.251  -9.664 -25.466  0.00  0.00    +0.001 C 
ATOM     12  C   UNL     1      34.958 -10.999 -25.689  0.00  0.00    +0.001 C 
ATOM     13  C   UNL     1      31.407  -9.274 -19.281  0.00  0.00    +0.100 C 
ATOM     14  C   UNL     1      31.004 -10.588 -19.245  0.00  0.00    +0.021 C 
ENDROOT
BRANCH   2  15
ATOM     15  C   UNL     1      33.228  -7.440 -22.441  0.00  0.00    +0.076 C 
BRANCH  15  16
ATOM     16  C   UNL     1      32.276  -6.725 -23.406  0.00  0.00    -0.038 C 
ATOM     17  C   UNL     1      31.011  -7.539 -23.679  0.00  0.00    -0.021 C 
BRANCH  16  18
ATOM     18  N   UNL     1      31.891  -5.437 -22.827  0.00  0.00    +0.387 N 
ATOM     19  C   UNL     1      30.795  -5.612 -21.877  0.00  0.00    -0.101 C 
ATOM     20  C   UNL     1      31.510  -4.498 -23.881  0.00  0.00    -0.101 C 
ATOM     21  H   UNL     1      32.693  -5.051 -22.328  0.00  0.00    -0.080 HD
ENDBRANCH  16  18
ENDBRANCH  15  16
ENDBRANCH   2  15
TORSDOF 3
ENDMDL
MODEL 6
REMARK VINA RESULT:      -7.5      9.486     12.682
REMARK  Name = 3781
REMARK  3 active torsions:
REMARK  status: ('A' for Active; 'I' for Inactive)
REMARK    1  A    between atoms: N_2  and  C_15
REMARK    2  A    between atoms: C_15  and  C_16
REMARK    3  A    between atoms: C_16  and  N_18
REMARK                            x       y       z     vdW  Elec       q    Type
REMARK                         _______ _______ _______ _____ _____    ______ ____
ROOT
ATOM      1  S   UNL     1      33.792 -16.862 -25.531  0.00  0.00    -0.083 S 
ATOM      2  N   UNL     1      34.093 -14.852 -23.166  0.00  0.00    -0.274 N 
ATOM      3  N   UNL     1      35.064 -16.499 -21.696  0.00  0.00    -0.228 NA
ATOM      4  C   UNL     1      33.821 -14.281 -24.433  0.00  0.00    +0.059 C 
ATOM      5  C   UNL     1      34.547 -16.178 -22.918  0.00  0.00    +0.141 C 
ATOM      6  C   UNL     1      33.675 -15.086 -25.579  0.00  0.00    +0.043 C 
ATOM      7  C   UNL     1      34.479 -17.152 -23.921  0.00  0.00    +0.061 C 
ATOM      8  C   UNL     1      33.705 -12.886 -24.618  0.00  0.00    +0.015 C 
ATOM      9  C   UNL     1      33.405 -14.512 -26.835  0.00  0.00    +0.008 C 
ATOM     10  C   UNL     1      34.946 -18.446 -23.649  0.00  0.00    +0.011 C 
ATOM     11  C   UNL     1      33.440 -12.319 -25.869  0.00  0.00    +0.001 C 
ATOM     12  C   UNL     1      33.287 -13.133 -26.978  0.00  0.00    +0.001 C 
ATOM     13  C   UNL     1      35.506 -17.755 -21.468  0.00  0.00    +0.100 C 
ATOM     14  C   UNL     1      35.472 -18.760 -22.407  0.00  0.00    +0.021 C 
ENDROOT
BRANCH   2  15
ATOM     15  C   UNL     1      34.049 -13.977 -21.988  0.00  0.00    +0.076 C 
BRANCH  15  16
ATOM     16  C   UNL     1      32.610 -13.822 -21.485  0.00  0.00    -0.038 C 
ATOM     17  C   UNL     1      32.362 -14.602 -20.194  0.00  0.00    -0.021 C 
BRANCH  16  18
ATOM     18  N   UNL     1      32.341 -12.405 -21.237  0.00  0.00    +0.387 N 
ATOM     19  C   UNL     1      31.849 -12.210 -19.875  0.00  0.00    -0.101 C 
ATOM     20  C   UNL     1      31.376 -11.892 -22.208  0.00  0.00    -0.101 C 
ATOM     21  H   UNL     1      33.212 -11.885 -21.343  0.00  0.00    -0.080 HD
ENDBRANCH  16  18
ENDBRANCH  15  16
ENDBRANCH   2  15
TORSDOF 3
ENDMDL
MODEL 7
REMARK VINA RESULT:      -7.3      1.919      4.448
REMARK  Name = 3781
REMARK  3 active torsions:
REMARK  status: ('A' for Active; 'I' for Inactive)
REMARK    1  A    between atoms: N_2  and  C_15
REMARK    2  A    between atoms: C_15  and  C_16
REMARK    3  A    between atoms: C_16  and  N_18
REMARK                            x       y       z     vdW  Elec       q    Type
REMARK                         _______ _______ _______ _____ _____    ______ ____
ROOT
ATOM      1  S   UNL     1      37.175 -22.006 -16.746  0.00  0.00    -0.083 S 
ATOM      2  N   UNL     1      34.499 -23.537 -16.284  0.00  0.00    -0.274 N 
ATOM      3  N   UNL     1      33.507 -22.718 -18.324  0.00  0.00    -0.228 NA
ATOM      4  C   UNL     1      35.587 -23.932 -15.468  0.00  0.00    +0.059 C 
ATOM      5  C   UNL     1      34.575 -22.762 -17.475  0.00  0.00    +0.141 C 
ATOM      6  C   UNL     1      36.850 -23.321 -15.591  0.00  0.00    +0.043 C 
ATOM      7  C   UNL     1      35.742 -22.055 -17.789  0.00  0.00    +0.061 C 
ATOM      8  C   UNL     1      35.471 -24.964 -14.511  0.00  0.00    +0.015 C 
ATOM      9  C   UNL     1      37.926 -23.719 -14.777  0.00  0.00    +0.008 C 
ATOM     10  C   UNL     1      35.790 -21.310 -18.977  0.00  0.00    +0.011 C 
ATOM     11  C   UNL     1      36.545 -25.359 -13.707  0.00  0.00    +0.001 C 
ATOM     12  C   UNL     1      37.773 -24.733 -13.838  0.00  0.00    +0.001 C 
ATOM     13  C   UNL     1      33.587 -21.992 -19.461  0.00  0.00    +0.100 C 
ATOM     14  C   UNL     1      34.701 -21.276 -19.832  0.00  0.00    +0.021 C 
ENDROOT
BRANCH   2  15
ATOM     15  C   UNL     1      33.169 -24.082 -15.978  0.00  0.00    +0.076 C 
BRANCH  15  16
ATOM     16  C   UNL     1      32.363 -23.090 -15.131  0.00  0.00    -0.038 C 
ATOM     17  C   UNL     1      31.013 -22.754 -15.765  0.00  0.00    -0.021 C 
BRANCH  16  18
ATOM     18  N   UNL     1      32.130 -23.672 -13.809  0.00  0.00    +0.387 N 
ATOM     19  C   UNL     1      32.038 -25.128 -13.901  0.00  0.00    -0.101 C 
ATOM     20  C   UNL     1      30.914 -23.119 -13.215  0.00  0.00    -0.101 C 
ATOM     21  H   UNL     1      32.919 -23.437 -13.206  0.00  0.00    -0.080 HD
ENDBRANCH  16  18
ENDBRANCH  15  16
ENDBRANCH   2  15
TORSDOF 3
ENDMDL
MODEL 8
REMARK VINA RESULT:      -7.2      8.988     11.922
REMARK  Name = 3781
REMARK  3 active torsions:
REMARK  status: ('A' for Active; 'I' for Inactive)
REMARK    1  A    between atoms: N_2  and  C_15
REMARK    2  A    between atoms: C_15  and  C_16
REMARK    3  A    between atoms: C_16  and  N_18
REMARK                            x       y       z     vdW  Elec       q    Type
REMARK                         _______ _______ _______ _____ _____    ______ ____
ROOT
ATOM      1  S   UNL     1      34.567 -17.371 -25.379  0.00  0.00    -0.083 S 
ATOM      2  N   UNL     1      34.166 -15.465 -22.945  0.00  0.00    -0.274 N 
ATOM      3  N   UNL     1      33.234 -13.697 -24.295  0.00  0.00    -0.228 NA
ATOM      4  C   UNL     1      34.434 -16.819 -22.632  0.00  0.00    +0.059 C 
ATOM      5  C   UNL     1      33.755 -14.956 -24.209  0.00  0.00    +0.141 C 
ATOM      6  C   UNL     1      34.623 -17.778 -23.647  0.00  0.00    +0.043 C 
ATOM      7  C   UNL     1      33.870 -15.740 -25.362  0.00  0.00    +0.061 C 
ATOM      8  C   UNL     1      34.504 -17.282 -21.300  0.00  0.00    +0.015 C 
ATOM      9  C   UNL     1      34.888 -19.123 -23.328  0.00  0.00    +0.008 C 
ATOM     10  C   UNL     1      33.445 -15.214 -26.592  0.00  0.00    +0.011 C 
ATOM     11  C   UNL     1      34.765 -18.620 -20.989  0.00  0.00    +0.001 C 
ATOM     12  C   UNL     1      34.960 -19.541 -22.004  0.00  0.00    +0.001 C 
ATOM     13  C   UNL     1      32.833 -13.222 -25.495  0.00  0.00    +0.100 C 
ATOM     14  C   UNL     1      32.915 -13.937 -26.666  0.00  0.00    +0.021 C 
ENDROOT
BRANCH   2  15
ATOM     15  C   UNL     1      34.164 -14.487 -21.849  0.00  0.00    +0.076 C 
BRANCH  15  16
ATOM     16  C   UNL     1      32.732 -14.202 -21.383  0.00  0.00    -0.038 C 
ATOM     17  C   UNL     1      32.407 -14.892 -20.058  0.00  0.00    -0.021 C 
BRANCH  16  18
ATOM     18  N   UNL     1      32.563 -12.758 -21.216  0.00  0.00    +0.387 N 
ATOM     19  C   UNL     1      32.083 -12.454 -19.869  0.00  0.00    -0.101 C 
ATOM     20  C   UNL     1      31.640 -12.232 -22.220  0.00  0.00    -0.101 C 
ATOM     21  H   UNL     1      33.470 -12.308 -21.344  0.00  0.00    -0.080 HD
ENDBRANCH  16  18
ENDBRANCH  15  16
ENDBRANCH   2  15
TORSDOF 3
ENDMDL
MODEL 9
REMARK VINA RESULT:      -7.0      1.766      4.775
REMARK  Name = 3781
REMARK  3 active torsions:
REMARK  status: ('A' for Active; 'I' for Inactive)
REMARK    1  A    between atoms: N_2  and  C_15
REMARK    2  A    between atoms: C_15  and  C_16
REMARK    3  A    between atoms: C_16  and  N_18
REMARK                            x       y       z     vdW  Elec       q    Type
REMARK                         _______ _______ _______ _____ _____    ______ ____
ROOT
ATOM      1  S   UNL     1      33.313 -23.557 -13.055  0.00  0.00    -0.083 S 
ATOM      2  N   UNL     1      33.996 -23.731 -16.092  0.00  0.00    -0.274 N 
ATOM      3  N   UNL     1      36.106 -24.833 -15.706  0.00  0.00    -0.228 NA
ATOM      4  C   UNL     1      32.654 -23.406 -15.777  0.00  0.00    +0.059 C 
ATOM      5  C   UNL     1      34.961 -24.283 -15.204  0.00  0.00    +0.141 C 
ATOM      6  C   UNL     1      32.222 -23.309 -14.440  0.00  0.00    +0.043 C 
ATOM      7  C   UNL     1      34.740 -24.278 -13.822  0.00  0.00    +0.061 C 
ATOM      8  C   UNL     1      31.681 -23.185 -16.777  0.00  0.00    +0.015 C 
ATOM      9  C   UNL     1      30.887 -22.986 -14.135  0.00  0.00    +0.008 C 
ATOM     10  C   UNL     1      35.706 -24.841 -12.974  0.00  0.00    +0.011 C 
ATOM     11  C   UNL     1      30.354 -22.869 -16.468  0.00  0.00    +0.001 C 
ATOM     12  C   UNL     1      29.958 -22.765 -15.145  0.00  0.00    +0.001 C 
ATOM     13  C   UNL     1      37.014 -25.369 -14.861  0.00  0.00    +0.100 C 
ATOM     14  C   UNL     1      36.861 -25.400 -13.494  0.00  0.00    +0.021 C 
ENDROOT
BRANCH   2  15
ATOM     15  C   UNL     1      34.422 -23.633 -17.495  0.00  0.00    +0.076 C 
BRANCH  15  16
ATOM     16  C   UNL     1      34.887 -22.209 -17.819  0.00  0.00    -0.038 C 
ATOM     17  C   UNL     1      36.356 -21.986 -17.462  0.00  0.00    -0.021 C 
BRANCH  16  18
ATOM     18  N   UNL     1      34.707 -21.963 -19.250  0.00  0.00    +0.387 N 
ATOM     19  C   UNL     1      35.796 -21.136 -19.766  0.00  0.00    -0.101 C 
ATOM     20  C   UNL     1      33.416 -21.324 -19.500  0.00  0.00    -0.101 C 
ATOM     21  H   UNL     1      34.723 -22.859 -19.739  0.00  0.00    -0.080 HD
ENDBRANCH  16  18
ENDBRANCH  15  16
ENDBRANCH   2  15
TORSDOF 3
ENDMDL
