MODEL 1
REMARK VINA RESULT:      -9.6      0.000      0.000
REMARK  Name = 26618
REMARK  5 active torsions:
REMARK  status: ('A' for Active; 'I' for Inactive)
REMARK    1  A    between atoms: C_2  and  C_10
REMARK    2  A    between atoms: C_3  and  S_20
REMARK    3  A    between atoms: C_5  and  O_26
REMARK    4  A    between atoms: N_9  and  C_12
REMARK    5  A    between atoms: S_20  and  N_23
REMARK                            x       y       z     vdW  Elec       q    Type
REMARK                         _______ _______ _______ _____ _____    ______ ____
ROOT
ATOM      1 CL   UNL     1      35.289 -19.314 -24.060  0.00  0.00    -0.081 Cl
ATOM      2  C   UNL     1      33.638 -15.121 -24.365  0.00  0.00    +0.089 C 
ATOM      3  C   UNL     1      34.473 -16.930 -23.000  0.00  0.00    +0.133 C 
ATOM      4  C   UNL     1      33.961 -15.638 -23.111  0.00  0.00    +0.028 C 
ATOM      5  C   UNL     1      33.825 -15.898 -25.509  0.00  0.00    +0.139 C 
ATOM      6  C   UNL     1      34.661 -17.707 -24.144  0.00  0.00    +0.079 C 
ATOM      7  C   UNL     1      34.337 -17.191 -25.398  0.00  0.00    +0.049 C 
ENDROOT
BRANCH   2  10
ATOM      8  O   UNL     1      32.241 -13.522 -25.317  0.00  0.00    -0.270 OA
ATOM      9  N   UNL     1      33.606 -12.849 -23.532  0.00  0.00    -0.281 N 
ATOM     10  C   UNL     1      33.103 -13.770 -24.460  0.00  0.00    +0.252 C 
ATOM     11  H   UNL     1      34.289 -13.195 -22.913  0.00  0.00    +0.155 HD
BRANCH   9  12
ATOM     12  C   UNL     1      33.261 -11.485 -23.369  0.00  0.00    +0.042 C 
ATOM     13  C   UNL     1      32.327 -11.131 -22.407  0.00  0.00    -0.009 C 
ATOM     14  C   UNL     1      33.862 -10.530 -24.173  0.00  0.00    -0.009 C 
ATOM     15  C   UNL     1      31.987  -9.788 -22.245  0.00  0.00    -0.003 C 
ATOM     16  C   UNL     1      33.522  -9.187 -24.012  0.00  0.00    -0.003 C 
ATOM     17  C   UNL     1      32.584  -8.816 -23.048  0.00  0.00    -0.001 C 
ATOM     18  C   UNL     1      31.670 -12.149 -21.532  0.00  0.00    +0.032 C 
ATOM     19  C   UNL     1      34.870 -10.895 -25.214  0.00  0.00    +0.032 C 
ENDBRANCH   9  12
ENDBRANCH   2  10
BRANCH   3  20
ATOM     20  S   UNL     1      34.862 -17.526 -21.399  0.00  0.00    +0.058 S 
ATOM     21  O   UNL     1      33.745 -18.331 -20.931  0.00  0.00    -0.153 OA
ATOM     22  O   UNL     1      36.201 -18.092 -21.435  0.00  0.00    -0.153 OA
BRANCH  20  23
ATOM     23  N   UNL     1      34.904 -16.066 -20.515  0.00  0.00    -0.203 NA
ATOM     24  H   UNL     1      34.892 -15.277 -21.161  0.00  0.00    +0.144 HD
ATOM     25  H   UNL     1      35.756 -16.033 -19.954  0.00  0.00    +0.144 HD
ENDBRANCH  20  23
ENDBRANCH   3  20
BRANCH   5  26
ATOM     26  O   UNL     1      33.514 -15.411 -26.744  0.00  0.00    -0.505 OA
ATOM     27  H   UNL     1      32.766 -15.740 -27.203  0.00  0.00    +0.292 HD
ENDBRANCH   5  26
TORSDOF 5
ENDMDL
MODEL 2
REMARK VINA RESULT:      -9.6      0.034      1.795
REMARK  Name = 26618
REMARK  5 active torsions:
REMARK  status: ('A' for Active; 'I' for Inactive)
REMARK    1  A    between atoms: C_2  and  C_10
REMARK    2  A    between atoms: C_3  and  S_20
REMARK    3  A    between atoms: C_5  and  O_26
REMARK    4  A    between atoms: N_9  and  C_12
REMARK    5  A    between atoms: S_20  and  N_23
REMARK                            x       y       z     vdW  Elec       q    Type
REMARK                         _______ _______ _______ _____ _____    ______ ____
ROOT
ATOM      1 CL   UNL     1      35.291 -19.291 -24.084  0.00  0.00    -0.081 Cl
ATOM      2  C   UNL     1      33.622 -15.105 -24.368  0.00  0.00    +0.089 C 
ATOM      3  C   UNL     1      34.469 -16.915 -23.013  0.00  0.00    +0.133 C 
ATOM      4  C   UNL     1      33.951 -15.624 -23.117  0.00  0.00    +0.028 C 
ATOM      5  C   UNL     1      33.808 -15.876 -25.515  0.00  0.00    +0.139 C 
ATOM      6  C   UNL     1      34.657 -17.686 -24.160  0.00  0.00    +0.079 C 
ATOM      7  C   UNL     1      34.327 -17.167 -25.411  0.00  0.00    +0.049 C 
ENDROOT
BRANCH   2  10
ATOM      8  O   UNL     1      32.218 -13.506 -25.312  0.00  0.00    -0.270 OA
ATOM      9  N   UNL     1      33.580 -12.836 -23.524  0.00  0.00    -0.281 N 
ATOM     10  C   UNL     1      33.081 -13.755 -24.456  0.00  0.00    +0.252 C 
ATOM     11  H   UNL     1      34.265 -13.182 -22.906  0.00  0.00    +0.155 HD
BRANCH   9  12
ATOM     12  C   UNL     1      33.229 -11.475 -23.353  0.00  0.00    +0.042 C 
ATOM     13  C   UNL     1      33.819 -10.514 -24.159  0.00  0.00    -0.009 C 
ATOM     14  C   UNL     1      32.300 -11.129 -22.384  0.00  0.00    -0.009 C 
ATOM     15  C   UNL     1      33.473  -9.174 -23.992  0.00  0.00    -0.003 C 
ATOM     16  C   UNL     1      31.954  -9.788 -22.216  0.00  0.00    -0.003 C 
ATOM     17  C   UNL     1      32.540  -8.810 -23.020  0.00  0.00    -0.001 C 
ATOM     18  C   UNL     1      34.821 -10.871 -25.208  0.00  0.00    +0.032 C 
ATOM     19  C   UNL     1      31.655 -12.152 -21.507  0.00  0.00    +0.032 C 
ENDBRANCH   9  12
ENDBRANCH   2  10
BRANCH   3  20
ATOM     20  S   UNL     1      34.865 -17.515 -21.415  0.00  0.00    +0.058 S 
ATOM     21  O   UNL     1      33.756 -18.334 -20.950  0.00  0.00    -0.153 OA
ATOM     22  O   UNL     1      36.210 -18.067 -21.455  0.00  0.00    -0.153 OA
BRANCH  20  23
ATOM     23  N   UNL     1      34.893 -16.059 -20.523  0.00  0.00    -0.203 NA
ATOM     24  H   UNL     1      35.190 -16.252 -19.567  0.00  0.00    +0.144 HD
ATOM     25  H   UNL     1      33.958 -15.650 -20.513  0.00  0.00    +0.144 HD
ENDBRANCH  20  23
ENDBRANCH   3  20
BRANCH   5  26
ATOM     26  O   UNL     1      33.492 -15.386 -26.747  0.00  0.00    -0.505 OA
ATOM     27  H   UNL     1      34.016 -14.711 -27.132  0.00  0.00    +0.292 HD
ENDBRANCH   5  26
TORSDOF 5
ENDMDL
MODEL 3
REMARK VINA RESULT:      -9.4      8.140     10.814
REMARK  Name = 26618
REMARK  5 active torsions:
REMARK  status: ('A' for Active; 'I' for Inactive)
REMARK    1  A    between atoms: C_2  and  C_10
REMARK    2  A    between atoms: C_3  and  S_20
REMARK    3  A    between atoms: C_5  and  O_26
REMARK    4  A    between atoms: N_9  and  C_12
REMARK    5  A    between atoms: S_20  and  N_23
REMARK                            x       y       z     vdW  Elec       q    Type
REMARK                         _______ _______ _______ _____ _____    ______ ____
ROOT
ATOM      1 CL   UNL     1      30.867 -24.108 -13.530  0.00  0.00    -0.081 Cl
ATOM      2  C   UNL     1      33.002 -23.007 -17.354  0.00  0.00    +0.089 C 
ATOM      3  C   UNL     1      30.954 -23.126 -16.079  0.00  0.00    +0.133 C 
ATOM      4  C   UNL     1      31.628 -22.793 -17.255  0.00  0.00    +0.028 C 
ATOM      5  C   UNL     1      33.703 -23.556 -16.280  0.00  0.00    +0.139 C 
ATOM      6  C   UNL     1      31.655 -23.674 -15.005  0.00  0.00    +0.079 C 
ATOM      7  C   UNL     1      33.029 -23.889 -15.105  0.00  0.00    +0.049 C 
ENDROOT
BRANCH   2  10
ATOM      8  O   UNL     1      33.953 -23.547 -19.408  0.00  0.00    -0.270 OA
ATOM      9  N   UNL     1      33.971 -21.292 -18.762  0.00  0.00    -0.281 N 
ATOM     10  C   UNL     1      33.688 -22.653 -18.590  0.00  0.00    +0.252 C 
ATOM     11  H   UNL     1      33.698 -20.702 -18.023  0.00  0.00    +0.155 HD
BRANCH   9  12
ATOM     12  C   UNL     1      34.599 -20.655 -19.860  0.00  0.00    +0.042 C 
ATOM     13  C   UNL     1      35.981 -20.686 -19.964  0.00  0.00    -0.009 C 
ATOM     14  C   UNL     1      33.820 -20.013 -20.809  0.00  0.00    -0.009 C 
ATOM     15  C   UNL     1      36.599 -20.058 -21.045  0.00  0.00    -0.003 C 
ATOM     16  C   UNL     1      34.438 -19.385 -21.891  0.00  0.00    -0.003 C 
ATOM     17  C   UNL     1      35.828 -19.408 -22.009  0.00  0.00    -0.001 C 
ATOM     18  C   UNL     1      36.834 -21.373 -18.949  0.00  0.00    +0.032 C 
ATOM     19  C   UNL     1      32.329 -19.971 -20.711  0.00  0.00    +0.032 C 
ENDBRANCH   9  12
ENDBRANCH   2  10
BRANCH   3  20
ATOM     20  S   UNL     1      29.228 -22.836 -16.011  0.00  0.00    +0.058 S 
ATOM     21  O   UNL     1      28.961 -21.948 -14.890  0.00  0.00    -0.153 OA
ATOM     22  O   UNL     1      28.771 -22.480 -17.345  0.00  0.00    -0.153 OA
BRANCH  20  23
ATOM     23  N   UNL     1      28.655 -24.399 -15.630  0.00  0.00    -0.203 NA
ATOM     24  H   UNL     1      29.211 -24.789 -14.869  0.00  0.00    +0.144 HD
ATOM     25  H   UNL     1      28.736 -24.999 -16.452  0.00  0.00    +0.144 HD
ENDBRANCH  20  23
ENDBRANCH   3  20
BRANCH   5  26
ATOM     26  O   UNL     1      35.046 -23.773 -16.359  0.00  0.00    -0.505 OA
ATOM     27  H   UNL     1      35.594 -23.164 -16.816  0.00  0.00    +0.292 HD
ENDBRANCH   5  26
TORSDOF 5
ENDMDL
MODEL 4
REMARK VINA RESULT:      -9.4      8.083     10.735
REMARK  Name = 26618
REMARK  5 active torsions:
REMARK  status: ('A' for Active; 'I' for Inactive)
REMARK    1  A    between atoms: C_2  and  C_10
REMARK    2  A    between atoms: C_3  and  S_20
REMARK    3  A    between atoms: C_5  and  O_26
REMARK    4  A    between atoms: N_9  and  C_12
REMARK    5  A    between atoms: S_20  and  N_23
REMARK                            x       y       z     vdW  Elec       q    Type
REMARK                         _______ _______ _______ _____ _____    ______ ____
ROOT
ATOM      1 CL   UNL     1      31.058 -24.185 -13.537  0.00  0.00    -0.081 Cl
ATOM      2  C   UNL     1      33.095 -23.016 -17.395  0.00  0.00    +0.089 C 
ATOM      3  C   UNL     1      31.075 -23.186 -16.081  0.00  0.00    +0.133 C 
ATOM      4  C   UNL     1      31.719 -22.831 -17.267  0.00  0.00    +0.028 C 
ATOM      5  C   UNL     1      33.828 -23.557 -16.338  0.00  0.00    +0.139 C 
ATOM      6  C   UNL     1      31.808 -23.726 -15.024  0.00  0.00    +0.079 C 
ATOM      7  C   UNL     1      33.184 -23.912 -15.152  0.00  0.00    +0.049 C 
ENDROOT
BRANCH   2  10
ATOM      8  O   UNL     1      34.010 -23.522 -19.473  0.00  0.00    -0.270 OA
ATOM      9  N   UNL     1      34.007 -21.273 -18.805  0.00  0.00    -0.281 N 
ATOM     10  C   UNL     1      33.748 -22.640 -18.641  0.00  0.00    +0.252 C 
ATOM     11  H   UNL     1      33.741 -20.694 -18.055  0.00  0.00    +0.155 HD
BRANCH   9  12
ATOM     12  C   UNL     1      34.602 -20.616 -19.910  0.00  0.00    +0.042 C 
ATOM     13  C   UNL     1      33.793 -19.970 -20.832  0.00  0.00    -0.009 C 
ATOM     14  C   UNL     1      35.981 -20.631 -20.049  0.00  0.00    -0.009 C 
ATOM     15  C   UNL     1      34.379 -19.323 -21.920  0.00  0.00    -0.003 C 
ATOM     16  C   UNL     1      36.567 -19.984 -21.136  0.00  0.00    -0.003 C 
ATOM     17  C   UNL     1      35.766 -19.329 -22.073  0.00  0.00    -0.001 C 
ATOM     18  C   UNL     1      32.306 -19.945 -20.697  0.00  0.00    +0.032 C 
ATOM     19  C   UNL     1      36.866 -21.323 -19.063  0.00  0.00    +0.032 C 
ENDBRANCH   9  12
ENDBRANCH   2  10
BRANCH   3  20
ATOM     20  S   UNL     1      29.345 -22.932 -15.977  0.00  0.00    +0.058 S 
ATOM     21  O   UNL     1      29.070 -22.167 -14.771  0.00  0.00    -0.153 OA
ATOM     22  O   UNL     1      28.876 -22.449 -17.266  0.00  0.00    -0.153 OA
BRANCH  20  23
ATOM     23  N   UNL     1      28.799 -24.534 -15.756  0.00  0.00    -0.203 NA
ATOM     24  H   UNL     1      29.007 -24.836 -14.804  0.00  0.00    +0.144 HD
ATOM     25  H   UNL     1      29.272 -25.149 -16.419  0.00  0.00    +0.144 HD
ENDBRANCH  20  23
ENDBRANCH   3  20
BRANCH   5  26
ATOM     26  O   UNL     1      35.173 -23.746 -16.444  0.00  0.00    -0.505 OA
ATOM     27  H   UNL     1      35.736 -23.018 -16.623  0.00  0.00    +0.292 HD
ENDBRANCH   5  26
TORSDOF 5
ENDMDL
MODEL 5
REMARK VINA RESULT:      -9.3      3.753      7.781
REMARK  Name = 26618
REMARK  5 active torsions:
REMARK  status: ('A' for Active; 'I' for Inactive)
REMARK    1  A    between atoms: C_2  and  C_10
REMARK    2  A    between atoms: C_3  and  S_20
REMARK    3  A    between atoms: C_5  and  O_26
REMARK    4  A    between atoms: N_9  and  C_12
REMARK    5  A    between atoms: S_20  and  N_23
REMARK                            x       y       z     vdW  Elec       q    Type
REMARK                         _______ _______ _______ _____ _____    ______ ____
ROOT
ATOM      1 CL   UNL     1      33.429 -14.619 -26.397  0.00  0.00    -0.081 Cl
ATOM      2  C   UNL     1      34.563 -16.958 -22.704  0.00  0.00    +0.089 C 
ATOM      3  C   UNL     1      33.637 -14.959 -23.693  0.00  0.00    +0.133 C 
ATOM      4  C   UNL     1      33.994 -15.693 -22.562  0.00  0.00    +0.028 C 
ATOM      5  C   UNL     1      34.777 -17.489 -23.976  0.00  0.00    +0.139 C 
ATOM      6  C   UNL     1      33.850 -15.490 -24.965  0.00  0.00    +0.079 C 
ATOM      7  C   UNL     1      34.420 -16.754 -25.107  0.00  0.00    +0.049 C 
ENDROOT
BRANCH   2  10
ATOM      8  O   UNL     1      35.305 -17.092 -20.502  0.00  0.00    -0.270 OA
ATOM      9  N   UNL     1      34.797 -19.101 -21.601  0.00  0.00    -0.281 N 
ATOM     10  C   UNL     1      34.930 -17.709 -21.511  0.00  0.00    +0.252 C 
ATOM     11  H   UNL     1      34.486 -19.446 -22.470  0.00  0.00    +0.155 HD
BRANCH   9  12
ATOM     12  C   UNL     1      35.051 -20.077 -20.607  0.00  0.00    +0.042 C 
ATOM     13  C   UNL     1      36.360 -20.343 -20.235  0.00  0.00    -0.009 C 
ATOM     14  C   UNL     1      33.987 -20.747 -20.024  0.00  0.00    -0.009 C 
ATOM     15  C   UNL     1      36.611 -21.304 -19.256  0.00  0.00    -0.003 C 
ATOM     16  C   UNL     1      34.238 -21.708 -19.045  0.00  0.00    -0.003 C 
ATOM     17  C   UNL     1      35.550 -21.987 -18.660  0.00  0.00    -0.001 C 
ATOM     18  C   UNL     1      37.517 -19.629 -20.854  0.00  0.00    +0.032 C 
ATOM     19  C   UNL     1      32.571 -20.471 -20.414  0.00  0.00    +0.032 C 
ENDBRANCH   9  12
ENDBRANCH   2  10
BRANCH   3  20
ATOM     20  S   UNL     1      32.927 -13.375 -23.454  0.00  0.00    +0.058 S 
ATOM     21  O   UNL     1      31.800 -13.241 -24.364  0.00  0.00    -0.153 OA
ATOM     22  O   UNL     1      32.737 -13.170 -22.027  0.00  0.00    -0.153 OA
BRANCH  20  23
ATOM     23  N   UNL     1      34.198 -12.370 -23.991  0.00  0.00    -0.203 NA
ATOM     24  H   UNL     1      33.994 -12.038 -24.934  0.00  0.00    +0.144 HD
ATOM     25  H   UNL     1      35.070 -12.900 -24.000  0.00  0.00    +0.144 HD
ENDBRANCH  20  23
ENDBRANCH   3  20
BRANCH   5  26
ATOM     26  O   UNL     1      35.332 -18.723 -24.135  0.00  0.00    -0.505 OA
ATOM     27  H   UNL     1      35.440 -19.288 -23.394  0.00  0.00    +0.292 HD
ENDBRANCH   5  26
TORSDOF 5
ENDMDL
MODEL 6
REMARK VINA RESULT:      -9.3      3.756      7.630
REMARK  Name = 26618
REMARK  5 active torsions:
REMARK  status: ('A' for Active; 'I' for Inactive)
REMARK    1  A    between atoms: C_2  and  C_10
REMARK    2  A    between atoms: C_3  and  S_20
REMARK    3  A    between atoms: C_5  and  O_26
REMARK    4  A    between atoms: N_9  and  C_12
REMARK    5  A    between atoms: S_20  and  N_23
REMARK                            x       y       z     vdW  Elec       q    Type
REMARK                         _______ _______ _______ _____ _____    ______ ____
ROOT
ATOM      1 CL   UNL     1      33.402 -14.614 -26.381  0.00  0.00    -0.081 Cl
ATOM      2  C   UNL     1      34.552 -16.958 -22.696  0.00  0.00    +0.089 C 
ATOM      3  C   UNL     1      33.629 -14.954 -23.679  0.00  0.00    +0.133 C 
ATOM      4  C   UNL     1      33.991 -15.689 -22.550  0.00  0.00    +0.028 C 
ATOM      5  C   UNL     1      34.753 -17.490 -23.970  0.00  0.00    +0.139 C 
ATOM      6  C   UNL     1      33.829 -15.486 -24.953  0.00  0.00    +0.079 C 
ATOM      7  C   UNL     1      34.391 -16.754 -25.098  0.00  0.00    +0.049 C 
ENDROOT
BRANCH   2  10
ATOM      8  O   UNL     1      35.303 -17.094 -20.498  0.00  0.00    -0.270 OA
ATOM      9  N   UNL     1      34.793 -19.102 -21.598  0.00  0.00    -0.281 N 
ATOM     10  C   UNL     1      34.924 -17.710 -21.506  0.00  0.00    +0.252 C 
ATOM     11  H   UNL     1      34.479 -19.445 -22.466  0.00  0.00    +0.155 HD
BRANCH   9  12
ATOM     12  C   UNL     1      35.052 -20.079 -20.606  0.00  0.00    +0.042 C 
ATOM     13  C   UNL     1      33.991 -20.754 -20.024  0.00  0.00    -0.009 C 
ATOM     14  C   UNL     1      36.362 -20.341 -20.236  0.00  0.00    -0.009 C 
ATOM     15  C   UNL     1      34.246 -21.717 -19.047  0.00  0.00    -0.003 C 
ATOM     16  C   UNL     1      36.617 -21.304 -19.259  0.00  0.00    -0.003 C 
ATOM     17  C   UNL     1      35.559 -21.992 -18.664  0.00  0.00    -0.001 C 
ATOM     18  C   UNL     1      32.574 -20.483 -20.412  0.00  0.00    +0.032 C 
ATOM     19  C   UNL     1      37.517 -19.621 -20.854  0.00  0.00    +0.032 C 
ENDBRANCH   9  12
ENDBRANCH   2  10
BRANCH   3  20
ATOM     20  S   UNL     1      32.929 -13.366 -23.435  0.00  0.00    +0.058 S 
ATOM     21  O   UNL     1      31.791 -13.230 -24.329  0.00  0.00    -0.153 OA
ATOM     22  O   UNL     1      32.762 -13.155 -22.006  0.00  0.00    -0.153 OA
BRANCH  20  23
ATOM     23  N   UNL     1      34.197 -12.368 -23.995  0.00  0.00    -0.203 NA
ATOM     24  H   UNL     1      33.956 -11.390 -23.835  0.00  0.00    +0.144 HD
ATOM     25  H   UNL     1      34.337 -12.525 -24.994  0.00  0.00    +0.144 HD
ENDBRANCH  20  23
ENDBRANCH   3  20
BRANCH   5  26
ATOM     26  O   UNL     1      35.301 -18.728 -24.132  0.00  0.00    -0.505 OA
ATOM     27  H   UNL     1      35.955 -19.033 -23.534  0.00  0.00    +0.292 HD
ENDBRANCH   5  26
TORSDOF 5
ENDMDL
MODEL 7
REMARK VINA RESULT:      -9.1      4.680      7.074
REMARK  Name = 26618
REMARK  5 active torsions:
REMARK  status: ('A' for Active; 'I' for Inactive)
REMARK    1  A    between atoms: C_2  and  C_10
REMARK    2  A    between atoms: C_3  and  S_20
REMARK    3  A    between atoms: C_5  and  O_26
REMARK    4  A    between atoms: N_9  and  C_12
REMARK    5  A    between atoms: S_20  and  N_23
REMARK                            x       y       z     vdW  Elec       q    Type
REMARK                         _______ _______ _______ _____ _____    ______ ____
ROOT
ATOM      1 CL   UNL     1      36.792 -22.701 -17.067  0.00  0.00    -0.081 Cl
ATOM      2  C   UNL     1      34.868 -20.301 -20.374  0.00  0.00    +0.089 C 
ATOM      3  C   UNL     1      34.673 -21.952 -18.623  0.00  0.00    +0.133 C 
ATOM      4  C   UNL     1      34.094 -21.205 -19.648  0.00  0.00    +0.028 C 
ATOM      5  C   UNL     1      36.223 -20.145 -20.076  0.00  0.00    +0.139 C 
ATOM      6  C   UNL     1      36.027 -21.796 -18.324  0.00  0.00    +0.079 C 
ATOM      7  C   UNL     1      36.801 -20.893 -19.051  0.00  0.00    +0.049 C 
ENDROOT
BRANCH   2  10
ATOM      8  O   UNL     1      33.044 -19.711 -21.693  0.00  0.00    -0.270 OA
ATOM      9  N   UNL     1      35.075 -18.607 -22.092  0.00  0.00    -0.281 N 
ATOM     10  C   UNL     1      34.246 -19.530 -21.442  0.00  0.00    +0.252 C 
ATOM     11  H   UNL     1      36.009 -18.578 -21.780  0.00  0.00    +0.155 HD
BRANCH   9  12
ATOM     12  C   UNL     1      34.747 -17.711 -23.138  0.00  0.00    +0.042 C 
ATOM     13  C   UNL     1      34.524 -16.375 -22.844  0.00  0.00    -0.009 C 
ATOM     14  C   UNL     1      34.653 -18.187 -24.436  0.00  0.00    -0.009 C 
ATOM     15  C   UNL     1      34.201 -15.492 -23.874  0.00  0.00    -0.003 C 
ATOM     16  C   UNL     1      34.330 -17.304 -25.467  0.00  0.00    -0.003 C 
ATOM     17  C   UNL     1      34.103 -15.957 -25.186  0.00  0.00    -0.001 C 
ATOM     18  C   UNL     1      34.622 -15.847 -21.450  0.00  0.00    +0.032 C 
ATOM     19  C   UNL     1      34.890 -19.625 -24.770  0.00  0.00    +0.032 C 
ENDBRANCH   9  12
ENDBRANCH   2  10
BRANCH   3  20
ATOM     20  S   UNL     1      33.651 -23.073 -17.744  0.00  0.00    +0.058 S 
ATOM     21  O   UNL     1      33.671 -24.348 -18.442  0.00  0.00    -0.153 OA
ATOM     22  O   UNL     1      34.009 -23.009 -16.336  0.00  0.00    -0.153 OA
BRANCH  20  23
ATOM     23  N   UNL     1      32.121 -22.346 -17.958  0.00  0.00    -0.203 NA
ATOM     24  H   UNL     1      32.150 -21.386 -17.613  0.00  0.00    +0.144 HD
ATOM     25  H   UNL     1      31.419 -22.873 -17.437  0.00  0.00    +0.144 HD
ENDBRANCH  20  23
ENDBRANCH   3  20
BRANCH   5  26
ATOM     26  O   UNL     1      36.996 -19.267 -20.776  0.00  0.00    -0.505 OA
ATOM     27  H   UNL     1      37.212 -19.442 -21.671  0.00  0.00    +0.292 HD
ENDBRANCH   5  26
TORSDOF 5
ENDMDL
MODEL 8
REMARK VINA RESULT:      -8.9      7.986     11.557
REMARK  Name = 26618
REMARK  5 active torsions:
REMARK  status: ('A' for Active; 'I' for Inactive)
REMARK    1  A    between atoms: C_2  and  C_10
REMARK    2  A    between atoms: C_3  and  S_20
REMARK    3  A    between atoms: C_5  and  O_26
REMARK    4  A    between atoms: N_9  and  C_12
REMARK    5  A    between atoms: S_20  and  N_23
REMARK                            x       y       z     vdW  Elec       q    Type
REMARK                         _______ _______ _______ _____ _____    ______ ____
ROOT
ATOM      1 CL   UNL     1      37.157 -19.183 -20.836  0.00  0.00    -0.081 Cl
ATOM      2  C   UNL     1      34.624 -22.150 -18.561  0.00  0.00    +0.089 C 
ATOM      3  C   UNL     1      34.795 -20.423 -20.241  0.00  0.00    +0.133 C 
ATOM      4  C   UNL     1      34.026 -21.343 -19.528  0.00  0.00    +0.028 C 
ATOM      5  C   UNL     1      35.991 -22.035 -18.304  0.00  0.00    +0.139 C 
ATOM      6  C   UNL     1      36.162 -20.309 -19.985  0.00  0.00    +0.079 C 
ATOM      7  C   UNL     1      36.760 -21.115 -19.016  0.00  0.00    +0.049 C 
ENDROOT
BRANCH   2  10
ATOM      8  O   UNL     1      33.446 -24.149 -18.391  0.00  0.00    -0.270 OA
ATOM      9  N   UNL     1      33.505 -22.759 -16.503  0.00  0.00    -0.281 N 
ATOM     10  C   UNL     1      33.804 -23.104 -17.827  0.00  0.00    +0.252 C 
ATOM     11  H   UNL     1      33.860 -21.894 -16.194  0.00  0.00    +0.155 HD
BRANCH   9  12
ATOM     12  C   UNL     1      32.758 -23.493 -15.549  0.00  0.00    +0.042 C 
ATOM     13  C   UNL     1      33.426 -24.224 -14.579  0.00  0.00    -0.009 C 
ATOM     14  C   UNL     1      31.373 -23.467 -15.603  0.00  0.00    -0.009 C 
ATOM     15  C   UNL     1      32.690 -24.946 -13.639  0.00  0.00    -0.003 C 
ATOM     16  C   UNL     1      30.637 -24.189 -14.664  0.00  0.00    -0.003 C 
ATOM     17  C   UNL     1      31.296 -24.929 -13.681  0.00  0.00    -0.001 C 
ATOM     18  C   UNL     1      34.917 -24.262 -14.507  0.00  0.00    +0.032 C 
ATOM     19  C   UNL     1      30.638 -22.683 -16.643  0.00  0.00    +0.032 C 
ENDBRANCH   9  12
ENDBRANCH   2  10
BRANCH   3  20
ATOM     20  S   UNL     1      33.991 -19.436 -21.444  0.00  0.00    +0.058 S 
ATOM     21  O   UNL     1      34.034 -18.052 -20.999  0.00  0.00    -0.153 OA
ATOM     22  O   UNL     1      34.513 -19.796 -22.753  0.00  0.00    -0.153 OA
BRANCH  20  23
ATOM     23  N   UNL     1      32.389 -20.012 -21.312  0.00  0.00    -0.203 NA
ATOM     24  H   UNL     1      32.382 -21.026 -21.424  0.00  0.00    +0.144 HD
ATOM     25  H   UNL     1      31.814 -19.586 -22.040  0.00  0.00    +0.144 HD
ENDBRANCH  20  23
ENDBRANCH   3  20
BRANCH   5  26
ATOM     26  O   UNL     1      36.593 -22.815 -17.361  0.00  0.00    -0.505 OA
ATOM     27  H   UNL     1      37.491 -23.062 -17.462  0.00  0.00    +0.292 HD
ENDBRANCH   5  26
TORSDOF 5
ENDMDL
MODEL 9
REMARK VINA RESULT:      -8.9      7.985     11.535
REMARK  Name = 26618
REMARK  5 active torsions:
REMARK  status: ('A' for Active; 'I' for Inactive)
REMARK    1  A    between atoms: C_2  and  C_10
REMARK    2  A    between atoms: C_3  and  S_20
REMARK    3  A    between atoms: C_5  and  O_26
REMARK    4  A    between atoms: N_9  and  C_12
REMARK    5  A    between atoms: S_20  and  N_23
REMARK                            x       y       z     vdW  Elec       q    Type
REMARK                         _______ _______ _______ _____ _____    ______ ____
ROOT
ATOM      1 CL   UNL     1      37.157 -19.182 -20.838  0.00  0.00    -0.081 Cl
ATOM      2  C   UNL     1      34.625 -22.149 -18.561  0.00  0.00    +0.089 C 
ATOM      3  C   UNL     1      34.795 -20.422 -20.240  0.00  0.00    +0.133 C 
ATOM      4  C   UNL     1      34.026 -21.342 -19.527  0.00  0.00    +0.028 C 
ATOM      5  C   UNL     1      35.992 -22.035 -18.305  0.00  0.00    +0.139 C 
ATOM      6  C   UNL     1      36.162 -20.309 -19.985  0.00  0.00    +0.079 C 
ATOM      7  C   UNL     1      36.760 -21.116 -19.018  0.00  0.00    +0.049 C 
ENDROOT
BRANCH   2  10
ATOM      8  O   UNL     1      33.448 -24.149 -18.391  0.00  0.00    -0.270 OA
ATOM      9  N   UNL     1      33.505 -22.758 -16.503  0.00  0.00    -0.281 N 
ATOM     10  C   UNL     1      33.805 -23.103 -17.827  0.00  0.00    +0.252 C 
ATOM     11  H   UNL     1      33.860 -21.893 -16.195  0.00  0.00    +0.155 HD
BRANCH   9  12
ATOM     12  C   UNL     1      32.758 -23.492 -15.549  0.00  0.00    +0.042 C 
ATOM     13  C   UNL     1      31.373 -23.466 -15.604  0.00  0.00    -0.009 C 
ATOM     14  C   UNL     1      33.426 -24.221 -14.577  0.00  0.00    -0.009 C 
ATOM     15  C   UNL     1      30.638 -24.188 -14.665  0.00  0.00    -0.003 C 
ATOM     16  C   UNL     1      32.690 -24.944 -13.638  0.00  0.00    -0.003 C 
ATOM     17  C   UNL     1      31.296 -24.927 -13.682  0.00  0.00    -0.001 C 
ATOM     18  C   UNL     1      30.640 -22.685 -16.645  0.00  0.00    +0.032 C 
ATOM     19  C   UNL     1      34.918 -24.259 -14.504  0.00  0.00    +0.032 C 
ENDBRANCH   9  12
ENDBRANCH   2  10
BRANCH   3  20
ATOM     20  S   UNL     1      33.990 -19.434 -21.442  0.00  0.00    +0.058 S 
ATOM     21  O   UNL     1      34.035 -18.050 -20.997  0.00  0.00    -0.153 OA
ATOM     22  O   UNL     1      34.510 -19.794 -22.752  0.00  0.00    -0.153 OA
BRANCH  20  23
ATOM     23  N   UNL     1      32.388 -20.009 -21.309  0.00  0.00    -0.203 NA
ATOM     24  H   UNL     1      31.859 -19.738 -22.137  0.00  0.00    +0.144 HD
ATOM     25  H   UNL     1      31.950 -19.605 -20.480  0.00  0.00    +0.144 HD
ENDBRANCH  20  23
ENDBRANCH   3  20
BRANCH   5  26
ATOM     26  O   UNL     1      36.594 -22.816 -17.364  0.00  0.00    -0.505 OA
ATOM     27  H   UNL     1      37.452 -22.599 -17.054  0.00  0.00    +0.292 HD
ENDBRANCH   5  26
TORSDOF 5
ENDMDL
