MODEL 1
REMARK VINA RESULT:      -9.0      0.000      0.000
REMARK  Name = 3380
REMARK  2 active torsions:
REMARK  status: ('A' for Active; 'I' for Inactive)
REMARK    1  A    between atoms: C_6  and  C_15
REMARK    2  A    between atoms: C_11  and  N_23
REMARK                            x       y       z     vdW  Elec       q    Type
REMARK                         _______ _______ _______ _____ _____    ______ ____
ROOT
ATOM      1  O   UNL     1      30.828 -24.596 -12.982  0.00  0.00    -0.272 OA
ATOM      2  N   UNL     1      31.621 -24.169 -15.130  0.00  0.00    -0.255 N 
ATOM      3  N   UNL     1      33.939 -23.892 -13.187  0.00  0.00    -0.260 NA
ATOM      4  C   UNL     1      33.986 -23.498 -15.614  0.00  0.00    +0.033 C 
ATOM      5  C   UNL     1      32.633 -23.622 -15.994  0.00  0.00    +0.055 C 
ATOM      6  C   UNL     1      34.514 -24.048 -14.331  0.00  0.00    +0.080 C 
ATOM      7  C   UNL     1      34.917 -22.896 -16.480  0.00  0.00    +0.027 C 
ATOM      8  C   UNL     1      32.697 -23.149 -13.154  0.00  0.00    +0.210 C 
ATOM      9  C   UNL     1      32.278 -23.199 -17.290  0.00  0.00    +0.017 C 
ATOM     10  C   UNL     1      31.638 -24.053 -13.735  0.00  0.00    +0.254 C 
ATOM     11  C   UNL     1      34.530 -22.457 -17.743  0.00  0.00    +0.143 C 
ATOM     12  C   UNL     1      33.213 -22.620 -18.152  0.00  0.00    +0.025 C 
ATOM     13  C   UNL     1      30.473 -24.831 -15.749  0.00  0.00    +0.120 C 
ENDROOT
BRANCH   6  15
ATOM     14  F   UNL     1      36.871 -23.215 -13.018  0.00  0.00    -0.204 F 
ATOM     15  C   UNL     1      35.774 -24.846 -14.352  0.00  0.00    +0.045 C 
ATOM     16  C   UNL     1      36.899 -24.378 -13.685  0.00  0.00    +0.142 C 
ATOM     17  C   UNL     1      35.808 -26.052 -15.042  0.00  0.00    +0.004 C 
ATOM     18  C   UNL     1      38.076 -25.128 -13.707  0.00  0.00    +0.030 C 
ATOM     19  C   UNL     1      36.983 -26.802 -15.065  0.00  0.00    +0.000 C 
ATOM     20  C   UNL     1      38.118 -26.339 -14.397  0.00  0.00    +0.002 C 
ENDBRANCH   6  15
BRANCH  11  23
ATOM     21  O   UNL     1      35.104 -21.470 -19.745  0.00  0.00    -0.126 OA
ATOM     22  O   UNL     1      36.668 -21.744 -18.229  0.00  0.00    -0.126 OA
ATOM     23  N   UNL     1      35.479 -21.862 -18.614  0.00  0.00    +0.058 N 
ENDBRANCH  11  23
TORSDOF 2
ENDMDL
MODEL 2
REMARK VINA RESULT:      -8.7     11.385     14.339
REMARK  Name = 3380
REMARK  2 active torsions:
REMARK  status: ('A' for Active; 'I' for Inactive)
REMARK    1  A    between atoms: C_6  and  C_15
REMARK    2  A    between atoms: C_11  and  N_23
REMARK                            x       y       z     vdW  Elec       q    Type
REMARK                         _______ _______ _______ _____ _____    ______ ____
ROOT
ATOM      1  O   UNL     1      34.365 -13.252 -27.823  0.00  0.00    -0.272 OA
ATOM      2  N   UNL     1      34.134 -11.875 -25.958  0.00  0.00    -0.255 N 
ATOM      3  N   UNL     1      32.907 -14.575 -25.304  0.00  0.00    -0.260 NA
ATOM      4  C   UNL     1      32.957 -12.583 -23.863  0.00  0.00    +0.033 C 
ATOM      5  C   UNL     1      33.502 -11.586 -24.698  0.00  0.00    +0.055 C 
ATOM      6  C   UNL     1      33.107 -14.041 -24.147  0.00  0.00    +0.080 C 
ATOM      7  C   UNL     1      32.295 -12.232 -22.672  0.00  0.00    +0.027 C 
ATOM      8  C   UNL     1      32.528 -13.700 -26.393  0.00  0.00    +0.210 C 
ATOM      9  C   UNL     1      33.427 -10.251 -24.254  0.00  0.00    +0.017 C 
ATOM     10  C   UNL     1      33.769 -12.940 -26.789  0.00  0.00    +0.254 C 
ATOM     11  C   UNL     1      32.208 -10.900 -22.276  0.00  0.00    +0.143 C 
ATOM     12  C   UNL     1      32.785  -9.912 -23.061  0.00  0.00    +0.025 C 
ATOM     13  C   UNL     1      35.177 -10.964 -26.428  0.00  0.00    +0.120 C 
ENDROOT
BRANCH   6  15
ATOM     14  F   UNL     1      35.383 -15.702 -24.330  0.00  0.00    -0.204 F 
ATOM     15  C   UNL     1      33.532 -14.951 -23.045  0.00  0.00    +0.045 C 
ATOM     16  C   UNL     1      34.663 -15.743 -23.200  0.00  0.00    +0.142 C 
ATOM     17  C   UNL     1      32.788 -14.997 -21.871  0.00  0.00    +0.004 C 
ATOM     18  C   UNL     1      35.056 -16.593 -22.165  0.00  0.00    +0.030 C 
ATOM     19  C   UNL     1      33.181 -15.846 -20.838  0.00  0.00    +0.000 C 
ATOM     20  C   UNL     1      34.316 -16.645 -20.985  0.00  0.00    +0.002 C 
ENDBRANCH   6  15
BRANCH  11  23
ATOM     21  O   UNL     1      30.563 -11.240 -20.696  0.00  0.00    -0.126 OA
ATOM     22  O   UNL     1      31.969  -9.580 -20.401  0.00  0.00    -0.126 OA
ATOM     23  N   UNL     1      31.548 -10.557 -21.067  0.00  0.00    +0.058 N 
ENDBRANCH  11  23
TORSDOF 2
ENDMDL
MODEL 3
REMARK VINA RESULT:      -8.4      2.200      4.731
REMARK  Name = 3380
REMARK  2 active torsions:
REMARK  status: ('A' for Active; 'I' for Inactive)
REMARK    1  A    between atoms: C_6  and  C_15
REMARK    2  A    between atoms: C_11  and  N_23
REMARK                            x       y       z     vdW  Elec       q    Type
REMARK                         _______ _______ _______ _____ _____    ______ ____
ROOT
ATOM      1  O   UNL     1      36.800 -25.629 -12.719  0.00  0.00    -0.272 OA
ATOM      2  N   UNL     1      36.995 -23.800 -14.148  0.00  0.00    -0.255 N 
ATOM      3  N   UNL     1      34.488 -25.338 -14.907  0.00  0.00    -0.260 NA
ATOM      4  C   UNL     1      35.400 -23.346 -16.025  0.00  0.00    +0.033 C 
ATOM      5  C   UNL     1      36.631 -23.135 -15.371  0.00  0.00    +0.055 C 
ATOM      6  C   UNL     1      34.307 -24.175 -15.436  0.00  0.00    +0.080 C 
ATOM      7  C   UNL     1      35.128 -22.715 -17.253  0.00  0.00    +0.027 C 
ATOM      8  C   UNL     1      35.839 -25.859 -14.873  0.00  0.00    +0.210 C 
ATOM      9  C   UNL     1      37.528 -22.216 -15.950  0.00  0.00    +0.017 C 
ATOM     10  C   UNL     1      36.572 -25.089 -13.803  0.00  0.00    +0.254 C 
ATOM     11  C   UNL     1      36.048 -21.836 -17.818  0.00  0.00    +0.143 C 
ATOM     12  C   UNL     1      37.243 -21.578 -17.159  0.00  0.00    +0.025 C 
ATOM     13  C   UNL     1      37.913 -23.113 -13.240  0.00  0.00    +0.120 C 
ENDROOT
BRANCH   6  15
ATOM     14  F   UNL     1      32.929 -23.529 -13.058  0.00  0.00    -0.204 F 
ATOM     15  C   UNL     1      32.916 -23.638 -15.431  0.00  0.00    +0.045 C 
ATOM     16  C   UNL     1      32.295 -23.341 -14.225  0.00  0.00    +0.142 C 
ATOM     17  C   UNL     1      32.255 -23.442 -16.638  0.00  0.00    +0.004 C 
ATOM     18  C   UNL     1      30.993 -22.838 -14.225  0.00  0.00    +0.030 C 
ATOM     19  C   UNL     1      30.954 -22.940 -16.639  0.00  0.00    +0.000 C 
ATOM     20  C   UNL     1      30.322 -22.638 -15.432  0.00  0.00    +0.002 C 
ENDBRANCH   6  15
BRANCH  11  23
ATOM     21  O   UNL     1      34.718 -21.513 -19.672  0.00  0.00    -0.126 OA
ATOM     22  O   UNL     1      36.555 -20.325 -19.485  0.00  0.00    -0.126 OA
ATOM     23  N   UNL     1      35.760 -21.195 -19.050  0.00  0.00    +0.058 N 
ENDBRANCH  11  23
TORSDOF 2
ENDMDL
MODEL 4
REMARK VINA RESULT:      -8.3     11.121     14.282
REMARK  Name = 3380
REMARK  2 active torsions:
REMARK  status: ('A' for Active; 'I' for Inactive)
REMARK    1  A    between atoms: C_6  and  C_15
REMARK    2  A    between atoms: C_11  and  N_23
REMARK                            x       y       z     vdW  Elec       q    Type
REMARK                         _______ _______ _______ _____ _____    ______ ____
ROOT
ATOM      1  O   UNL     1      32.969 -12.679 -27.655  0.00  0.00    -0.272 OA
ATOM      2  N   UNL     1      33.130 -14.314 -26.004  0.00  0.00    -0.255 N 
ATOM      3  N   UNL     1      33.618 -11.607 -24.714  0.00  0.00    -0.260 NA
ATOM      4  C   UNL     1      33.719 -13.809 -23.622  0.00  0.00    +0.033 C 
ATOM      5  C   UNL     1      33.562 -14.715 -24.692  0.00  0.00    +0.055 C 
ATOM      6  C   UNL     1      33.322 -12.373 -23.719  0.00  0.00    +0.080 C 
ATOM      7  C   UNL     1      34.205 -14.252 -22.379  0.00  0.00    +0.027 C 
ATOM      8  C   UNL     1      34.370 -12.186 -25.808  0.00  0.00    +0.210 C 
ATOM      9  C   UNL     1      33.831 -16.075 -24.439  0.00  0.00    +0.017 C 
ATOM     10  C   UNL     1      33.412 -13.066 -26.572  0.00  0.00    +0.254 C 
ATOM     11  C   UNL     1      34.494 -15.597 -22.169  0.00  0.00    +0.143 C 
ATOM     12  C   UNL     1      34.294 -16.510 -23.196  0.00  0.00    +0.025 C 
ATOM     13  C   UNL     1      32.409 -15.291 -26.819  0.00  0.00    +0.120 C 
ENDROOT
BRANCH   6  15
ATOM     14  F   UNL     1      32.975  -9.586 -23.429  0.00  0.00    -0.204 F 
ATOM     15  C   UNL     1      32.516 -11.771 -22.618  0.00  0.00    +0.045 C 
ATOM     16  C   UNL     1      32.386 -10.391 -22.532  0.00  0.00    +0.142 C 
ATOM     17  C   UNL     1      31.905 -12.601 -21.686  0.00  0.00    +0.004 C 
ATOM     18  C   UNL     1      31.631  -9.832 -21.500  0.00  0.00    +0.030 C 
ATOM     19  C   UNL     1      31.150 -12.043 -20.654  0.00  0.00    +0.000 C 
ATOM     20  C   UNL     1      31.014 -10.658 -20.561  0.00  0.00    +0.002 C 
ENDBRANCH   6  15
BRANCH  11  23
ATOM     21  O   UNL     1      35.322 -17.234 -20.772  0.00  0.00    -0.126 OA
ATOM     22  O   UNL     1      35.035 -15.215 -19.960  0.00  0.00    -0.126 OA
ATOM     23  N   UNL     1      34.973 -16.036 -20.907  0.00  0.00    +0.058 N 
ENDBRANCH  11  23
TORSDOF 2
ENDMDL
MODEL 5
REMARK VINA RESULT:      -8.3     10.347     13.393
REMARK  Name = 3380
REMARK  2 active torsions:
REMARK  status: ('A' for Active; 'I' for Inactive)
REMARK    1  A    between atoms: C_6  and  C_15
REMARK    2  A    between atoms: C_11  and  N_23
REMARK                            x       y       z     vdW  Elec       q    Type
REMARK                         _______ _______ _______ _____ _____    ______ ____
ROOT
ATOM      1  O   UNL     1      33.962 -13.434 -28.123  0.00  0.00    -0.272 OA
ATOM      2  N   UNL     1      33.904 -12.715 -25.908  0.00  0.00    -0.255 N 
ATOM      3  N   UNL     1      33.257 -15.682 -25.963  0.00  0.00    -0.260 NA
ATOM      4  C   UNL     1      33.292 -14.209 -23.993  0.00  0.00    +0.033 C 
ATOM      5  C   UNL     1      33.501 -12.927 -24.544  0.00  0.00    +0.055 C 
ATOM      6  C   UNL     1      33.601 -15.465 -24.739  0.00  0.00    +0.080 C 
ATOM      7  C   UNL     1      32.836 -14.350 -22.670  0.00  0.00    +0.027 C 
ATOM      8  C   UNL     1      32.539 -14.633 -26.656  0.00  0.00    +0.210 C 
ATOM      9  C   UNL     1      33.314 -11.816 -23.698  0.00  0.00    +0.017 C 
ATOM     10  C   UNL     1      33.546 -13.555 -26.969  0.00  0.00    +0.254 C 
ATOM     11  C   UNL     1      32.629 -13.232 -21.868  0.00  0.00    +0.143 C 
ATOM     12  C   UNL     1      32.881 -11.966 -22.378  0.00  0.00    +0.025 C 
ATOM     13  C   UNL     1      34.681 -11.514 -26.215  0.00  0.00    +0.120 C 
ENDROOT
BRANCH   6  15
ATOM     14  F   UNL     1      33.584 -18.150 -25.611  0.00  0.00    -0.204 F 
ATOM     15  C   UNL     1      34.371 -16.541 -24.051  0.00  0.00    +0.045 C 
ATOM     16  C   UNL     1      34.319 -17.843 -24.532  0.00  0.00    +0.142 C 
ATOM     17  C   UNL     1      35.134 -16.227 -22.932  0.00  0.00    +0.004 C 
ATOM     18  C   UNL     1      35.041 -18.847 -23.885  0.00  0.00    +0.030 C 
ATOM     19  C   UNL     1      35.857 -17.230 -22.286  0.00  0.00    +0.000 C 
ATOM     20  C   UNL     1      35.810 -18.541 -22.762  0.00  0.00    +0.002 C 
ENDBRANCH   6  15
BRANCH  11  23
ATOM     21  O   UNL     1      32.233 -14.519 -19.997  0.00  0.00    -0.126 OA
ATOM     22  O   UNL     1      31.743 -12.381 -19.916  0.00  0.00    -0.126 OA
ATOM     23  N   UNL     1      32.180 -13.385 -20.530  0.00  0.00    +0.058 N 
ENDBRANCH  11  23
TORSDOF 2
ENDMDL
MODEL 6
REMARK VINA RESULT:      -8.1     11.410     14.367
REMARK  Name = 3380
REMARK  2 active torsions:
REMARK  status: ('A' for Active; 'I' for Inactive)
REMARK    1  A    between atoms: C_6  and  C_15
REMARK    2  A    between atoms: C_11  and  N_23
REMARK                            x       y       z     vdW  Elec       q    Type
REMARK                         _______ _______ _______ _____ _____    ______ ____
ROOT
ATOM      1  O   UNL     1      34.441 -13.110 -27.865  0.00  0.00    -0.272 OA
ATOM      2  N   UNL     1      34.189 -11.775 -25.973  0.00  0.00    -0.255 N 
ATOM      3  N   UNL     1      33.030 -14.516 -25.365  0.00  0.00    -0.260 NA
ATOM      4  C   UNL     1      33.041 -12.551 -23.886  0.00  0.00    +0.033 C 
ATOM      5  C   UNL     1      33.558 -11.525 -24.704  0.00  0.00    +0.055 C 
ATOM      6  C   UNL     1      33.224 -13.999 -24.199  0.00  0.00    +0.080 C 
ATOM      7  C   UNL     1      32.378 -12.239 -22.685  0.00  0.00    +0.027 C 
ATOM      8  C   UNL     1      32.624 -13.629 -26.435  0.00  0.00    +0.210 C 
ATOM      9  C   UNL     1      33.454 -10.201 -24.234  0.00  0.00    +0.017 C 
ATOM     10  C   UNL     1      33.844 -12.832 -26.822  0.00  0.00    +0.254 C 
ATOM     11  C   UNL     1      32.262 -10.918 -22.262  0.00  0.00    +0.143 C 
ATOM     12  C   UNL     1      32.811  -9.901 -23.031  0.00  0.00    +0.025 C 
ATOM     13  C   UNL     1      35.208 -10.831 -26.431  0.00  0.00    +0.120 C 
ENDROOT
BRANCH   6  15
ATOM     14  F   UNL     1      31.768 -14.380 -21.811  0.00  0.00    -0.204 F 
ATOM     15  C   UNL     1      33.677 -14.920 -23.117  0.00  0.00    +0.045 C 
ATOM     16  C   UNL     1      32.913 -15.062 -21.966  0.00  0.00    +0.142 C 
ATOM     17  C   UNL     1      34.863 -15.628 -23.274  0.00  0.00    +0.004 C 
ATOM     18  C   UNL     1      33.340 -15.925 -20.956  0.00  0.00    +0.030 C 
ATOM     19  C   UNL     1      35.290 -16.491 -22.266  0.00  0.00    +0.000 C 
ATOM     20  C   UNL     1      34.528 -16.639 -21.105  0.00  0.00    +0.002 C 
ENDBRANCH   6  15
BRANCH  11  23
ATOM     21  O   UNL     1      32.039  -9.678 -20.332  0.00  0.00    -0.126 OA
ATOM     22  O   UNL     1      30.597 -11.289 -20.710  0.00  0.00    -0.126 OA
ATOM     23  N   UNL     1      31.602 -10.614 -21.044  0.00  0.00    +0.058 N 
ENDBRANCH  11  23
TORSDOF 2
ENDMDL
MODEL 7
REMARK VINA RESULT:      -7.6     14.261     17.337
REMARK  Name = 3380
REMARK  2 active torsions:
REMARK  status: ('A' for Active; 'I' for Inactive)
REMARK    1  A    between atoms: C_6  and  C_15
REMARK    2  A    between atoms: C_11  and  N_23
REMARK                            x       y       z     vdW  Elec       q    Type
REMARK                         _______ _______ _______ _____ _____    ______ ____
ROOT
ATOM      1  O   UNL     1      35.596 -10.434 -26.633  0.00  0.00    -0.272 OA
ATOM      2  N   UNL     1      33.938 -11.320 -25.258  0.00  0.00    -0.255 N 
ATOM      3  N   UNL     1      34.701  -8.582 -24.186  0.00  0.00    -0.260 NA
ATOM      4  C   UNL     1      33.088 -10.160 -23.207  0.00  0.00    +0.033 C 
ATOM      5  C   UNL     1      33.227 -11.313 -24.007  0.00  0.00    +0.055 C 
ATOM      6  C   UNL     1      33.550  -8.811 -23.652  0.00  0.00    +0.080 C 
ATOM      7  C   UNL     1      32.436 -10.230 -21.962  0.00  0.00    +0.027 C 
ATOM      8  C   UNL     1      35.590  -9.709 -24.377  0.00  0.00    +0.210 C 
ATOM      9  C   UNL     1      32.622 -12.500 -23.549  0.00  0.00    +0.017 C 
ATOM     10  C   UNL     1      35.039 -10.503 -25.535  0.00  0.00    +0.254 C 
ATOM     11  C   UNL     1      31.877 -11.426 -21.522  0.00  0.00    +0.143 C 
ATOM     12  C   UNL     1      31.959 -12.557 -22.321  0.00  0.00    +0.025 C 
ATOM     13  C   UNL     1      33.525 -12.285 -26.277  0.00  0.00    +0.120 C 
ENDROOT
BRANCH   6  15
ATOM     14  F   UNL     1      33.523  -7.190 -21.341  0.00  0.00    -0.204 F 
ATOM     15  C   UNL     1      32.632  -7.646 -23.495  0.00  0.00    +0.045 C 
ATOM     16  C   UNL     1      32.670  -6.889 -22.331  0.00  0.00    +0.142 C 
ATOM     17  C   UNL     1      31.747  -7.331 -24.519  0.00  0.00    +0.004 C 
ATOM     18  C   UNL     1      31.810  -5.799 -22.189  0.00  0.00    +0.030 C 
ATOM     19  C   UNL     1      30.887  -6.242 -24.378  0.00  0.00    +0.000 C 
ATOM     20  C   UNL     1      30.918  -5.476 -23.212  0.00  0.00    +0.002 C 
ENDBRANCH   6  15
BRANCH  11  23
ATOM     21  O   UNL     1      30.055 -11.005 -20.174  0.00  0.00    -0.126 OA
ATOM     22  O   UNL     1      31.794 -12.015 -19.293  0.00  0.00    -0.126 OA
ATOM     23  N   UNL     1      31.210 -11.484 -20.270  0.00  0.00    +0.058 N 
ENDBRANCH  11  23
TORSDOF 2
ENDMDL
MODEL 8
REMARK VINA RESULT:      -7.6     13.728     16.401
REMARK  Name = 3380
REMARK  2 active torsions:
REMARK  status: ('A' for Active; 'I' for Inactive)
REMARK    1  A    between atoms: C_6  and  C_15
REMARK    2  A    between atoms: C_11  and  N_23
REMARK                            x       y       z     vdW  Elec       q    Type
REMARK                         _______ _______ _______ _____ _____    ______ ____
ROOT
ATOM      1  O   UNL     1      31.375  -5.913 -22.076  0.00  0.00    -0.272 OA
ATOM      2  N   UNL     1      31.919  -7.926 -21.036  0.00  0.00    -0.255 N 
ATOM      3  N   UNL     1      31.728  -8.421 -24.027  0.00  0.00    -0.260 NA
ATOM      4  C   UNL     1      32.171 -10.089 -22.274  0.00  0.00    +0.033 C 
ATOM      5  C   UNL     1      32.005  -9.361 -21.077  0.00  0.00    +0.055 C 
ATOM      6  C   UNL     1      32.407  -9.427 -23.591  0.00  0.00    +0.080 C 
ATOM      7  C   UNL     1      32.184 -11.496 -22.256  0.00  0.00    +0.027 C 
ATOM      8  C   UNL     1      30.682  -7.896 -23.174  0.00  0.00    +0.210 C 
ATOM      9  C   UNL     1      31.937 -10.092 -19.874  0.00  0.00    +0.017 C 
ATOM     10  C   UNL     1      31.369  -7.146 -22.060  0.00  0.00    +0.254 C 
ATOM     11  C   UNL     1      32.082 -12.191 -21.055  0.00  0.00    +0.143 C 
ATOM     12  C   UNL     1      31.971 -11.488 -19.863  0.00  0.00    +0.025 C 
ATOM     13  C   UNL     1      32.374  -7.245 -19.824  0.00  0.00    +0.120 C 
ENDROOT
BRANCH   6  15
ATOM     14  F   UNL     1      34.940  -8.189 -23.734  0.00  0.00    -0.204 F 
ATOM     15  C   UNL     1      33.504  -9.933 -24.466  0.00  0.00    +0.045 C 
ATOM     16  C   UNL     1      34.728  -9.276 -24.490  0.00  0.00    +0.142 C 
ATOM     17  C   UNL     1      33.288 -11.060 -25.251  0.00  0.00    +0.004 C 
ATOM     18  C   UNL     1      35.751  -9.754 -25.310  0.00  0.00    +0.030 C 
ATOM     19  C   UNL     1      34.310 -11.538 -26.070  0.00  0.00    +0.000 C 
ATOM     20  C   UNL     1      35.543 -10.883 -26.100  0.00  0.00    +0.002 C 
ENDBRANCH   6  15
BRANCH  11  23
ATOM     21  O   UNL     1      31.945 -14.228 -22.126  0.00  0.00    -0.126 OA
ATOM     22  O   UNL     1      32.296 -14.208 -19.959  0.00  0.00    -0.126 OA
ATOM     23  N   UNL     1      32.109 -13.609 -21.047  0.00  0.00    +0.058 N 
ENDBRANCH  11  23
TORSDOF 2
ENDMDL
MODEL 9
REMARK VINA RESULT:      -7.5      2.504      5.663
REMARK  Name = 3380
REMARK  2 active torsions:
REMARK  status: ('A' for Active; 'I' for Inactive)
REMARK    1  A    between atoms: C_6  and  C_15
REMARK    2  A    between atoms: C_11  and  N_23
REMARK                            x       y       z     vdW  Elec       q    Type
REMARK                         _______ _______ _______ _____ _____    ______ ____
ROOT
ATOM      1  O   UNL     1      38.934 -24.575 -15.049  0.00  0.00    -0.272 OA
ATOM      2  N   UNL     1      36.654 -25.011 -14.859  0.00  0.00    -0.255 N 
ATOM      3  N   UNL     1      36.996 -22.269 -16.120  0.00  0.00    -0.260 NA
ATOM      4  C   UNL     1      34.880 -23.370 -15.520  0.00  0.00    +0.033 C 
ATOM      5  C   UNL     1      35.296 -24.537 -14.845  0.00  0.00    +0.055 C 
ATOM      6  C   UNL     1      35.785 -22.597 -16.421  0.00  0.00    +0.080 C 
ATOM      7  C   UNL     1      33.551 -22.922 -15.417  0.00  0.00    +0.027 C 
ATOM      8  C   UNL     1      37.508 -22.694 -14.834  0.00  0.00    +0.210 C 
ATOM      9  C   UNL     1      34.317 -25.267 -14.142  0.00  0.00    +0.017 C 
ATOM     10  C   UNL     1      37.773 -24.175 -14.942  0.00  0.00    +0.254 C 
ATOM     11  C   UNL     1      32.613 -23.647 -14.687  0.00  0.00    +0.143 C 
ATOM     12  C   UNL     1      32.994 -24.826 -14.061  0.00  0.00    +0.025 C 
ATOM     13  C   UNL     1      36.881 -26.449 -14.713  0.00  0.00    +0.120 C 
ENDROOT
BRANCH   6  15
ATOM     14  F   UNL     1      37.296 -20.990 -18.183  0.00  0.00    -0.204 F 
ATOM     15  C   UNL     1      35.285 -22.183 -17.764  0.00  0.00    +0.045 C 
ATOM     16  C   UNL     1      36.080 -21.390 -18.582  0.00  0.00    +0.142 C 
ATOM     17  C   UNL     1      34.025 -22.595 -18.181  0.00  0.00    +0.004 C 
ATOM     18  C   UNL     1      35.608 -21.005 -19.838  0.00  0.00    +0.030 C 
ATOM     19  C   UNL     1      33.553 -22.211 -19.436  0.00  0.00    +0.000 C 
ATOM     20  C   UNL     1      34.345 -21.415 -20.264  0.00  0.00    +0.002 C 
ENDBRANCH   6  15
BRANCH  11  23
ATOM     21  O   UNL     1      30.646 -23.351 -13.523  0.00  0.00    -0.126 OA
ATOM     22  O   UNL     1      30.746 -22.647 -15.599  0.00  0.00    -0.126 OA
ATOM     23  N   UNL     1      31.271 -23.194 -14.599  0.00  0.00    +0.058 N 
ENDBRANCH  11  23
TORSDOF 2
ENDMDL
