MODEL 1
REMARK VINA RESULT:     -10.8      0.000      0.000
REMARK  Name = 449096
REMARK  6 active torsions:
REMARK  status: ('A' for Active; 'I' for Inactive)
REMARK    1  A    between atoms: S_1  and  C_5
REMARK    2  A    between atoms: S_1  and  N_15
REMARK    3  A    between atoms: C_7  and  C_10
REMARK    4  A    between atoms: N_15  and  C_17
REMARK    5  A    between atoms: C_20  and  C_25
REMARK    6  A    between atoms: N_24  and  O_27
REMARK                            x       y       z     vdW  Elec       q    Type
REMARK                         _______ _______ _______ _____ _____    ______ ____
ROOT
ATOM      1  S   UNL     1      34.893 -17.894 -23.282  0.00  0.00    +0.082 S 
ATOM      2  O   UNL     1      34.206 -18.970 -23.973  0.00  0.00    -0.149 OA
ATOM      3  O   UNL     1      36.338 -17.789 -23.359  0.00  0.00    -0.149 OA
ENDROOT
BRANCH   1   5
ATOM      4  S   UNL     1      34.316 -15.040 -23.034  0.00  0.00    -0.065 S 
ATOM      5  C   UNL     1      34.279 -16.390 -24.058  0.00  0.00    +0.155 C 
ATOM      6  C   UNL     1      33.800 -16.146 -25.295  0.00  0.00    +0.027 C 
ATOM      7  C   UNL     1      33.663 -14.061 -24.278  0.00  0.00    +0.048 C 
ATOM      8  C   UNL     1      33.435 -14.776 -25.433  0.00  0.00    +0.010 C 
BRANCH   7  10
ATOM      9  N   UNL     1      32.583 -12.420 -22.990  0.00  0.00    -0.243 NA
ATOM     10  C   UNL     1      33.428 -12.661 -24.014  0.00  0.00    +0.087 C 
ATOM     11  C   UNL     1      34.039 -11.677 -24.771  0.00  0.00    +0.020 C 
ATOM     12  C   UNL     1      33.763 -10.352 -24.453  0.00  0.00    +0.003 C 
ATOM     13  C   UNL     1      32.338 -11.120 -22.711  0.00  0.00    +0.099 C 
ATOM     14  C   UNL     1      32.898 -10.059 -23.406  0.00  0.00    +0.021 C 
ENDBRANCH   7  10
ENDBRANCH   1   5
BRANCH   1  15
ATOM     15  N   UNL     1      34.389 -17.838 -21.616  0.00  0.00    -0.188 N 
ATOM     16  C   UNL     1      34.872 -16.667 -20.823  0.00  0.00    +0.139 C 
BRANCH  15  17
ATOM     17  C   UNL     1      34.319 -19.093 -20.940  0.00  0.00    +0.069 C 
ATOM     18  C   UNL     1      35.491 -19.775 -20.610  0.00  0.00    +0.016 C 
ATOM     19  C   UNL     1      33.079 -19.638 -20.608  0.00  0.00    +0.016 C 
ATOM     20  C   UNL     1      34.181 -21.545 -19.616  0.00  0.00    +0.055 C 
ATOM     21  C   UNL     1      35.422 -21.000 -19.948  0.00  0.00    +0.006 C 
ATOM     22  C   UNL     1      33.010 -20.864 -19.946  0.00  0.00    +0.006 C 
BRANCH  20  25
ATOM     23  O   UNL     1      33.911 -23.877 -19.560  0.00  0.00    -0.268 OA
ATOM     24  N   UNL     1      34.254 -22.808 -17.546  0.00  0.00    -0.193 N 
ATOM     25  C   UNL     1      34.109 -22.824 -18.926  0.00  0.00    +0.268 C 
ATOM     26  H   UNL     1      34.409 -21.970 -17.054  0.00  0.00    +0.183 HD
BRANCH  24  27
ATOM     27  O   UNL     1      34.169 -24.043 -16.888  0.00  0.00    -0.295 OA
ATOM     28  H   UNL     1      33.843 -23.905 -15.984  0.00  0.00    +0.241 HD
ENDBRANCH  24  27
ENDBRANCH  20  25
ENDBRANCH  15  17
ENDBRANCH   1  15
TORSDOF 6
ENDMDL
MODEL 2
REMARK VINA RESULT:     -10.6      2.289      3.384
REMARK  Name = 449096
REMARK  6 active torsions:
REMARK  status: ('A' for Active; 'I' for Inactive)
REMARK    1  A    between atoms: S_1  and  C_5
REMARK    2  A    between atoms: S_1  and  N_15
REMARK    3  A    between atoms: C_7  and  C_10
REMARK    4  A    between atoms: N_15  and  C_17
REMARK    5  A    between atoms: C_20  and  C_25
REMARK    6  A    between atoms: N_24  and  O_27
REMARK                            x       y       z     vdW  Elec       q    Type
REMARK                         _______ _______ _______ _____ _____    ______ ____
ROOT
ATOM      1  S   UNL     1      35.790 -18.832 -21.338  0.00  0.00    +0.082 S 
ATOM      2  O   UNL     1      37.124 -19.321 -21.634  0.00  0.00    -0.149 OA
ATOM      3  O   UNL     1      35.609 -17.744 -20.395  0.00  0.00    -0.149 OA
ENDROOT
BRANCH   1   5
ATOM      4  S   UNL     1      34.820 -16.534 -22.861  0.00  0.00    -0.065 S 
ATOM      5  C   UNL     1      35.183 -18.189 -22.907  0.00  0.00    +0.155 C 
ATOM      6  C   UNL     1      34.968 -18.780 -24.100  0.00  0.00    +0.027 C 
ATOM      7  C   UNL     1      34.347 -16.578 -24.506  0.00  0.00    +0.048 C 
ATOM      8  C   UNL     1      34.475 -17.838 -25.048  0.00  0.00    +0.010 C 
BRANCH   7  10
ATOM      9  N   UNL     1      33.581 -15.487 -26.441  0.00  0.00    -0.243 NA
ATOM     10  C   UNL     1      33.885 -15.361 -25.132  0.00  0.00    +0.087 C 
ATOM     11  C   UNL     1      33.777 -14.184 -24.414  0.00  0.00    +0.020 C 
ATOM     12  C   UNL     1      33.324 -13.055 -25.088  0.00  0.00    +0.003 C 
ATOM     13  C   UNL     1      33.144 -14.369 -27.062  0.00  0.00    +0.099 C 
ATOM     14  C   UNL     1      33.000 -13.140 -26.436  0.00  0.00    +0.021 C 
ENDBRANCH   7  10
ENDBRANCH   1   5
BRANCH   1  15
ATOM     15  N   UNL     1      34.751 -20.161 -20.908  0.00  0.00    -0.188 N 
ATOM     16  C   UNL     1      33.289 -19.954 -21.143  0.00  0.00    +0.139 C 
BRANCH  15  17
ATOM     17  C   UNL     1      35.121 -20.894 -19.741  0.00  0.00    +0.069 C 
ATOM     18  C   UNL     1      34.183 -21.699 -19.094  0.00  0.00    +0.016 C 
ATOM     19  C   UNL     1      36.423 -20.808 -19.248  0.00  0.00    +0.016 C 
ATOM     20  C   UNL     1      35.847 -22.330 -17.462  0.00  0.00    +0.055 C 
ATOM     21  C   UNL     1      34.546 -22.416 -17.955  0.00  0.00    +0.006 C 
ATOM     22  C   UNL     1      36.786 -21.526 -18.108  0.00  0.00    +0.006 C 
BRANCH  20  25
ATOM     23  O   UNL     1      35.600 -24.101 -15.939  0.00  0.00    -0.268 OA
ATOM     24  N   UNL     1      37.294 -22.592 -15.532  0.00  0.00    -0.193 N 
ATOM     25  C   UNL     1      36.226 -23.078 -16.273  0.00  0.00    +0.268 C 
ATOM     26  H   UNL     1      37.783 -21.782 -15.804  0.00  0.00    +0.183 HD
BRANCH  24  27
ATOM     27  O   UNL     1      37.644 -23.310 -14.380  0.00  0.00    -0.295 OA
ATOM     28  H   UNL     1      37.444 -24.250 -14.512  0.00  0.00    +0.241 HD
ENDBRANCH  24  27
ENDBRANCH  20  25
ENDBRANCH  15  17
ENDBRANCH   1  15
TORSDOF 6
ENDMDL
MODEL 3
REMARK VINA RESULT:     -10.4      1.602      2.186
REMARK  Name = 449096
REMARK  6 active torsions:
REMARK  status: ('A' for Active; 'I' for Inactive)
REMARK    1  A    between atoms: S_1  and  C_5
REMARK    2  A    between atoms: S_1  and  N_15
REMARK    3  A    between atoms: C_7  and  C_10
REMARK    4  A    between atoms: N_15  and  C_17
REMARK    5  A    between atoms: C_20  and  C_25
REMARK    6  A    between atoms: N_24  and  O_27
REMARK                            x       y       z     vdW  Elec       q    Type
REMARK                         _______ _______ _______ _____ _____    ______ ____
ROOT
ATOM      1  S   UNL     1      35.922 -18.095 -21.773  0.00  0.00    +0.082 S 
ATOM      2  O   UNL     1      37.240 -18.191 -22.372  0.00  0.00    -0.149 OA
ATOM      3  O   UNL     1      35.788 -17.813 -20.356  0.00  0.00    -0.149 OA
ENDROOT
BRANCH   1   5
ATOM      4  S   UNL     1      34.393 -15.617 -21.530  0.00  0.00    -0.065 S 
ATOM      5  C   UNL     1      35.149 -16.694 -22.597  0.00  0.00    +0.155 C 
ATOM      6  C   UNL     1      35.064 -16.349 -23.898  0.00  0.00    +0.027 C 
ATOM      7  C   UNL     1      33.916 -14.627 -22.842  0.00  0.00    +0.048 C 
ATOM      8  C   UNL     1      34.339 -15.132 -24.052  0.00  0.00    +0.010 C 
BRANCH   7  10
ATOM      9  N   UNL     1      33.391 -12.415 -23.437  0.00  0.00    -0.243 NA
ATOM     10  C   UNL     1      33.160 -13.426 -22.573  0.00  0.00    +0.087 C 
ATOM     11  C   UNL     1      32.280 -13.359 -21.507  0.00  0.00    +0.020 C 
ATOM     12  C   UNL     1      31.589 -12.169 -21.314  0.00  0.00    +0.003 C 
ATOM     13  C   UNL     1      32.700 -11.274 -23.217  0.00  0.00    +0.099 C 
ATOM     14  C   UNL     1      31.796 -11.101 -22.180  0.00  0.00    +0.021 C 
ENDBRANCH   7  10
ENDBRANCH   1   5
BRANCH   1  15
ATOM     15  N   UNL     1      34.978 -19.499 -22.182  0.00  0.00    -0.188 N 
ATOM     16  C   UNL     1      34.000 -19.330 -23.301  0.00  0.00    +0.139 C 
BRANCH  15  17
ATOM     17  C   UNL     1      34.574 -20.324 -21.090  0.00  0.00    +0.069 C 
ATOM     18  C   UNL     1      35.502 -21.159 -20.466  0.00  0.00    +0.016 C 
ATOM     19  C   UNL     1      33.253 -20.295 -20.645  0.00  0.00    +0.016 C 
ATOM     20  C   UNL     1      33.786 -21.935 -18.953  0.00  0.00    +0.055 C 
ATOM     21  C   UNL     1      35.108 -21.964 -19.397  0.00  0.00    +0.006 C 
ATOM     22  C   UNL     1      32.858 -21.101 -19.576  0.00  0.00    +0.006 C 
BRANCH  20  25
ATOM     23  O   UNL     1      34.184 -23.546 -17.292  0.00  0.00    -0.268 OA
ATOM     24  N   UNL     1      32.050 -22.686 -17.434  0.00  0.00    -0.193 N 
ATOM     25  C   UNL     1      33.374 -22.775 -17.839  0.00  0.00    +0.268 C 
ATOM     26  H   UNL     1      31.417 -22.074 -17.873  0.00  0.00    +0.183 HD
BRANCH  24  27
ATOM     27  O   UNL     1      31.658 -23.510 -16.369  0.00  0.00    -0.295 OA
ATOM     28  H   UNL     1      31.844 -24.436 -16.591  0.00  0.00    +0.241 HD
ENDBRANCH  24  27
ENDBRANCH  20  25
ENDBRANCH  15  17
ENDBRANCH   1  15
TORSDOF 6
ENDMDL
MODEL 4
REMARK VINA RESULT:     -10.4      6.496      9.376
REMARK  Name = 449096
REMARK  6 active torsions:
REMARK  status: ('A' for Active; 'I' for Inactive)
REMARK    1  A    between atoms: S_1  and  C_5
REMARK    2  A    between atoms: S_1  and  N_15
REMARK    3  A    between atoms: C_7  and  C_10
REMARK    4  A    between atoms: N_15  and  C_17
REMARK    5  A    between atoms: C_20  and  C_25
REMARK    6  A    between atoms: N_24  and  O_27
REMARK                            x       y       z     vdW  Elec       q    Type
REMARK                         _______ _______ _______ _____ _____    ______ ____
ROOT
ATOM      1  S   UNL     1      35.753 -24.538 -14.941  0.00  0.00    +0.082 S 
ATOM      2  O   UNL     1      35.076 -25.591 -15.675  0.00  0.00    -0.149 OA
ATOM      3  O   UNL     1      37.040 -24.797 -14.323  0.00  0.00    -0.149 OA
ENDROOT
BRANCH   1   5
ATOM      4  S   UNL     1      34.796 -23.026 -17.251  0.00  0.00    -0.065 S 
ATOM      5  C   UNL     1      36.078 -23.263 -16.169  0.00  0.00    +0.155 C 
ATOM      6  C   UNL     1      37.147 -22.469 -16.381  0.00  0.00    +0.027 C 
ATOM      7  C   UNL     1      35.683 -21.806 -18.060  0.00  0.00    +0.048 C 
ATOM      8  C   UNL     1      36.923 -21.607 -17.493  0.00  0.00    +0.010 C 
BRANCH   7  10
ATOM      9  N   UNL     1      35.944 -20.406 -19.928  0.00  0.00    -0.243 NA
ATOM     10  C   UNL     1      35.083 -21.140 -19.192  0.00  0.00    +0.087 C 
ATOM     11  C   UNL     1      33.733 -21.270 -19.465  0.00  0.00    +0.020 C 
ATOM     12  C   UNL     1      33.231 -20.599 -20.574  0.00  0.00    +0.003 C 
ATOM     13  C   UNL     1      35.418 -19.768 -20.998  0.00  0.00    +0.099 C 
ATOM     14  C   UNL     1      34.082 -19.831 -21.360  0.00  0.00    +0.021 C 
ENDBRANCH   7  10
ENDBRANCH   1   5
BRANCH   1  15
ATOM     15  N   UNL     1      34.671 -23.839 -13.769  0.00  0.00    -0.188 N 
ATOM     16  C   UNL     1      35.053 -24.014 -12.335  0.00  0.00    +0.139 C 
BRANCH  15  17
ATOM     17  C   UNL     1      33.280 -23.908 -14.081  0.00  0.00    +0.069 C 
ATOM     18  C   UNL     1      32.679 -22.891 -14.823  0.00  0.00    +0.016 C 
ATOM     19  C   UNL     1      32.520 -24.994 -13.644  0.00  0.00    +0.016 C 
ATOM     20  C   UNL     1      30.561 -24.045 -14.692  0.00  0.00    +0.055 C 
ATOM     21  C   UNL     1      31.320 -22.959 -15.129  0.00  0.00    +0.006 C 
ATOM     22  C   UNL     1      31.161 -25.062 -13.950  0.00  0.00    +0.006 C 
BRANCH  20  25
ATOM     23  O   UNL     1      28.475 -25.123 -14.711  0.00  0.00    -0.268 OA
ATOM     24  N   UNL     1      28.585 -23.028 -15.666  0.00  0.00    -0.193 N 
ATOM     25  C   UNL     1      29.143 -24.116 -15.010  0.00  0.00    +0.268 C 
ATOM     26  H   UNL     1      29.122 -22.236 -15.898  0.00  0.00    +0.183 HD
BRANCH  24  27
ATOM     27  O   UNL     1      27.222 -23.110 -15.981  0.00  0.00    -0.295 OA
ATOM     28  H   UNL     1      26.918 -24.025 -15.867  0.00  0.00    +0.241 HD
ENDBRANCH  24  27
ENDBRANCH  20  25
ENDBRANCH  15  17
ENDBRANCH   1  15
TORSDOF 6
ENDMDL
MODEL 5
REMARK VINA RESULT:     -10.4      3.491      6.195
REMARK  Name = 449096
REMARK  6 active torsions:
REMARK  status: ('A' for Active; 'I' for Inactive)
REMARK    1  A    between atoms: S_1  and  C_5
REMARK    2  A    between atoms: S_1  and  N_15
REMARK    3  A    between atoms: C_7  and  C_10
REMARK    4  A    between atoms: N_15  and  C_17
REMARK    5  A    between atoms: C_20  and  C_25
REMARK    6  A    between atoms: N_24  and  O_27
REMARK                            x       y       z     vdW  Elec       q    Type
REMARK                         _______ _______ _______ _____ _____    ______ ____
ROOT
ATOM      1  S   UNL     1      34.025 -22.386 -19.231  0.00  0.00    +0.082 S 
ATOM      2  O   UNL     1      32.627 -22.062 -19.446  0.00  0.00    -0.149 OA
ATOM      3  O   UNL     1      34.599 -23.567 -19.848  0.00  0.00    -0.149 OA
ENDROOT
BRANCH   1   5
ATOM      4  S   UNL     1      33.928 -19.874 -20.720  0.00  0.00    -0.065 S 
ATOM      5  C   UNL     1      34.928 -21.004 -19.950  0.00  0.00    +0.155 C 
ATOM      6  C   UNL     1      36.243 -20.709 -19.986  0.00  0.00    +0.027 C 
ATOM      7  C   UNL     1      35.293 -18.927 -21.135  0.00  0.00    +0.048 C 
ATOM      8  C   UNL     1      36.468 -19.487 -20.682  0.00  0.00    +0.010 C 
BRANCH   7  10
ATOM      9  N   UNL     1      34.818 -16.627 -21.113  0.00  0.00    -0.243 NA
ATOM     10  C   UNL     1      35.095 -17.704 -21.877  0.00  0.00    +0.087 C 
ATOM     11  C   UNL     1      35.192 -17.681 -23.257  0.00  0.00    +0.020 C 
ATOM     12  C   UNL     1      34.989 -16.464 -23.899  0.00  0.00    +0.003 C 
ATOM     13  C   UNL     1      34.626 -15.462 -21.773  0.00  0.00    +0.099 C 
ATOM     14  C   UNL     1      34.700 -15.329 -23.151  0.00  0.00    +0.021 C 
ENDBRANCH   7  10
ENDBRANCH   1   5
BRANCH   1  15
ATOM     15  N   UNL     1      34.382 -22.383 -17.527  0.00  0.00    -0.188 N 
ATOM     16  C   UNL     1      35.810 -22.618 -17.154  0.00  0.00    +0.139 C 
BRANCH  15  17
ATOM     17  C   UNL     1      33.389 -22.956 -16.677  0.00  0.00    +0.069 C 
ATOM     18  C   UNL     1      33.765 -23.596 -15.496  0.00  0.00    +0.016 C 
ATOM     19  C   UNL     1      32.041 -22.875 -17.027  0.00  0.00    +0.016 C 
ATOM     20  C   UNL     1      31.446 -24.074 -15.015  0.00  0.00    +0.055 C 
ATOM     21  C   UNL     1      32.794 -24.155 -14.665  0.00  0.00    +0.006 C 
ATOM     22  C   UNL     1      31.069 -23.434 -16.196  0.00  0.00    +0.006 C 
BRANCH  20  25
ATOM     23  O   UNL     1      30.578 -24.656 -12.913  0.00  0.00    -0.268 OA
ATOM     24  N   UNL     1      29.323 -25.220 -14.763  0.00  0.00    -0.193 N 
ATOM     25  C   UNL     1      30.433 -24.657 -14.149  0.00  0.00    +0.268 C 
ATOM     26  H   UNL     1      29.218 -25.216 -15.742  0.00  0.00    +0.183 HD
BRANCH  24  27
ATOM     27  O   UNL     1      28.358 -25.792 -13.922  0.00  0.00    -0.295 OA
ATOM     28  H   UNL     1      28.769 -26.489 -13.387  0.00  0.00    +0.241 HD
ENDBRANCH  24  27
ENDBRANCH  20  25
ENDBRANCH  15  17
ENDBRANCH   1  15
TORSDOF 6
ENDMDL
MODEL 6
REMARK VINA RESULT:     -10.2      1.568      1.823
REMARK  Name = 449096
REMARK  6 active torsions:
REMARK  status: ('A' for Active; 'I' for Inactive)
REMARK    1  A    between atoms: S_1  and  C_5
REMARK    2  A    between atoms: S_1  and  N_15
REMARK    3  A    between atoms: C_7  and  C_10
REMARK    4  A    between atoms: N_15  and  C_17
REMARK    5  A    between atoms: C_20  and  C_25
REMARK    6  A    between atoms: N_24  and  O_27
REMARK                            x       y       z     vdW  Elec       q    Type
REMARK                         _______ _______ _______ _____ _____    ______ ____
ROOT
ATOM      1  S   UNL     1      33.947 -16.452 -21.284  0.00  0.00    +0.082 S 
ATOM      2  O   UNL     1      34.913 -15.911 -20.345  0.00  0.00    -0.149 OA
ATOM      3  O   UNL     1      32.579 -16.685 -20.863  0.00  0.00    -0.149 OA
ENDROOT
BRANCH   1   5
ATOM      4  S   UNL     1      33.918 -13.617 -21.997  0.00  0.00    -0.065 S 
ATOM      5  C   UNL     1      33.826 -15.206 -22.579  0.00  0.00    +0.155 C 
ATOM      6  C   UNL     1      33.676 -15.308 -23.915  0.00  0.00    +0.027 C 
ATOM      7  C   UNL     1      33.752 -13.009 -23.588  0.00  0.00    +0.048 C 
ATOM      8  C   UNL     1      33.632 -14.018 -24.518  0.00  0.00    +0.010 C 
BRANCH   7  10
ATOM      9  N   UNL     1      32.768 -10.922 -23.147  0.00  0.00    -0.243 NA
ATOM     10  C   UNL     1      33.754 -11.579 -23.792  0.00  0.00    +0.087 C 
ATOM     11  C   UNL     1      34.707 -10.972 -24.591  0.00  0.00    +0.020 C 
ATOM     12  C   UNL     1      34.642  -9.591 -24.738  0.00  0.00    +0.003 C 
ATOM     13  C   UNL     1      32.737  -9.580 -23.314  0.00  0.00    +0.099 C 
ATOM     14  C   UNL     1      33.642  -8.874 -24.091  0.00  0.00    +0.021 C 
ENDBRANCH   7  10
ENDBRANCH   1   5
BRANCH   1  15
ATOM     15  N   UNL     1      34.584 -17.889 -22.032  0.00  0.00    -0.188 N 
ATOM     16  C   UNL     1      34.347 -18.025 -23.501  0.00  0.00    +0.139 C 
BRANCH  15  17
ATOM     17  C   UNL     1      34.519 -19.083 -21.253  0.00  0.00    +0.069 C 
ATOM     18  C   UNL     1      35.693 -19.697 -20.817  0.00  0.00    +0.016 C 
ATOM     19  C   UNL     1      33.281 -19.635 -20.925  0.00  0.00    +0.016 C 
ATOM     20  C   UNL     1      34.391 -21.415 -19.727  0.00  0.00    +0.055 C 
ATOM     21  C   UNL     1      35.630 -20.863 -20.054  0.00  0.00    +0.006 C 
ATOM     22  C   UNL     1      33.217 -20.801 -20.162  0.00  0.00    +0.006 C 
BRANCH  20  25
ATOM     23  O   UNL     1      33.940 -23.702 -19.440  0.00  0.00    -0.268 OA
ATOM     24  N   UNL     1      34.689 -22.537 -17.597  0.00  0.00    -0.193 N 
ATOM     25  C   UNL     1      34.324 -22.632 -18.932  0.00  0.00    +0.268 C 
ATOM     26  H   UNL     1      34.991 -21.686 -17.204  0.00  0.00    +0.183 HD
BRANCH  24  27
ATOM     27  O   UNL     1      34.608 -23.711 -16.835  0.00  0.00    -0.295 OA
ATOM     28  H   UNL     1      34.911 -23.530 -15.931  0.00  0.00    +0.241 HD
ENDBRANCH  24  27
ENDBRANCH  20  25
ENDBRANCH  15  17
ENDBRANCH   1  15
TORSDOF 6
ENDMDL
MODEL 7
REMARK VINA RESULT:     -10.0      1.728      2.648
REMARK  Name = 449096
REMARK  6 active torsions:
REMARK  status: ('A' for Active; 'I' for Inactive)
REMARK    1  A    between atoms: S_1  and  C_5
REMARK    2  A    between atoms: S_1  and  N_15
REMARK    3  A    between atoms: C_7  and  C_10
REMARK    4  A    between atoms: N_15  and  C_17
REMARK    5  A    between atoms: C_20  and  C_25
REMARK    6  A    between atoms: N_24  and  O_27
REMARK                            x       y       z     vdW  Elec       q    Type
REMARK                         _______ _______ _______ _____ _____    ______ ____
ROOT
ATOM      1  S   UNL     1      35.741 -18.011 -21.682  0.00  0.00    +0.082 S 
ATOM      2  O   UNL     1      36.963 -17.868 -22.451  0.00  0.00    -0.149 OA
ATOM      3  O   UNL     1      35.776 -17.890 -20.236  0.00  0.00    -0.149 OA
ENDROOT
BRANCH   1   5
ATOM      4  S   UNL     1      35.067 -16.107 -23.793  0.00  0.00    -0.065 S 
ATOM      5  C   UNL     1      34.694 -16.655 -22.234  0.00  0.00    +0.155 C 
ATOM      6  C   UNL     1      33.676 -16.002 -21.637  0.00  0.00    +0.027 C 
ATOM      7  C   UNL     1      33.822 -14.936 -23.696  0.00  0.00    +0.048 C 
ATOM      8  C   UNL     1      33.156 -14.988 -22.491  0.00  0.00    +0.010 C 
BRANCH   7  10
ATOM      9  N   UNL     1      33.891 -12.760 -24.580  0.00  0.00    -0.243 NA
ATOM     10  C   UNL     1      33.601 -14.056 -24.820  0.00  0.00    +0.087 C 
ATOM     11  C   UNL     1      33.131 -14.543 -26.027  0.00  0.00    +0.020 C 
ATOM     12  C   UNL     1      32.945 -13.633 -27.062  0.00  0.00    +0.003 C 
ATOM     13  C   UNL     1      33.697 -11.906 -25.610  0.00  0.00    +0.099 C 
ATOM     14  C   UNL     1      33.231 -12.288 -26.858  0.00  0.00    +0.021 C 
ENDBRANCH   7  10
ENDBRANCH   1   5
BRANCH   1  15
ATOM     15  N   UNL     1      34.926 -19.484 -22.127  0.00  0.00    -0.188 N 
ATOM     16  C   UNL     1      33.991 -19.392 -23.289  0.00  0.00    +0.139 C 
BRANCH  15  17
ATOM     17  C   UNL     1      34.537 -20.335 -21.049  0.00  0.00    +0.069 C 
ATOM     18  C   UNL     1      33.220 -20.324 -20.590  0.00  0.00    +0.016 C 
ATOM     19  C   UNL     1      35.474 -21.181 -20.455  0.00  0.00    +0.016 C 
ATOM     20  C   UNL     1      33.777 -22.002 -18.945  0.00  0.00    +0.055 C 
ATOM     21  C   UNL     1      32.840 -21.157 -19.538  0.00  0.00    +0.006 C 
ATOM     22  C   UNL     1      35.094 -22.014 -19.403  0.00  0.00    +0.006 C 
BRANCH  20  25
ATOM     23  O   UNL     1      34.216 -23.604 -17.284  0.00  0.00    -0.268 OA
ATOM     24  N   UNL     1      32.045 -22.852 -17.475  0.00  0.00    -0.193 N 
ATOM     25  C   UNL     1      33.381 -22.871 -17.847  0.00  0.00    +0.268 C 
ATOM     26  H   UNL     1      31.392 -22.269 -17.926  0.00  0.00    +0.183 HD
BRANCH  24  27
ATOM     27  O   UNL     1      31.669 -23.702 -16.425  0.00  0.00    -0.295 OA
ATOM     28  H   UNL     1      31.019 -24.346 -16.748  0.00  0.00    +0.241 HD
ENDBRANCH  24  27
ENDBRANCH  20  25
ENDBRANCH  15  17
ENDBRANCH   1  15
TORSDOF 6
ENDMDL
MODEL 8
REMARK VINA RESULT:     -10.0      5.691     11.466
REMARK  Name = 449096
REMARK  6 active torsions:
REMARK  status: ('A' for Active; 'I' for Inactive)
REMARK    1  A    between atoms: S_1  and  C_5
REMARK    2  A    between atoms: S_1  and  N_15
REMARK    3  A    between atoms: C_7  and  C_10
REMARK    4  A    between atoms: N_15  and  C_17
REMARK    5  A    between atoms: C_20  and  C_25
REMARK    6  A    between atoms: N_24  and  O_27
REMARK                            x       y       z     vdW  Elec       q    Type
REMARK                         _______ _______ _______ _____ _____    ______ ____
ROOT
ATOM      1  S   UNL     1      31.534 -10.608 -21.769  0.00  0.00    +0.082 S 
ATOM      2  O   UNL     1      30.391 -10.263 -22.593  0.00  0.00    -0.149 OA
ATOM      3  O   UNL     1      31.349 -11.403 -20.569  0.00  0.00    -0.149 OA
ENDROOT
BRANCH   1   5
ATOM      4  S   UNL     1      32.590 -13.258 -22.406  0.00  0.00    -0.065 S 
ATOM      5  C   UNL     1      32.576 -11.618 -22.835  0.00  0.00    +0.155 C 
ATOM      6  C   UNL     1      33.339 -11.309 -23.903  0.00  0.00    +0.027 C 
ATOM      7  C   UNL     1      33.663 -13.601 -23.695  0.00  0.00    +0.048 C 
ATOM      8  C   UNL     1      33.983 -12.471 -24.416  0.00  0.00    +0.010 C 
BRANCH   7  10
ATOM      9  N   UNL     1      34.849 -15.459 -22.882  0.00  0.00    -0.243 NA
ATOM     10  C   UNL     1      34.105 -14.961 -23.892  0.00  0.00    +0.087 C 
ATOM     11  C   UNL     1      33.771 -15.663 -25.037  0.00  0.00    +0.020 C 
ATOM     12  C   UNL     1      34.234 -16.969 -25.153  0.00  0.00    +0.003 C 
ATOM     13  C   UNL     1      35.281 -16.732 -23.030  0.00  0.00    +0.099 C 
ATOM     14  C   UNL     1      35.004 -17.521 -24.136  0.00  0.00    +0.021 C 
ENDBRANCH   7  10
ENDBRANCH   1   5
BRANCH   1  15
ATOM     15  N   UNL     1      32.449  -9.177 -21.388  0.00  0.00    -0.188 N 
ATOM     16  C   UNL     1      32.286  -8.642 -20.002  0.00  0.00    +0.139 C 
BRANCH  15  17
ATOM     17  C   UNL     1      32.582  -8.220 -22.439  0.00  0.00    +0.069 C 
ATOM     18  C   UNL     1      33.835  -7.966 -22.998  0.00  0.00    +0.016 C 
ATOM     19  C   UNL     1      31.458  -7.540 -22.909  0.00  0.00    +0.016 C 
ATOM     20  C   UNL     1      32.841  -6.352 -24.495  0.00  0.00    +0.055 C 
ATOM     21  C   UNL     1      33.964  -7.032 -24.025  0.00  0.00    +0.006 C 
ATOM     22  C   UNL     1      31.588  -6.606 -23.937  0.00  0.00    +0.006 C 
BRANCH  20  25
ATOM     23  O   UNL     1      33.958  -5.405 -26.331  0.00  0.00    -0.268 OA
ATOM     24  N   UNL     1      31.978  -4.419 -25.681  0.00  0.00    -0.193 N 
ATOM     25  C   UNL     1      32.976  -5.377 -25.566  0.00  0.00    +0.268 C 
ATOM     26  H   UNL     1      31.206  -4.405 -25.071  0.00  0.00    +0.183 HD
BRANCH  24  27
ATOM     27  O   UNL     1      32.123  -3.475 -26.707  0.00  0.00    -0.295 OA
ATOM     28  H   UNL     1      32.152  -2.584 -26.325  0.00  0.00    +0.241 HD
ENDBRANCH  24  27
ENDBRANCH  20  25
ENDBRANCH  15  17
ENDBRANCH   1  15
TORSDOF 6
ENDMDL
MODEL 9
REMARK VINA RESULT:      -9.9      6.336     12.231
REMARK  Name = 449096
REMARK  6 active torsions:
REMARK  status: ('A' for Active; 'I' for Inactive)
REMARK    1  A    between atoms: S_1  and  C_5
REMARK    2  A    between atoms: S_1  and  N_15
REMARK    3  A    between atoms: C_7  and  C_10
REMARK    4  A    between atoms: N_15  and  C_17
REMARK    5  A    between atoms: C_20  and  C_25
REMARK    6  A    between atoms: N_24  and  O_27
REMARK                            x       y       z     vdW  Elec       q    Type
REMARK                         _______ _______ _______ _____ _____    ______ ____
ROOT
ATOM      1  S   UNL     1      31.597  -9.779 -22.032  0.00  0.00    +0.082 S 
ATOM      2  O   UNL     1      30.446  -9.491 -22.867  0.00  0.00    -0.149 OA
ATOM      3  O   UNL     1      31.426 -10.497 -20.783  0.00  0.00    -0.149 OA
ENDROOT
BRANCH   1   5
ATOM      4  S   UNL     1      32.462 -12.496 -22.674  0.00  0.00    -0.065 S 
ATOM      5  C   UNL     1      32.634 -10.850 -23.041  0.00  0.00    +0.155 C 
ATOM      6  C   UNL     1      33.514 -10.583 -24.027  0.00  0.00    +0.027 C 
ATOM      7  C   UNL     1      33.611 -12.900 -23.878  0.00  0.00    +0.048 C 
ATOM      8  C   UNL     1      34.094 -11.784 -24.526  0.00  0.00    +0.010 C 
BRANCH   7  10
ATOM      9  N   UNL     1      34.730 -14.825 -23.129  0.00  0.00    -0.243 NA
ATOM     10  C   UNL     1      33.944 -14.289 -24.086  0.00  0.00    +0.087 C 
ATOM     11  C   UNL     1      33.475 -14.979 -25.190  0.00  0.00    +0.020 C 
ATOM     12  C   UNL     1      33.839 -16.315 -25.320  0.00  0.00    +0.003 C 
ATOM     13  C   UNL     1      35.063 -16.125 -23.290  0.00  0.00    +0.099 C 
ATOM     14  C   UNL     1      34.647 -16.906 -24.357  0.00  0.00    +0.021 C 
ENDBRANCH   7  10
ENDBRANCH   1   5
BRANCH   1  15
ATOM     15  N   UNL     1      32.508  -8.322 -21.751  0.00  0.00    -0.188 N 
ATOM     16  C   UNL     1      32.813  -8.003 -20.323  0.00  0.00    +0.139 C 
BRANCH  15  17
ATOM     17  C   UNL     1      32.213  -7.222 -22.612  0.00  0.00    +0.069 C 
ATOM     18  C   UNL     1      32.865  -7.101 -23.839  0.00  0.00    +0.016 C 
ATOM     19  C   UNL     1      31.271  -6.269 -22.225  0.00  0.00    +0.016 C 
ATOM     20  C   UNL     1      31.633  -5.073 -24.293  0.00  0.00    +0.055 C 
ATOM     21  C   UNL     1      32.575  -6.027 -24.680  0.00  0.00    +0.006 C 
ATOM     22  C   UNL     1      30.981  -5.194 -23.066  0.00  0.00    +0.006 C 
BRANCH  20  25
ATOM     23  O   UNL     1      31.974  -3.777 -26.222  0.00  0.00    -0.268 OA
ATOM     24  N   UNL     1      30.317  -3.093 -24.773  0.00  0.00    -0.193 N 
ATOM     25  C   UNL     1      31.331  -3.952 -25.170  0.00  0.00    +0.268 C 
ATOM     26  H   UNL     1      29.815  -3.239 -23.939  0.00  0.00    +0.183 HD
BRANCH  24  27
ATOM     27  O   UNL     1      30.042  -2.007 -25.616  0.00  0.00    -0.295 OA
ATOM     28  H   UNL     1      30.774  -1.889 -26.241  0.00  0.00    +0.241 HD
ENDBRANCH  24  27
ENDBRANCH  20  25
ENDBRANCH  15  17
ENDBRANCH   1  15
TORSDOF 6
ENDMDL
