MODEL 1
REMARK VINA RESULT:      -8.8      0.000      0.000
REMARK  Name = 5487888
REMARK  6 active torsions:
REMARK  status: ('A' for Active; 'I' for Inactive)
REMARK    1  A    between atoms: N_2  and  CA_9
REMARK    2  A    between atoms: C_3  and  C_20
REMARK    3  A    between atoms: CA_11  and  C_16
REMARK    4  A    between atoms: C_16  and  O_17
REMARK    5  A    between atoms: N_19  and  O_29
REMARK    6  A    between atoms: C_20  and  C_24
REMARK                            x       y       z     vdW  Elec       q    Type
REMARK                         _______ _______ _______ _____ _____    ______ ____
ROOT
ATOM      1  O   UNL     1      36.360 -21.081 -20.639  0.00  0.00    -0.268 OA
ATOM      2  N   UNL     1      34.991 -19.199 -20.335  0.00  0.00    -0.291 N 
ATOM      3  C   UNL     1      35.351 -20.532 -20.229  0.00  0.00    +0.269 C 
ATOM      4  H   UNL     1      34.134 -18.910 -19.948  0.00  0.00    +0.150 HD
ENDROOT
BRANCH   2   9
ATOM      5  S   UNL     1      34.718 -19.285 -23.390  0.00  0.00    -0.114 S 
ATOM      6  O   UNL     1      34.944 -15.943 -20.166  0.00  0.00    -0.273 OA
ATOM      7  N   UNL     1      35.025 -16.869 -22.333  0.00  0.00    -0.242 N 
ATOM      8  C   UNL     1      35.777 -18.094 -22.537  0.00  0.00    +0.155 C 
ATOM      9  CA  UNL     1      35.833 -18.204 -20.998  0.00  0.00    +0.179 C 
ATOM     10  C   UNL     1      35.221 -16.774 -21.000  0.00  0.00    +0.251 C 
ATOM     11  CA  UNL     1      34.396 -16.195 -23.329  0.00  0.00    +0.124 C 
ATOM     12  C   UNL     1      34.508 -18.219 -24.856  0.00  0.00    +0.083 C 
ATOM     13  C   UNL     1      34.173 -16.764 -24.538  0.00  0.00    -0.013 C 
ATOM     14  C   UNL     1      33.556 -16.053 -25.720  0.00  0.00    +0.029 C 
BRANCH  11  16
ATOM     15  OXT UNL     1      32.774 -14.586 -22.672  0.00  0.00    -0.244 OA
ATOM     16  C   UNL     1      33.910 -14.843 -23.016  0.00  0.00    +0.351 C 
BRANCH  16  17
ATOM     17  O   UNL     1      34.916 -13.958 -23.172  0.00  0.00    -0.476 OA
ATOM     18  H   UNL     1      35.487 -13.767 -22.454  0.00  0.00    +0.295 HD
ENDBRANCH  16  17
ENDBRANCH  11  16
ENDBRANCH   2   9
BRANCH   3  20
ATOM     19  N   UNL     1      33.096 -21.401 -19.935  0.00  0.00    -0.076 NA
ATOM     20  C   UNL     1      34.322 -21.363 -19.508  0.00  0.00    +0.198 C 
BRANCH  20  24
ATOM     21  S   UNL     1      34.559 -23.653 -16.318  0.00  0.00    -0.060 S 
ATOM     22  N   UNL     1      35.953 -22.098 -17.843  0.00  0.00    -0.383 NA
ATOM     23  N   UNL     1      37.139 -23.070 -16.043  0.00  0.00    -0.328 N 
ATOM     24  C   UNL     1      34.671 -22.140 -18.314  0.00  0.00    +0.148 C 
ATOM     25  C   UNL     1      33.767 -22.910 -17.646  0.00  0.00    +0.127 C 
ATOM     26  C   UNL     1      36.014 -22.868 -16.779  0.00  0.00    +0.204 C 
ATOM     27  H   UNL     1      37.113 -23.661 -15.256  0.00  0.00    +0.145 HD
ATOM     28  H   UNL     1      37.980 -22.626 -16.298  0.00  0.00    +0.145 HD
ENDBRANCH  20  24
BRANCH  19  29
ATOM     29  O   UNL     1      32.918 -20.606 -21.077  0.00  0.00    -0.373 OA
ATOM     30  C   UNL     1      32.119 -19.490 -20.718  0.00  0.00    +0.288 C 
ENDBRANCH  19  29
ENDBRANCH   3  20
TORSDOF 6
ENDMDL
MODEL 2
REMARK VINA RESULT:      -8.6      5.886     10.353
REMARK  Name = 5487888
REMARK  6 active torsions:
REMARK  status: ('A' for Active; 'I' for Inactive)
REMARK    1  A    between atoms: N_2  and  CA_9
REMARK    2  A    between atoms: C_3  and  C_20
REMARK    3  A    between atoms: CA_11  and  C_16
REMARK    4  A    between atoms: C_16  and  O_17
REMARK    5  A    between atoms: N_19  and  O_29
REMARK    6  A    between atoms: C_20  and  C_24
REMARK                            x       y       z     vdW  Elec       q    Type
REMARK                         _______ _______ _______ _____ _____    ______ ____
ROOT
ATOM      1  O   UNL     1      30.722 -10.403 -22.823  0.00  0.00    -0.268 OA
ATOM      2  N   UNL     1      32.612 -11.756 -22.495  0.00  0.00    -0.291 N 
ATOM      3  C   UNL     1      31.924 -10.573 -22.701  0.00  0.00    +0.269 C 
ATOM      4  H   UNL     1      33.592 -11.725 -22.416  0.00  0.00    +0.150 HD
ENDROOT
BRANCH   2   9
ATOM      5  S   UNL     1      33.466 -13.702 -24.708  0.00  0.00    -0.114 S 
ATOM      6  O   UNL     1      32.710 -14.000 -20.131  0.00  0.00    -0.273 OA
ATOM      7  N   UNL     1      33.024 -14.793 -22.328  0.00  0.00    -0.242 N 
ATOM      8  C   UNL     1      32.294 -14.155 -23.408  0.00  0.00    +0.155 C 
ATOM      9  CA  UNL     1      31.940 -13.051 -22.389  0.00  0.00    +0.179 C 
ATOM     10  C   UNL     1      32.578 -13.998 -21.332  0.00  0.00    +0.251 C 
ATOM     11  CA  UNL     1      33.851 -15.856 -22.501  0.00  0.00    +0.124 C 
ATOM     12  C   UNL     1      33.982 -15.428 -24.999  0.00  0.00    +0.083 C 
ATOM     13  C   UNL     1      34.288 -16.221 -23.731  0.00  0.00    -0.013 C 
ATOM     14  C   UNL     1      35.140 -17.435 -24.013  0.00  0.00    +0.029 C 
BRANCH  11  16
ATOM     15  OXT UNL     1      34.009 -17.698 -21.007  0.00  0.00    -0.244 OA
ATOM     16  C   UNL     1      34.303 -16.554 -21.288  0.00  0.00    +0.351 C 
BRANCH  16  17
ATOM     17  O   UNL     1      35.080 -15.727 -20.560  0.00  0.00    -0.476 OA
ATOM     18  H   UNL     1      34.899 -15.595 -19.650  0.00  0.00    +0.295 HD
ENDBRANCH  16  17
ENDBRANCH  11  16
ENDBRANCH   2   9
BRANCH   3  20
ATOM     19  N   UNL     1      33.858  -9.379 -23.575  0.00  0.00    -0.076 NA
ATOM     20  C   UNL     1      32.832  -9.372 -22.778  0.00  0.00    +0.198 C 
BRANCH  20  24
ATOM     21  S   UNL     1      32.360  -6.598 -20.030  0.00  0.00    -0.060 S 
ATOM     22  N   UNL     1      32.197  -7.021 -22.576  0.00  0.00    -0.383 NA
ATOM     23  N   UNL     1      31.660  -4.824 -21.885  0.00  0.00    -0.328 N 
ATOM     24  C   UNL     1      32.587  -8.178 -21.963  0.00  0.00    +0.148 C 
ATOM     25  C   UNL     1      32.734  -8.169 -20.609  0.00  0.00    +0.127 C 
ATOM     26  C   UNL     1      32.045  -6.106 -21.645  0.00  0.00    +0.204 C 
ATOM     27  H   UNL     1      31.566  -4.190 -21.137  0.00  0.00    +0.145 HD
ATOM     28  H   UNL     1      31.477  -4.530 -22.806  0.00  0.00    +0.145 HD
ENDBRANCH  20  24
BRANCH  19  29
ATOM     29  O   UNL     1      33.961 -10.587 -24.280  0.00  0.00    -0.373 OA
ATOM     30  C   UNL     1      34.993 -10.449 -25.244  0.00  0.00    +0.288 C 
ENDBRANCH  19  29
ENDBRANCH   3  20
TORSDOF 6
ENDMDL
MODEL 3
REMARK VINA RESULT:      -8.5      4.871      9.456
REMARK  Name = 5487888
REMARK  6 active torsions:
REMARK  status: ('A' for Active; 'I' for Inactive)
REMARK    1  A    between atoms: N_2  and  CA_9
REMARK    2  A    between atoms: C_3  and  C_20
REMARK    3  A    between atoms: CA_11  and  C_16
REMARK    4  A    between atoms: C_16  and  O_17
REMARK    5  A    between atoms: N_19  and  O_29
REMARK    6  A    between atoms: C_20  and  C_24
REMARK                            x       y       z     vdW  Elec       q    Type
REMARK                         _______ _______ _______ _____ _____    ______ ____
ROOT
ATOM      1  O   UNL     1      33.707 -24.351 -18.697  0.00  0.00    -0.268 OA
ATOM      2  N   UNL     1      33.658 -23.512 -16.506  0.00  0.00    -0.291 N 
ATOM      3  C   UNL     1      33.451 -23.487 -17.874  0.00  0.00    +0.269 C 
ATOM      4  H   UNL     1      33.395 -22.727 -15.975  0.00  0.00    +0.150 HD
ENDROOT
BRANCH   2   9
ATOM      5  S   UNL     1      36.592 -23.032 -15.749  0.00  0.00    -0.114 S 
ATOM      6  O   UNL     1      32.883 -24.897 -13.658  0.00  0.00    -0.273 OA
ATOM      7  N   UNL     1      35.169 -24.427 -13.996  0.00  0.00    -0.242 N 
ATOM      8  C   UNL     1      35.714 -24.556 -15.335  0.00  0.00    +0.155 C 
ATOM      9  CA  UNL     1      34.251 -24.658 -15.817  0.00  0.00    +0.179 C 
ATOM     10  C   UNL     1      33.890 -24.731 -14.306  0.00  0.00    +0.251 C 
ATOM     11  CA  UNL     1      35.909 -24.091 -12.908  0.00  0.00    +0.124 C 
ATOM     12  C   UNL     1      37.782 -23.213 -14.378  0.00  0.00    +0.083 C 
ATOM     13  C   UNL     1      37.151 -23.565 -13.033  0.00  0.00    -0.013 C 
ATOM     14  C   UNL     1      38.066 -23.243 -11.876  0.00  0.00    +0.029 C 
BRANCH  11  16
ATOM     15  OXT UNL     1      35.520 -25.176 -10.829  0.00  0.00    -0.244 OA
ATOM     16  C   UNL     1      35.277 -24.263 -11.592  0.00  0.00    +0.351 C 
BRANCH  16  17
ATOM     17  O   UNL     1      34.403 -23.258 -11.381  0.00  0.00    -0.476 OA
ATOM     18  H   UNL     1      34.003 -22.824 -12.109  0.00  0.00    +0.295 HD
ENDBRANCH  16  17
ENDBRANCH  11  16
ENDBRANCH   2   9
BRANCH   3  20
ATOM     19  N   UNL     1      31.649 -21.853 -17.942  0.00  0.00    -0.076 NA
ATOM     20  C   UNL     1      32.831 -22.200 -18.352  0.00  0.00    +0.198 C 
BRANCH  20  24
ATOM     21  S   UNL     1      34.048 -19.626 -21.065  0.00  0.00    -0.060 S 
ATOM     22  N   UNL     1      34.900 -21.314 -19.302  0.00  0.00    -0.383 NA
ATOM     23  N   UNL     1      36.589 -20.180 -20.508  0.00  0.00    -0.328 N 
ATOM     24  C   UNL     1      33.534 -21.316 -19.288  0.00  0.00    +0.148 C 
ATOM     25  C   UNL     1      32.882 -20.488 -20.150  0.00  0.00    +0.127 C 
ATOM     26  C   UNL     1      35.290 -20.450 -20.212  0.00  0.00    +0.204 C 
ATOM     27  H   UNL     1      36.809 -19.519 -21.204  0.00  0.00    +0.145 HD
ATOM     28  H   UNL     1      37.310 -20.645 -20.025  0.00  0.00    +0.145 HD
ENDBRANCH  20  24
BRANCH  19  29
ATOM     29  O   UNL     1      31.105 -22.799 -17.060  0.00  0.00    -0.373 OA
ATOM     30  C   UNL     1      29.786 -22.390 -16.733  0.00  0.00    +0.288 C 
ENDBRANCH  19  29
ENDBRANCH   3  20
TORSDOF 6
ENDMDL
MODEL 4
REMARK VINA RESULT:      -8.2      6.733     11.523
REMARK  Name = 5487888
REMARK  6 active torsions:
REMARK  status: ('A' for Active; 'I' for Inactive)
REMARK    1  A    between atoms: N_2  and  CA_9
REMARK    2  A    between atoms: C_3  and  C_20
REMARK    3  A    between atoms: CA_11  and  C_16
REMARK    4  A    between atoms: C_16  and  O_17
REMARK    5  A    between atoms: N_19  and  O_29
REMARK    6  A    between atoms: C_20  and  C_24
REMARK                            x       y       z     vdW  Elec       q    Type
REMARK                         _______ _______ _______ _____ _____    ______ ____
ROOT
ATOM      1  O   UNL     1      30.773  -8.967 -23.202  0.00  0.00    -0.268 OA
ATOM      2  N   UNL     1      32.411 -10.343 -22.237  0.00  0.00    -0.291 N 
ATOM      3  C   UNL     1      31.868  -9.157 -22.699  0.00  0.00    +0.269 C 
ATOM      4  H   UNL     1      33.318 -10.329 -21.854  0.00  0.00    +0.150 HD
ENDROOT
BRANCH   2   9
ATOM      5  S   UNL     1      33.602 -12.270 -24.306  0.00  0.00    -0.114 S 
ATOM      6  O   UNL     1      32.000 -12.638 -19.957  0.00  0.00    -0.273 OA
ATOM      7  N   UNL     1      32.693 -13.395 -22.080  0.00  0.00    -0.242 N 
ATOM      8  C   UNL     1      32.196 -12.708 -23.258  0.00  0.00    +0.155 C 
ATOM      9  CA  UNL     1      31.692 -11.615 -22.292  0.00  0.00    +0.179 C 
ATOM     10  C   UNL     1      32.093 -12.606 -21.162  0.00  0.00    +0.251 C 
ATOM     11  CA  UNL     1      33.504 -14.482 -22.126  0.00  0.00    +0.124 C 
ATOM     12  C   UNL     1      34.111 -14.006 -24.543  0.00  0.00    +0.083 C 
ATOM     13  C   UNL     1      34.151 -14.836 -23.263  0.00  0.00    -0.013 C 
ATOM     14  C   UNL     1      35.003 -16.073 -23.415  0.00  0.00    +0.029 C 
BRANCH  11  16
ATOM     15  OXT UNL     1      34.700 -15.149 -20.183  0.00  0.00    -0.244 OA
ATOM     16  C   UNL     1      33.702 -15.221 -20.870  0.00  0.00    +0.351 C 
BRANCH  16  17
ATOM     17  O   UNL     1      32.612 -15.974 -20.617  0.00  0.00    -0.476 OA
ATOM     18  H   UNL     1      32.645 -16.902 -20.741  0.00  0.00    +0.295 HD
ENDBRANCH  16  17
ENDBRANCH  11  16
ENDBRANCH   2   9
BRANCH   3  20
ATOM     19  N   UNL     1      33.263  -7.672 -21.366  0.00  0.00    -0.076 NA
ATOM     20  C   UNL     1      32.798  -7.982 -22.539  0.00  0.00    +0.198 C 
BRANCH  20  24
ATOM     21  S   UNL     1      34.479  -6.173 -25.601  0.00  0.00    -0.060 S 
ATOM     22  N   UNL     1      32.335  -6.210 -24.155  0.00  0.00    -0.383 NA
ATOM     23  N   UNL     1      32.347  -4.611 -25.898  0.00  0.00    -0.328 N 
ATOM     24  C   UNL     1      33.196  -7.161 -23.687  0.00  0.00    +0.148 C 
ATOM     25  C   UNL     1      34.395  -7.307 -24.316  0.00  0.00    +0.127 C 
ATOM     26  C   UNL     1      32.911  -5.616 -25.177  0.00  0.00    +0.204 C 
ATOM     27  H   UNL     1      32.837  -4.211 -26.653  0.00  0.00    +0.145 HD
ATOM     28  H   UNL     1      31.448  -4.283 -25.666  0.00  0.00    +0.145 HD
ENDBRANCH  20  24
BRANCH  19  29
ATOM     29  O   UNL     1      32.790  -8.542 -20.372  0.00  0.00    -0.373 OA
ATOM     30  C   UNL     1      31.911  -7.814 -19.530  0.00  0.00    +0.288 C 
ENDBRANCH  19  29
ENDBRANCH   3  20
TORSDOF 6
ENDMDL
MODEL 5
REMARK VINA RESULT:      -8.1      5.298      9.787
REMARK  Name = 5487888
REMARK  6 active torsions:
REMARK  status: ('A' for Active; 'I' for Inactive)
REMARK    1  A    between atoms: N_2  and  CA_9
REMARK    2  A    between atoms: C_3  and  C_20
REMARK    3  A    between atoms: CA_11  and  C_16
REMARK    4  A    between atoms: C_16  and  O_17
REMARK    5  A    between atoms: N_19  and  O_29
REMARK    6  A    between atoms: C_20  and  C_24
REMARK                            x       y       z     vdW  Elec       q    Type
REMARK                         _______ _______ _______ _____ _____    ______ ____
ROOT
ATOM      1  O   UNL     1      30.465 -10.804 -22.442  0.00  0.00    -0.268 OA
ATOM      2  N   UNL     1      32.338 -12.038 -21.752  0.00  0.00    -0.291 N 
ATOM      3  C   UNL     1      31.610 -10.895 -22.031  0.00  0.00    +0.269 C 
ATOM      4  H   UNL     1      33.261 -11.942 -21.423  0.00  0.00    +0.150 HD
ENDROOT
BRANCH   2   9
ATOM      5  S   UNL     1      33.568 -13.501 -24.153  0.00  0.00    -0.114 S 
ATOM      6  O   UNL     1      32.456 -14.635 -19.783  0.00  0.00    -0.273 OA
ATOM      7  N   UNL     1      33.034 -15.014 -22.037  0.00  0.00    -0.242 N 
ATOM      8  C   UNL     1      32.340 -14.265 -23.068  0.00  0.00    +0.155 C 
ATOM      9  CA  UNL     1      31.791 -13.384 -21.925  0.00  0.00    +0.179 C 
ATOM     10  C   UNL     1      32.428 -14.440 -20.976  0.00  0.00    +0.251 C 
ATOM     11  CA  UNL     1      33.974 -15.959 -22.295  0.00  0.00    +0.124 C 
ATOM     12  C   UNL     1      34.276 -15.103 -24.665  0.00  0.00    +0.083 C 
ATOM     13  C   UNL     1      34.549 -16.071 -23.517  0.00  0.00    -0.013 C 
ATOM     14  C   UNL     1      35.539 -17.144 -23.904  0.00  0.00    +0.029 C 
BRANCH  11  16
ATOM     15  OXT UNL     1      34.101 -17.988 -21.062  0.00  0.00    -0.244 OA
ATOM     16  C   UNL     1      34.388 -16.813 -21.171  0.00  0.00    +0.351 C 
BRANCH  16  17
ATOM     17  O   UNL     1      35.121 -16.087 -20.304  0.00  0.00    -0.476 OA
ATOM     18  H   UNL     1      35.692 -15.414 -20.621  0.00  0.00    +0.295 HD
ENDBRANCH  16  17
ENDBRANCH  11  16
ENDBRANCH   2   9
BRANCH   3  20
ATOM     19  N   UNL     1      32.243  -8.987 -20.657  0.00  0.00    -0.076 NA
ATOM     20  C   UNL     1      32.386  -9.628 -21.778  0.00  0.00    +0.198 C 
BRANCH  20  24
ATOM     21  S   UNL     1      34.695  -7.529 -24.172  0.00  0.00    -0.060 S 
ATOM     22  N   UNL     1      33.929  -9.942 -23.646  0.00  0.00    -0.383 NA
ATOM     23  N   UNL     1      35.470  -9.741 -25.428  0.00  0.00    -0.328 N 
ATOM     24  C   UNL     1      33.308  -9.086 -22.781  0.00  0.00    +0.148 C 
ATOM     25  C   UNL     1      33.576  -7.755 -22.891  0.00  0.00    +0.127 C 
ATOM     26  C   UNL     1      34.696  -9.225 -24.437  0.00  0.00    +0.204 C 
ATOM     27  H   UNL     1      36.021  -9.144 -25.984  0.00  0.00    +0.145 HD
ATOM     28  H   UNL     1      35.481 -10.712 -25.589  0.00  0.00    +0.145 HD
ENDBRANCH  20  24
BRANCH  19  29
ATOM     29  O   UNL     1      31.327  -9.624 -19.807  0.00  0.00    -0.373 OA
ATOM     30  C   UNL     1      32.055 -10.239 -18.756  0.00  0.00    +0.288 C 
ENDBRANCH  19  29
ENDBRANCH   3  20
TORSDOF 6
ENDMDL
MODEL 6
REMARK VINA RESULT:      -8.0      3.381      5.580
REMARK  Name = 5487888
REMARK  6 active torsions:
REMARK  status: ('A' for Active; 'I' for Inactive)
REMARK    1  A    between atoms: N_2  and  CA_9
REMARK    2  A    between atoms: C_3  and  C_20
REMARK    3  A    between atoms: CA_11  and  C_16
REMARK    4  A    between atoms: C_16  and  O_17
REMARK    5  A    between atoms: N_19  and  O_29
REMARK    6  A    between atoms: C_20  and  C_24
REMARK                            x       y       z     vdW  Elec       q    Type
REMARK                         _______ _______ _______ _____ _____    ______ ____
ROOT
ATOM      1  O   UNL     1      33.717 -24.692 -17.659  0.00  0.00    -0.268 OA
ATOM      2  N   UNL     1      33.499 -22.429 -18.241  0.00  0.00    -0.291 N 
ATOM      3  C   UNL     1      33.345 -23.550 -17.444  0.00  0.00    +0.269 C 
ATOM      4  H   UNL     1      33.139 -21.570 -17.922  0.00  0.00    +0.150 HD
ENDROOT
BRANCH   2   9
ATOM      5  S   UNL     1      32.628 -20.137 -20.085  0.00  0.00    -0.114 S 
ATOM      6  O   UNL     1      36.664 -22.161 -18.978  0.00  0.00    -0.273 OA
ATOM      7  N   UNL     1      35.187 -20.825 -20.240  0.00  0.00    -0.242 N 
ATOM      8  C   UNL     1      33.875 -21.355 -20.563  0.00  0.00    +0.155 C 
ATOM      9  CA  UNL     1      34.177 -22.467 -19.536  0.00  0.00    +0.179 C 
ATOM     10  C   UNL     1      35.614 -21.874 -19.504  0.00  0.00    +0.251 C 
ATOM     11  CA  UNL     1      35.637 -19.615 -20.661  0.00  0.00    +0.124 C 
ATOM     12  C   UNL     1      33.278 -18.861 -21.216  0.00  0.00    +0.083 C 
ATOM     13  C   UNL     1      34.794 -18.683 -21.166  0.00  0.00    -0.013 C 
ATOM     14  C   UNL     1      35.226 -17.350 -21.729  0.00  0.00    +0.029 C 
BRANCH  11  16
ATOM     15  OXT UNL     1      37.838 -19.090 -21.389  0.00  0.00    -0.244 OA
ATOM     16  C   UNL     1      37.070 -19.337 -20.482  0.00  0.00    +0.351 C 
BRANCH  16  17
ATOM     17  O   UNL     1      37.378 -19.401 -19.171  0.00  0.00    -0.476 OA
ATOM     18  H   UNL     1      37.354 -18.626 -18.645  0.00  0.00    +0.295 HD
ENDBRANCH  16  17
ENDBRANCH  11  16
ENDBRANCH   2   9
BRANCH   3  20
ATOM     19  N   UNL     1      33.267 -22.871 -15.108  0.00  0.00    -0.076 NA
ATOM     20  C   UNL     1      32.612 -23.262 -16.159  0.00  0.00    +0.198 C 
BRANCH  20  24
ATOM     21  S   UNL     1      28.867 -24.160 -15.361  0.00  0.00    -0.060 S 
ATOM     22  N   UNL     1      30.351 -22.696 -16.891  0.00  0.00    -0.383 NA
ATOM     23  N   UNL     1      28.023 -22.480 -17.242  0.00  0.00    -0.328 N 
ATOM     24  C   UNL     1      31.158 -23.420 -16.059  0.00  0.00    +0.148 C 
ATOM     25  C   UNL     1      30.568 -24.262 -15.166  0.00  0.00    +0.127 C 
ATOM     26  C   UNL     1      29.105 -23.007 -16.611  0.00  0.00    +0.204 C 
ATOM     27  H   UNL     1      27.115 -22.760 -16.979  0.00  0.00    +0.145 HD
ATOM     28  H   UNL     1      28.146 -21.818 -17.959  0.00  0.00    +0.145 HD
ENDBRANCH  20  24
BRANCH  19  29
ATOM     29  O   UNL     1      34.644 -22.773 -15.358  0.00  0.00    -0.373 OA
ATOM     30  C   UNL     1      35.331 -23.421 -14.299  0.00  0.00    +0.288 C 
ENDBRANCH  19  29
ENDBRANCH   3  20
TORSDOF 6
ENDMDL
MODEL 7
REMARK VINA RESULT:      -7.9      5.389      8.437
REMARK  Name = 5487888
REMARK  6 active torsions:
REMARK  status: ('A' for Active; 'I' for Inactive)
REMARK    1  A    between atoms: N_2  and  CA_9
REMARK    2  A    between atoms: C_3  and  C_20
REMARK    3  A    between atoms: CA_11  and  C_16
REMARK    4  A    between atoms: C_16  and  O_17
REMARK    5  A    between atoms: N_19  and  O_29
REMARK    6  A    between atoms: C_20  and  C_24
REMARK                            x       y       z     vdW  Elec       q    Type
REMARK                         _______ _______ _______ _____ _____    ______ ____
ROOT
ATOM      1  O   UNL     1      32.032 -13.871 -23.906  0.00  0.00    -0.268 OA
ATOM      2  N   UNL     1      33.481 -12.167 -23.194  0.00  0.00    -0.291 N 
ATOM      3  C   UNL     1      32.807 -13.373 -23.106  0.00  0.00    +0.269 C 
ATOM      4  H   UNL     1      34.077 -11.905 -22.456  0.00  0.00    +0.150 HD
ENDROOT
BRANCH   2   9
ATOM      5  S   UNL     1      31.375  -9.986 -22.724  0.00  0.00    -0.114 S 
ATOM      6  O   UNL     1      35.642 -10.145 -24.561  0.00  0.00    -0.273 OA
ATOM      7  N   UNL     1      33.516  -9.236 -24.104  0.00  0.00    -0.242 N 
ATOM      8  C   UNL     1      32.351 -10.091 -24.242  0.00  0.00    +0.155 C 
ATOM      9  CA  UNL     1      33.345 -11.268 -24.340  0.00  0.00    +0.179 C 
ATOM     10  C   UNL     1      34.444 -10.170 -24.402  0.00  0.00    +0.251 C 
ATOM     11  CA  UNL     1      33.452  -7.923 -23.766  0.00  0.00    +0.124 C 
ATOM     12  C   UNL     1      31.081  -8.194 -22.904  0.00  0.00    +0.083 C 
ATOM     13  C   UNL     1      32.325  -7.379 -23.246  0.00  0.00    -0.013 C 
ATOM     14  C   UNL     1      32.150  -5.914 -22.923  0.00  0.00    +0.029 C 
BRANCH  11  16
ATOM     15  OXT UNL     1      34.884  -6.361 -24.844  0.00  0.00    -0.244 OA
ATOM     16  C   UNL     1      34.681  -7.132 -23.928  0.00  0.00    +0.351 C 
BRANCH  16  17
ATOM     17  O   UNL     1      35.524  -7.402 -22.911  0.00  0.00    -0.476 OA
ATOM     18  H   UNL     1      35.238  -7.931 -22.193  0.00  0.00    +0.295 HD
ENDBRANCH  16  17
ENDBRANCH  11  16
ENDBRANCH   2   9
BRANCH   3  20
ATOM     19  N   UNL     1      32.639 -13.694 -20.699  0.00  0.00    -0.076 NA
ATOM     20  C   UNL     1      33.106 -14.122 -21.833  0.00  0.00    +0.198 C 
BRANCH  20  24
ATOM     21  S   UNL     1      35.217 -17.363 -21.123  0.00  0.00    -0.060 S 
ATOM     22  N   UNL     1      34.377 -15.832 -23.029  0.00  0.00    -0.383 NA
ATOM     23  N   UNL     1      35.686 -17.674 -23.723  0.00  0.00    -0.328 N 
ATOM     24  C   UNL     1      33.926 -15.338 -21.838  0.00  0.00    +0.148 C 
ATOM     25  C   UNL     1      34.261 -16.004 -20.699  0.00  0.00    +0.127 C 
ATOM     26  C   UNL     1      35.079 -16.913 -22.774  0.00  0.00    +0.204 C 
ATOM     27  H   UNL     1      36.198 -18.474 -23.459  0.00  0.00    +0.145 HD
ATOM     28  H   UNL     1      35.614 -17.427 -24.672  0.00  0.00    +0.145 HD
ENDBRANCH  20  24
BRANCH  19  29
ATOM     29  O   UNL     1      31.882 -12.523 -20.855  0.00  0.00    -0.373 OA
ATOM     30  C   UNL     1      31.821 -11.866 -19.600  0.00  0.00    +0.288 C 
ENDBRANCH  19  29
ENDBRANCH   3  20
TORSDOF 6
ENDMDL
MODEL 8
REMARK VINA RESULT:      -7.8      5.768      9.757
REMARK  Name = 5487888
REMARK  6 active torsions:
REMARK  status: ('A' for Active; 'I' for Inactive)
REMARK    1  A    between atoms: N_2  and  CA_9
REMARK    2  A    between atoms: C_3  and  C_20
REMARK    3  A    between atoms: CA_11  and  C_16
REMARK    4  A    between atoms: C_16  and  O_17
REMARK    5  A    between atoms: N_19  and  O_29
REMARK    6  A    between atoms: C_20  and  C_24
REMARK                            x       y       z     vdW  Elec       q    Type
REMARK                         _______ _______ _______ _____ _____    ______ ____
ROOT
ATOM      1  O   UNL     1      35.215 -24.485 -16.128  0.00  0.00    -0.268 OA
ATOM      2  N   UNL     1      34.952 -22.236 -15.507  0.00  0.00    -0.291 N 
ATOM      3  C   UNL     1      34.593 -23.436 -16.097  0.00  0.00    +0.269 C 
ATOM      4  H   UNL     1      34.333 -21.474 -15.571  0.00  0.00    +0.150 HD
ENDROOT
BRANCH   2   9
ATOM      5  S   UNL     1      35.052 -23.838 -12.892  0.00  0.00    -0.114 S 
ATOM      6  O   UNL     1      38.003 -22.986 -16.381  0.00  0.00    -0.273 OA
ATOM      7  N   UNL     1      37.341 -23.677 -14.227  0.00  0.00    -0.242 N 
ATOM      8  C   UNL     1      36.435 -22.830 -13.473  0.00  0.00    +0.155 C 
ATOM      9  CA  UNL     1      36.215 -22.056 -14.791  0.00  0.00    +0.179 C 
ATOM     10  C   UNL     1      37.376 -22.927 -15.349  0.00  0.00    +0.251 C 
ATOM     11  CA  UNL     1      37.869 -24.832 -13.747  0.00  0.00    +0.124 C 
ATOM     12  C   UNL     1      36.123 -24.941 -11.909  0.00  0.00    +0.083 C 
ATOM     13  C   UNL     1      37.366 -25.436 -12.643  0.00  0.00    -0.013 C 
ATOM     14  C   UNL     1      37.948 -26.673 -12.002  0.00  0.00    +0.029 C 
BRANCH  11  16
ATOM     15  OXT UNL     1      40.142 -25.157 -14.365  0.00  0.00    -0.244 OA
ATOM     16  C   UNL     1      38.969 -25.433 -14.516  0.00  0.00    +0.351 C 
BRANCH  16  17
ATOM     17  O   UNL     1      38.465 -26.321 -15.397  0.00  0.00    -0.476 OA
ATOM     18  H   UNL     1      38.782 -26.337 -16.279  0.00  0.00    +0.295 HD
ENDBRANCH  16  17
ENDBRANCH  11  16
ENDBRANCH   2   9
BRANCH   3  20
ATOM     19  N   UNL     1      33.175 -23.163 -18.057  0.00  0.00    -0.076 NA
ATOM     20  C   UNL     1      33.249 -23.377 -16.778  0.00  0.00    +0.198 C 
BRANCH  20  24
ATOM     21  S   UNL     1      29.615 -23.427 -15.275  0.00  0.00    -0.060 S 
ATOM     22  N   UNL     1      32.016 -24.306 -14.885  0.00  0.00    -0.383 NA
ATOM     23  N   UNL     1      30.427 -24.966 -13.263  0.00  0.00    -0.328 N 
ATOM     24  C   UNL     1      32.004 -23.551 -16.023  0.00  0.00    +0.148 C 
ATOM     25  C   UNL     1      30.825 -22.990 -16.410  0.00  0.00    +0.127 C 
ATOM     26  C   UNL     1      30.795 -24.313 -14.397  0.00  0.00    +0.204 C 
ATOM     27  H   UNL     1      29.492 -24.927 -12.954  0.00  0.00    +0.145 HD
ATOM     28  H   UNL     1      31.093 -25.477 -12.751  0.00  0.00    +0.145 HD
ENDBRANCH  20  24
BRANCH  19  29
ATOM     29  O   UNL     1      34.444 -23.012 -18.635  0.00  0.00    -0.373 OA
ATOM     30  C   UNL     1      34.434 -21.828 -19.417  0.00  0.00    +0.288 C 
ENDBRANCH  19  29
ENDBRANCH   3  20
TORSDOF 6
ENDMDL
MODEL 9
REMARK VINA RESULT:      -7.6      4.761      9.393
REMARK  Name = 5487888
REMARK  6 active torsions:
REMARK  status: ('A' for Active; 'I' for Inactive)
REMARK    1  A    between atoms: N_2  and  CA_9
REMARK    2  A    between atoms: C_3  and  C_20
REMARK    3  A    between atoms: CA_11  and  C_16
REMARK    4  A    between atoms: C_16  and  O_17
REMARK    5  A    between atoms: N_19  and  O_29
REMARK    6  A    between atoms: C_20  and  C_24
REMARK                            x       y       z     vdW  Elec       q    Type
REMARK                         _______ _______ _______ _____ _____    ______ ____
ROOT
ATOM      1  O   UNL     1      31.881 -12.080 -23.486  0.00  0.00    -0.268 OA
ATOM      2  N   UNL     1      33.879 -13.287 -23.239  0.00  0.00    -0.291 N 
ATOM      3  C   UNL     1      33.081 -12.232 -23.645  0.00  0.00    +0.269 C 
ATOM      4  H   UNL     1      34.840 -13.260 -23.447  0.00  0.00    +0.150 HD
ENDROOT
BRANCH   2   9
ATOM      5  S   UNL     1      33.580 -15.761 -25.030  0.00  0.00    -0.114 S 
ATOM      6  O   UNL     1      35.120 -14.945 -20.720  0.00  0.00    -0.273 OA
ATOM      7  N   UNL     1      34.344 -16.238 -22.533  0.00  0.00    -0.242 N 
ATOM      8  C   UNL     1      33.180 -15.777 -23.267  0.00  0.00    +0.155 C 
ATOM      9  CA  UNL     1      33.351 -14.442 -22.512  0.00  0.00    +0.179 C 
ATOM     10  C   UNL     1      34.426 -15.196 -21.678  0.00  0.00    +0.251 C 
ATOM     11  CA  UNL     1      34.995 -17.399 -22.801  0.00  0.00    +0.124 C 
ATOM     12  C   UNL     1      33.906 -17.555 -25.088  0.00  0.00    +0.083 C 
ATOM     13  C   UNL     1      34.790 -18.075 -23.957  0.00  0.00    -0.013 C 
ATOM     14  C   UNL     1      35.411 -19.410 -24.291  0.00  0.00    +0.029 C 
BRANCH  11  16
ATOM     15  OXT UNL     1      35.719 -18.104 -20.649  0.00  0.00    -0.244 OA
ATOM     16  C   UNL     1      35.980 -17.856 -21.809  0.00  0.00    +0.351 C 
BRANCH  16  17
ATOM     17  O   UNL     1      37.191 -17.951 -22.393  0.00  0.00    -0.476 OA
ATOM     18  H   UNL     1      37.953 -17.638 -21.945  0.00  0.00    +0.295 HD
ENDBRANCH  16  17
ENDBRANCH  11  16
ENDBRANCH   2   9
BRANCH   3  20
ATOM     19  N   UNL     1      34.403 -11.425 -25.524  0.00  0.00    -0.076 NA
ATOM     20  C   UNL     1      33.849 -11.162 -24.379  0.00  0.00    +0.198 C 
BRANCH  20  24
ATOM     21  S   UNL     1      34.798  -7.484 -23.359  0.00  0.00    -0.060 S 
ATOM     22  N   UNL     1      33.136  -9.397 -22.848  0.00  0.00    -0.383 NA
ATOM     23  N   UNL     1      32.826  -7.428 -21.575  0.00  0.00    -0.328 N 
ATOM     24  C   UNL     1      33.996  -9.813 -23.824  0.00  0.00    +0.148 C 
ATOM     25  C   UNL     1      34.959  -8.946 -24.242  0.00  0.00    +0.127 C 
ATOM     26  C   UNL     1      33.466  -8.168 -22.520  0.00  0.00    +0.204 C 
ATOM     27  H   UNL     1      33.129  -6.512 -21.380  0.00  0.00    +0.145 HD
ATOM     28  H   UNL     1      32.061  -7.809 -21.088  0.00  0.00    +0.145 HD
ENDBRANCH  20  24
BRANCH  19  29
ATOM     29  O   UNL     1      34.181 -12.753 -25.917  0.00  0.00    -0.373 OA
ATOM     30  C   UNL     1      33.449 -12.737 -27.133  0.00  0.00    +0.288 C 
ENDBRANCH  19  29
ENDBRANCH   3  20
TORSDOF 6
ENDMDL
