MODEL 1
REMARK VINA RESULT:      -6.4      0.000      0.000
REMARK  Name = 123648
REMARK  4 active torsions:
REMARK  status: ('A' for Active; 'I' for Inactive)
REMARK    1  A    between atoms: C_1  and  C_13
REMARK    2  A    between atoms: C_2  and  N_9
REMARK    3  A    between atoms: C_5  and  S_10
REMARK    4  A    between atoms: C_13  and  O_14
REMARK                            x       y       z     vdW  Elec       q    Type
REMARK                         _______ _______ _______ _____ _____    ______ ____
ROOT
ATOM      1  C   UNL     1      38.233 -24.495 -14.396  0.00  0.00    +0.098 C 
ATOM      2  C   UNL     1      37.266 -24.440 -13.392  0.00  0.00    +0.149 C 
ATOM      3  C   UNL     1      38.082 -23.732 -15.554  0.00  0.00    +0.014 C 
ATOM      4  C   UNL     1      36.147 -23.620 -13.546  0.00  0.00    +0.025 C 
ATOM      5  C   UNL     1      36.963 -22.913 -15.707  0.00  0.00    +0.022 C 
ATOM      6  C   UNL     1      35.996 -22.857 -14.704  0.00  0.00    +0.008 C 
ENDROOT
BRANCH   2   9
ATOM      7  O   UNL     1      37.035 -26.408 -12.213  0.00  0.00    -0.126 OA
ATOM      8  O   UNL     1      37.869 -24.661 -11.177  0.00  0.00    -0.126 OA
ATOM      9  N   UNL     1      37.397 -25.208 -12.202  0.00  0.00    +0.058 N 
ENDBRANCH   2   9
BRANCH   5  10
ATOM     10  S   UNL     1      36.769 -21.937 -17.186  0.00  0.00    -0.141 S 
ATOM     11  H   UNL     1      37.794 -22.198 -18.040  0.00  0.00    +0.107 HD
ENDBRANCH   5  10
BRANCH   1  13
ATOM     12  O   UNL     1      40.531 -24.925 -13.969  0.00  0.00    -0.245 OA
ATOM     13  C   UNL     1      39.415 -25.340 -14.270  0.00  0.00    +0.340 C 
BRANCH  13  14
ATOM     14  O   UNL     1      39.186 -26.659 -14.518  0.00  0.00    -0.477 OA
ATOM     15  H   UNL     1      38.680 -26.915 -15.264  0.00  0.00    +0.295 HD
ENDBRANCH  13  14
ENDBRANCH   1  13
TORSDOF 4
ENDMDL
MODEL 2
REMARK VINA RESULT:      -6.4      1.928      2.539
REMARK  Name = 123648
REMARK  4 active torsions:
REMARK  status: ('A' for Active; 'I' for Inactive)
REMARK    1  A    between atoms: C_1  and  C_13
REMARK    2  A    between atoms: C_2  and  N_9
REMARK    3  A    between atoms: C_5  and  S_10
REMARK    4  A    between atoms: C_13  and  O_14
REMARK                            x       y       z     vdW  Elec       q    Type
REMARK                         _______ _______ _______ _____ _____    ______ ____
ROOT
ATOM      1  C   UNL     1      37.139 -23.454 -13.095  0.00  0.00    +0.098 C 
ATOM      2  C   UNL     1      36.328 -24.588 -13.078  0.00  0.00    +0.149 C 
ATOM      3  C   UNL     1      37.247 -22.690 -14.257  0.00  0.00    +0.014 C 
ATOM      4  C   UNL     1      35.624 -24.959 -14.225  0.00  0.00    +0.025 C 
ATOM      5  C   UNL     1      36.544 -23.061 -15.403  0.00  0.00    +0.022 C 
ATOM      6  C   UNL     1      35.733 -24.195 -15.387  0.00  0.00    +0.008 C 
ENDROOT
BRANCH   2   9
ATOM      7  O   UNL     1      35.382 -25.036 -11.023  0.00  0.00    -0.126 OA
ATOM      8  O   UNL     1      36.909 -26.412 -11.793  0.00  0.00    -0.126 OA
ATOM      9  N   UNL     1      36.200 -25.385 -11.907  0.00  0.00    +0.058 N 
ENDBRANCH   2   9
BRANCH   5  10
ATOM     10  S   UNL     1      36.682 -22.086 -16.888  0.00  0.00    -0.141 S 
ATOM     11  H   UNL     1      37.862 -22.362 -17.505  0.00  0.00    +0.107 HD
ENDBRANCH   5  10
BRANCH   1  13
ATOM     12  O   UNL     1      39.080 -23.273 -11.736  0.00  0.00    -0.245 OA
ATOM     13  C   UNL     1      37.889 -23.036 -11.916  0.00  0.00    +0.340 C 
BRANCH  13  14
ATOM     14  O   UNL     1      37.152 -22.343 -11.003  0.00  0.00    -0.477 OA
ATOM     15  H   UNL     1      37.565 -21.712 -10.449  0.00  0.00    +0.295 HD
ENDBRANCH  13  14
ENDBRANCH   1  13
TORSDOF 4
ENDMDL
MODEL 3
REMARK VINA RESULT:      -6.1     11.100     12.041
REMARK  Name = 123648
REMARK  4 active torsions:
REMARK  status: ('A' for Active; 'I' for Inactive)
REMARK    1  A    between atoms: C_1  and  C_13
REMARK    2  A    between atoms: C_2  and  N_9
REMARK    3  A    between atoms: C_5  and  S_10
REMARK    4  A    between atoms: C_13  and  O_14
REMARK                            x       y       z     vdW  Elec       q    Type
REMARK                         _______ _______ _______ _____ _____    ______ ____
ROOT
ATOM      1  C   UNL     1      34.613 -16.719 -23.088  0.00  0.00    +0.098 C 
ATOM      2  C   UNL     1      34.476 -16.838 -21.705  0.00  0.00    +0.149 C 
ATOM      3  C   UNL     1      34.383 -15.491 -23.709  0.00  0.00    +0.014 C 
ATOM      4  C   UNL     1      34.109 -15.729 -20.942  0.00  0.00    +0.025 C 
ATOM      5  C   UNL     1      34.016 -14.382 -22.946  0.00  0.00    +0.022 C 
ATOM      6  C   UNL     1      33.879 -14.501 -21.563  0.00  0.00    +0.008 C 
ENDROOT
BRANCH   2   9
ATOM      7  O   UNL     1      33.762 -18.900 -20.957  0.00  0.00    -0.126 OA
ATOM      8  O   UNL     1      35.843 -18.314 -20.578  0.00  0.00    -0.126 OA
ATOM      9  N   UNL     1      34.705 -18.079 -21.048  0.00  0.00    +0.058 N 
ENDBRANCH   2   9
BRANCH   5  10
ATOM     10  S   UNL     1      33.722 -12.813 -23.738  0.00  0.00    -0.141 S 
ATOM     11  H   UNL     1      34.863 -12.391 -24.346  0.00  0.00    +0.107 HD
ENDBRANCH   5  10
BRANCH   1  13
ATOM     12  O   UNL     1      34.323 -18.285 -24.852  0.00  0.00    -0.245 OA
ATOM     13  C   UNL     1      34.995 -17.856 -23.918  0.00  0.00    +0.340 C 
BRANCH  13  14
ATOM     14  O   UNL     1      36.183 -18.424 -23.571  0.00  0.00    -0.477 OA
ATOM     15  H   UNL     1      36.910 -17.883 -23.335  0.00  0.00    +0.295 HD
ENDBRANCH  13  14
ENDBRANCH   1  13
TORSDOF 4
ENDMDL
MODEL 4
REMARK VINA RESULT:      -6.1      1.617      1.832
REMARK  Name = 123648
REMARK  4 active torsions:
REMARK  status: ('A' for Active; 'I' for Inactive)
REMARK    1  A    between atoms: C_1  and  C_13
REMARK    2  A    between atoms: C_2  and  N_9
REMARK    3  A    between atoms: C_5  and  S_10
REMARK    4  A    between atoms: C_13  and  O_14
REMARK                            x       y       z     vdW  Elec       q    Type
REMARK                         _______ _______ _______ _____ _____    ______ ____
ROOT
ATOM      1  C   UNL     1      36.707 -24.708 -14.419  0.00  0.00    +0.098 C 
ATOM      2  C   UNL     1      36.200 -24.790 -13.123  0.00  0.00    +0.149 C 
ATOM      3  C   UNL     1      35.895 -24.252 -15.458  0.00  0.00    +0.014 C 
ATOM      4  C   UNL     1      34.881 -24.415 -12.864  0.00  0.00    +0.025 C 
ATOM      5  C   UNL     1      34.577 -23.877 -15.199  0.00  0.00    +0.022 C 
ATOM      6  C   UNL     1      34.070 -23.959 -13.903  0.00  0.00    +0.008 C 
ENDROOT
BRANCH   2   9
ATOM      7  O   UNL     1      37.064 -26.483 -11.816  0.00  0.00    -0.126 OA
ATOM      8  O   UNL     1      37.636 -24.414 -11.357  0.00  0.00    -0.126 OA
ATOM      9  N   UNL     1      37.007 -25.253 -12.045  0.00  0.00    +0.058 N 
ENDBRANCH   2   9
BRANCH   5  10
ATOM     10  S   UNL     1      33.540 -23.294 -16.525  0.00  0.00    -0.141 S 
ATOM     11  H   UNL     1      32.233 -23.423 -16.170  0.00  0.00    +0.107 HD
ENDBRANCH   5  10
BRANCH   1  13
ATOM     12  O   UNL     1      39.063 -24.405 -14.467  0.00  0.00    -0.245 OA
ATOM     13  C   UNL     1      38.080 -25.092 -14.727  0.00  0.00    +0.340 C 
BRANCH  13  14
ATOM     14  O   UNL     1      38.195 -26.302 -15.342  0.00  0.00    -0.477 OA
ATOM     15  H   UNL     1      37.427 -26.768 -15.608  0.00  0.00    +0.295 HD
ENDBRANCH  13  14
ENDBRANCH   1  13
TORSDOF 4
ENDMDL
MODEL 5
REMARK VINA RESULT:      -6.1      2.175      3.609
REMARK  Name = 123648
REMARK  4 active torsions:
REMARK  status: ('A' for Active; 'I' for Inactive)
REMARK    1  A    between atoms: C_1  and  C_13
REMARK    2  A    between atoms: C_2  and  N_9
REMARK    3  A    between atoms: C_5  and  S_10
REMARK    4  A    between atoms: C_13  and  O_14
REMARK                            x       y       z     vdW  Elec       q    Type
REMARK                         _______ _______ _______ _____ _____    ______ ____
ROOT
ATOM      1  C   UNL     1      35.720 -24.356 -12.561  0.00  0.00    +0.098 C 
ATOM      2  C   UNL     1      36.781 -24.639 -13.421  0.00  0.00    +0.149 C 
ATOM      3  C   UNL     1      34.472 -24.013 -13.082  0.00  0.00    +0.014 C 
ATOM      4  C   UNL     1      36.593 -24.581 -14.803  0.00  0.00    +0.025 C 
ATOM      5  C   UNL     1      34.285 -23.956 -14.463  0.00  0.00    +0.022 C 
ATOM      6  C   UNL     1      35.345 -24.239 -15.323  0.00  0.00    +0.008 C 
ENDROOT
BRANCH   2   9
ATOM      7  O   UNL     1      38.362 -26.203 -12.811  0.00  0.00    -0.126 OA
ATOM      8  O   UNL     1      38.858 -24.076 -12.593  0.00  0.00    -0.126 OA
ATOM      9  N   UNL     1      38.064 -24.990 -12.917  0.00  0.00    +0.058 N 
ENDBRANCH   2   9
BRANCH   5  10
ATOM     10  S   UNL     1      32.691 -23.518 -15.129  0.00  0.00    -0.141 S 
ATOM     11  H   UNL     1      32.856 -22.872 -16.314  0.00  0.00    +0.107 HD
ENDBRANCH   5  10
BRANCH   1  13
ATOM     12  O   UNL     1      35.307 -25.211 -10.383  0.00  0.00    -0.245 OA
ATOM     13  C   UNL     1      35.879 -24.406 -11.112  0.00  0.00    +0.340 C 
BRANCH  13  14
ATOM     14  O   UNL     1      36.732 -23.469 -10.613  0.00  0.00    -0.477 OA
ATOM     15  H   UNL     1      37.617 -23.700 -10.412  0.00  0.00    +0.295 HD
ENDBRANCH  13  14
ENDBRANCH   1  13
TORSDOF 4
ENDMDL
MODEL 6
REMARK VINA RESULT:      -6.1      1.879      2.995
REMARK  Name = 123648
REMARK  4 active torsions:
REMARK  status: ('A' for Active; 'I' for Inactive)
REMARK    1  A    between atoms: C_1  and  C_13
REMARK    2  A    between atoms: C_2  and  N_9
REMARK    3  A    between atoms: C_5  and  S_10
REMARK    4  A    between atoms: C_13  and  O_14
REMARK                            x       y       z     vdW  Elec       q    Type
REMARK                         _______ _______ _______ _____ _____    ______ ____
ROOT
ATOM      1  C   UNL     1      37.134 -25.420 -14.708  0.00  0.00    +0.098 C 
ATOM      2  C   UNL     1      38.213 -24.590 -15.010  0.00  0.00    +0.149 C 
ATOM      3  C   UNL     1      35.834 -25.010 -15.003  0.00  0.00    +0.014 C 
ATOM      4  C   UNL     1      37.992 -23.349 -15.609  0.00  0.00    +0.025 C 
ATOM      5  C   UNL     1      35.614 -23.770 -15.602  0.00  0.00    +0.022 C 
ATOM      6  C   UNL     1      36.692 -22.939 -15.905  0.00  0.00    +0.008 C 
ENDROOT
BRANCH   2   9
ATOM      7  O   UNL     1      40.032 -24.704 -13.597  0.00  0.00    -0.126 OA
ATOM      8  O   UNL     1      40.203 -25.598 -15.594  0.00  0.00    -0.126 OA
ATOM      9  N   UNL     1      39.549 -24.983 -14.719  0.00  0.00    +0.058 N 
ENDBRANCH   2   9
BRANCH   5  10
ATOM     10  S   UNL     1      33.953 -23.245 -15.980  0.00  0.00    -0.141 S 
ATOM     11  H   UNL     1      33.564 -23.788 -17.165  0.00  0.00    +0.107 HD
ENDBRANCH   5  10
BRANCH   1  13
ATOM     12  O   UNL     1      37.824 -27.693 -14.645  0.00  0.00    -0.245 OA
ATOM     13  C   UNL     1      37.327 -26.723 -14.081  0.00  0.00    +0.340 C 
BRANCH  13  14
ATOM     14  O   UNL     1      36.902 -26.787 -12.788  0.00  0.00    -0.477 OA
ATOM     15  H   UNL     1      36.179 -26.264 -12.506  0.00  0.00    +0.295 HD
ENDBRANCH  13  14
ENDBRANCH   1  13
TORSDOF 4
ENDMDL
MODEL 7
REMARK VINA RESULT:      -6.1     13.453     14.578
REMARK  Name = 123648
REMARK  4 active torsions:
REMARK  status: ('A' for Active; 'I' for Inactive)
REMARK    1  A    between atoms: C_1  and  C_13
REMARK    2  A    between atoms: C_2  and  N_9
REMARK    3  A    between atoms: C_5  and  S_10
REMARK    4  A    between atoms: C_13  and  O_14
REMARK                            x       y       z     vdW  Elec       q    Type
REMARK                         _______ _______ _______ _____ _____    ______ ____
ROOT
ATOM      1  C   UNL     1      33.955 -15.446 -23.783  0.00  0.00    +0.098 C 
ATOM      2  C   UNL     1      33.950 -16.069 -25.031  0.00  0.00    +0.149 C 
ATOM      3  C   UNL     1      34.506 -16.098 -22.680  0.00  0.00    +0.014 C 
ATOM      4  C   UNL     1      34.497 -17.344 -25.176  0.00  0.00    +0.025 C 
ATOM      5  C   UNL     1      35.052 -17.373 -22.825  0.00  0.00    +0.022 C 
ATOM      6  C   UNL     1      35.047 -17.996 -24.073  0.00  0.00    +0.008 C 
ENDROOT
BRANCH   2   9
ATOM      7  O   UNL     1      32.377 -15.921 -26.712  0.00  0.00    -0.126 OA
ATOM      8  O   UNL     1      33.939 -14.382 -26.605  0.00  0.00    -0.126 OA
ATOM      9  N   UNL     1      33.394 -15.426 -26.172  0.00  0.00    +0.058 N 
ENDBRANCH   2   9
BRANCH   5  10
ATOM     10  S   UNL     1      35.756 -18.206 -21.416  0.00  0.00    -0.141 S 
ATOM     11  H   UNL     1      34.977 -19.270 -21.082  0.00  0.00    +0.107 HD
ENDBRANCH   5  10
BRANCH   1  13
ATOM     12  O   UNL     1      32.237 -13.896 -23.243  0.00  0.00    -0.245 OA
ATOM     13  C   UNL     1      33.393 -14.114 -23.594  0.00  0.00    +0.340 C 
BRANCH  13  14
ATOM     14  O   UNL     1      34.267 -13.099 -23.841  0.00  0.00    -0.477 OA
ATOM     15  H   UNL     1      34.171 -12.279 -23.399  0.00  0.00    +0.295 HD
ENDBRANCH  13  14
ENDBRANCH   1  13
TORSDOF 4
ENDMDL
MODEL 8
REMARK VINA RESULT:      -6.1     11.379     12.472
REMARK  Name = 123648
REMARK  4 active torsions:
REMARK  status: ('A' for Active; 'I' for Inactive)
REMARK    1  A    between atoms: C_1  and  C_13
REMARK    2  A    between atoms: C_2  and  N_9
REMARK    3  A    between atoms: C_5  and  S_10
REMARK    4  A    between atoms: C_13  and  O_14
REMARK                            x       y       z     vdW  Elec       q    Type
REMARK                         _______ _______ _______ _____ _____    ______ ____
ROOT
ATOM      1  C   UNL     1      34.174 -16.110 -22.542  0.00  0.00    +0.098 C 
ATOM      2  C   UNL     1      34.761 -17.343 -22.822  0.00  0.00    +0.149 C 
ATOM      3  C   UNL     1      33.705 -15.307 -23.582  0.00  0.00    +0.014 C 
ATOM      4  C   UNL     1      34.879 -17.775 -24.144  0.00  0.00    +0.025 C 
ATOM      5  C   UNL     1      33.823 -15.739 -24.903  0.00  0.00    +0.022 C 
ATOM      6  C   UNL     1      34.410 -16.972 -25.184  0.00  0.00    +0.008 C 
ENDROOT
BRANCH   2   9
ATOM      7  O   UNL     1      36.483 -18.372 -21.683  0.00  0.00    -0.126 OA
ATOM      8  O   UNL     1      34.426 -18.703 -20.990  0.00  0.00    -0.126 OA
ATOM      9  N   UNL     1      35.248 -18.181 -21.781  0.00  0.00    +0.058 N 
ENDBRANCH   2   9
BRANCH   5  10
ATOM     10  S   UNL     1      33.224 -14.714 -26.232  0.00  0.00    -0.141 S 
ATOM     11  H   UNL     1      34.267 -14.049 -26.798  0.00  0.00    +0.107 HD
ENDBRANCH   5  10
BRANCH   1  13
ATOM     12  O   UNL     1      34.905 -15.008 -20.567  0.00  0.00    -0.245 OA
ATOM     13  C   UNL     1      34.034 -15.626 -21.173  0.00  0.00    +0.340 C 
BRANCH  13  14
ATOM     14  O   UNL     1      32.833 -15.916 -20.599  0.00  0.00    -0.477 OA
ATOM     15  H   UNL     1      32.372 -16.693 -20.847  0.00  0.00    +0.295 HD
ENDBRANCH  13  14
ENDBRANCH   1  13
TORSDOF 4
ENDMDL
MODEL 9
REMARK VINA RESULT:      -6.0     11.897     12.842
REMARK  Name = 123648
REMARK  4 active torsions:
REMARK  status: ('A' for Active; 'I' for Inactive)
REMARK    1  A    between atoms: C_1  and  C_13
REMARK    2  A    between atoms: C_2  and  N_9
REMARK    3  A    between atoms: C_5  and  S_10
REMARK    4  A    between atoms: C_13  and  O_14
REMARK                            x       y       z     vdW  Elec       q    Type
REMARK                         _______ _______ _______ _____ _____    ______ ____
ROOT
ATOM      1  C   UNL     1      33.820 -15.360 -22.674  0.00  0.00    +0.098 C 
ATOM      2  C   UNL     1      33.741 -15.889 -21.386  0.00  0.00    +0.149 C 
ATOM      3  C   UNL     1      33.238 -14.124 -22.958  0.00  0.00    +0.014 C 
ATOM      4  C   UNL     1      33.080 -15.182 -20.381  0.00  0.00    +0.025 C 
ATOM      5  C   UNL     1      32.577 -13.418 -21.953  0.00  0.00    +0.022 C 
ATOM      6  C   UNL     1      32.497 -13.947 -20.665  0.00  0.00    +0.008 C 
ENDROOT
BRANCH   2   9
ATOM      7  O   UNL     1      33.659 -18.190 -21.261  0.00  0.00    -0.126 OA
ATOM      8  O   UNL     1      35.493 -17.173 -20.610  0.00  0.00    -0.126 OA
ATOM      9  N   UNL     1      34.326 -17.147 -21.070  0.00  0.00    +0.058 N 
ENDBRANCH   2   9
BRANCH   5  10
ATOM     10  S   UNL     1      31.833 -11.840 -22.314  0.00  0.00    -0.141 S 
ATOM     11  H   UNL     1      30.670 -12.031 -22.993  0.00  0.00    +0.107 HD
ENDBRANCH   5  10
BRANCH   1  13
ATOM     12  O   UNL     1      33.943 -16.515 -24.747  0.00  0.00    -0.245 OA
ATOM     13  C   UNL     1      34.503 -16.069 -23.750  0.00  0.00    +0.340 C 
BRANCH  13  14
ATOM     14  O   UNL     1      35.845 -16.207 -23.562  0.00  0.00    -0.477 OA
ATOM     15  H   UNL     1      36.441 -15.951 -24.238  0.00  0.00    +0.295 HD
ENDBRANCH  13  14
ENDBRANCH   1  13
TORSDOF 4
ENDMDL
