MODEL 1
REMARK VINA RESULT:      -7.0      0.000      0.000
REMARK  Name = 564920
REMARK  3 active torsions:
REMARK  status: ('A' for Active; 'I' for Inactive)
REMARK    1  A    between atoms: O_1  and  C_2
REMARK    2  A    between atoms: O_1  and  S_8
REMARK    3  A    between atoms: S_8  and  C_11
REMARK                            x       y       z     vdW  Elec       q    Type
REMARK                         _______ _______ _______ _____ _____    ______ ____
ROOT
ATOM      1  O   UNL     1      34.274 -17.993 -22.078  0.00  0.00    -0.357 OA
ENDROOT
BRANCH   1   2
ATOM      2  C   UNL     1      34.322 -19.092 -21.277  0.00  0.00    +0.172 C 
ATOM      3  C   UNL     1      35.549 -19.679 -20.969  0.00  0.00    +0.040 C 
ATOM      4  C   UNL     1      33.142 -19.632 -20.764  0.00  0.00    +0.040 C 
ATOM      5  C   UNL     1      35.596 -20.806 -20.149  0.00  0.00    +0.003 C 
ATOM      6  C   UNL     1      33.189 -20.758 -19.943  0.00  0.00    +0.003 C 
ATOM      7  C   UNL     1      34.417 -21.346 -19.636  0.00  0.00    +0.000 C 
ENDBRANCH   1   2
BRANCH   1   8
ATOM      8  S   UNL     1      34.615 -16.478 -21.550  0.00  0.00    +0.052 S 
ATOM      9  O   UNL     1      35.191 -15.720 -22.646  0.00  0.00    -0.057 OA
ATOM     10  O   UNL     1      35.283 -16.571 -20.267  0.00  0.00    -0.057 OA
BRANCH   8  11
ATOM     11  C   UNL     1      32.998 -15.921 -21.292  0.00  0.00    +0.139 C 
ATOM     12  C   UNL     1      32.827 -14.871 -20.486  0.00  0.00    +0.023 C 
ENDBRANCH   8  11
ENDBRANCH   1   8
TORSDOF 3
ENDMDL
MODEL 2
REMARK VINA RESULT:      -6.9      1.355      2.221
REMARK  Name = 564920
REMARK  3 active torsions:
REMARK  status: ('A' for Active; 'I' for Inactive)
REMARK    1  A    between atoms: O_1  and  C_2
REMARK    2  A    between atoms: O_1  and  S_8
REMARK    3  A    between atoms: S_8  and  C_11
REMARK                            x       y       z     vdW  Elec       q    Type
REMARK                         _______ _______ _______ _____ _____    ______ ____
ROOT
ATOM      1  O   UNL     1      34.269 -18.023 -21.925  0.00  0.00    -0.357 OA
ENDROOT
BRANCH   1   2
ATOM      2  C   UNL     1      34.299 -19.148 -21.160  0.00  0.00    +0.172 C 
ATOM      3  C   UNL     1      33.111 -19.698 -20.678  0.00  0.00    +0.040 C 
ATOM      4  C   UNL     1      35.520 -19.753 -20.859  0.00  0.00    +0.040 C 
ATOM      5  C   UNL     1      33.144 -20.850 -19.893  0.00  0.00    +0.003 C 
ATOM      6  C   UNL     1      35.552 -20.907 -20.075  0.00  0.00    +0.003 C 
ATOM      7  C   UNL     1      34.363 -21.455 -19.592  0.00  0.00    +0.000 C 
ENDBRANCH   1   2
BRANCH   1   8
ATOM      8  S   UNL     1      34.185 -16.510 -21.299  0.00  0.00    +0.052 S 
ATOM      9  O   UNL     1      35.189 -16.378 -20.259  0.00  0.00    -0.057 OA
ATOM     10  O   UNL     1      32.795 -16.186 -21.048  0.00  0.00    -0.057 OA
BRANCH   8  11
ATOM     11  C   UNL     1      34.717 -15.623 -22.686  0.00  0.00    +0.139 C 
ATOM     12  C   UNL     1      34.879 -16.298 -23.827  0.00  0.00    +0.023 C 
ENDBRANCH   8  11
ENDBRANCH   1   8
TORSDOF 3
ENDMDL
MODEL 3
REMARK VINA RESULT:      -6.7      1.628      2.382
REMARK  Name = 564920
REMARK  3 active torsions:
REMARK  status: ('A' for Active; 'I' for Inactive)
REMARK    1  A    between atoms: O_1  and  C_2
REMARK    2  A    between atoms: O_1  and  S_8
REMARK    3  A    between atoms: S_8  and  C_11
REMARK                            x       y       z     vdW  Elec       q    Type
REMARK                         _______ _______ _______ _____ _____    ______ ____
ROOT
ATOM      1  O   UNL     1      34.256 -18.909 -21.714  0.00  0.00    -0.357 OA
ENDROOT
BRANCH   1   2
ATOM      2  C   UNL     1      34.319 -19.942 -20.831  0.00  0.00    +0.172 C 
ATOM      3  C   UNL     1      33.152 -20.434 -20.247  0.00  0.00    +0.040 C 
ATOM      4  C   UNL     1      35.552 -20.512 -20.511  0.00  0.00    +0.040 C 
ATOM      5  C   UNL     1      33.217 -21.493 -19.342  0.00  0.00    +0.003 C 
ATOM      6  C   UNL     1      35.617 -21.571 -19.607  0.00  0.00    +0.003 C 
ATOM      7  C   UNL     1      34.449 -22.062 -19.022  0.00  0.00    +0.000 C 
ENDBRANCH   1   2
BRANCH   1   8
ATOM      8  S   UNL     1      35.359 -17.696 -21.761  0.00  0.00    +0.052 S 
ATOM      9  O   UNL     1      36.587 -18.203 -22.344  0.00  0.00    -0.057 OA
ATOM     10  O   UNL     1      35.359 -17.016 -20.480  0.00  0.00    -0.057 OA
BRANCH   8  11
ATOM     11  C   UNL     1      34.580 -16.679 -22.925  0.00  0.00    +0.139 C 
ATOM     12  C   UNL     1      34.815 -16.925 -24.216  0.00  0.00    +0.023 C 
ENDBRANCH   8  11
ENDBRANCH   1   8
TORSDOF 3
ENDMDL
MODEL 4
REMARK VINA RESULT:      -6.4      1.792      4.892
REMARK  Name = 564920
REMARK  3 active torsions:
REMARK  status: ('A' for Active; 'I' for Inactive)
REMARK    1  A    between atoms: O_1  and  C_2
REMARK    2  A    between atoms: O_1  and  S_8
REMARK    3  A    between atoms: S_8  and  C_11
REMARK                            x       y       z     vdW  Elec       q    Type
REMARK                         _______ _______ _______ _____ _____    ______ ____
ROOT
ATOM      1  O   UNL     1      35.256 -17.049 -20.700  0.00  0.00    -0.357 OA
ENDROOT
BRANCH   1   2
ATOM      2  C   UNL     1      34.479 -16.140 -21.349  0.00  0.00    +0.172 C 
ATOM      3  C   UNL     1      33.328 -15.641 -20.739  0.00  0.00    +0.040 C 
ATOM      4  C   UNL     1      34.834 -15.707 -22.627  0.00  0.00    +0.040 C 
ATOM      5  C   UNL     1      32.533 -14.710 -21.407  0.00  0.00    +0.003 C 
ATOM      6  C   UNL     1      34.039 -14.775 -23.294  0.00  0.00    +0.003 C 
ATOM      7  C   UNL     1      32.888 -14.277 -22.683  0.00  0.00    +0.000 C 
ENDBRANCH   1   2
BRANCH   1   8
ATOM      8  S   UNL     1      35.561 -18.552 -21.279  0.00  0.00    +0.052 S 
ATOM      9  O   UNL     1      36.268 -19.310 -20.263  0.00  0.00    -0.057 OA
ATOM     10  O   UNL     1      36.080 -18.435 -22.628  0.00  0.00    -0.057 OA
BRANCH   8  11
ATOM     11  C   UNL     1      33.934 -19.136 -21.363  0.00  0.00    +0.139 C 
ATOM     12  C   UNL     1      33.592 -20.132 -20.543  0.00  0.00    +0.023 C 
ENDBRANCH   8  11
ENDBRANCH   1   8
TORSDOF 3
ENDMDL
MODEL 5
REMARK VINA RESULT:      -6.3      7.505      8.717
REMARK  Name = 564920
REMARK  3 active torsions:
REMARK  status: ('A' for Active; 'I' for Inactive)
REMARK    1  A    between atoms: O_1  and  C_2
REMARK    2  A    between atoms: O_1  and  S_8
REMARK    3  A    between atoms: S_8  and  C_11
REMARK                            x       y       z     vdW  Elec       q    Type
REMARK                         _______ _______ _______ _____ _____    ______ ____
ROOT
ATOM      1  O   UNL     1      29.717 -22.490 -17.007  0.00  0.00    -0.357 OA
ENDROOT
BRANCH   1   2
ATOM      2  C   UNL     1      30.848 -22.783 -16.310  0.00  0.00    +0.172 C 
ATOM      3  C   UNL     1      30.829 -22.787 -14.916  0.00  0.00    +0.040 C 
ATOM      4  C   UNL     1      32.029 -23.082 -16.992  0.00  0.00    +0.040 C 
ATOM      5  C   UNL     1      31.989 -23.087 -14.202  0.00  0.00    +0.003 C 
ATOM      6  C   UNL     1      33.188 -23.383 -16.279  0.00  0.00    +0.003 C 
ATOM      7  C   UNL     1      33.168 -23.385 -14.883  0.00  0.00    +0.000 C 
ENDBRANCH   1   2
BRANCH   1   8
ATOM      8  S   UNL     1      28.323 -23.342 -16.865  0.00  0.00    +0.052 S 
ATOM      9  O   UNL     1      28.619 -24.623 -16.250  0.00  0.00    -0.057 OA
ATOM     10  O   UNL     1      27.596 -23.259 -18.117  0.00  0.00    -0.057 OA
BRANCH   8  11
ATOM     11  C   UNL     1      27.526 -22.346 -15.696  0.00  0.00    +0.139 C 
ATOM     12  C   UNL     1      26.276 -21.960 -15.963  0.00  0.00    +0.023 C 
ENDBRANCH   8  11
ENDBRANCH   1   8
TORSDOF 3
ENDMDL
MODEL 6
REMARK VINA RESULT:      -6.3      2.819      3.614
REMARK  Name = 564920
REMARK  3 active torsions:
REMARK  status: ('A' for Active; 'I' for Inactive)
REMARK    1  A    between atoms: O_1  and  C_2
REMARK    2  A    between atoms: O_1  and  S_8
REMARK    3  A    between atoms: S_8  and  C_11
REMARK                            x       y       z     vdW  Elec       q    Type
REMARK                         _______ _______ _______ _____ _____    ______ ____
ROOT
ATOM      1  O   UNL     1      35.101 -15.420 -23.310  0.00  0.00    -0.357 OA
ENDROOT
BRANCH   1   2
ATOM      2  C   UNL     1      35.039 -16.724 -22.926  0.00  0.00    +0.172 C 
ATOM      3  C   UNL     1      35.008 -17.734 -23.888  0.00  0.00    +0.040 C 
ATOM      4  C   UNL     1      35.007 -17.050 -21.570  0.00  0.00    +0.040 C 
ATOM      5  C   UNL     1      34.944 -19.070 -23.493  0.00  0.00    +0.003 C 
ATOM      6  C   UNL     1      34.944 -18.387 -21.176  0.00  0.00    +0.003 C 
ATOM      7  C   UNL     1      34.912 -19.397 -22.139  0.00  0.00    +0.000 C 
ENDBRANCH   1   2
BRANCH   1   8
ATOM      8  S   UNL     1      33.774 -14.505 -23.611  0.00  0.00    +0.052 S 
ATOM      9  O   UNL     1      34.181 -13.118 -23.739  0.00  0.00    -0.057 OA
ATOM     10  O   UNL     1      32.720 -14.898 -22.696  0.00  0.00    -0.057 OA
BRANCH   8  11
ATOM     11  C   UNL     1      33.391 -15.109 -25.186  0.00  0.00    +0.139 C 
ATOM     12  C   UNL     1      32.845 -14.259 -26.059  0.00  0.00    +0.023 C 
ENDBRANCH   8  11
ENDBRANCH   1   8
TORSDOF 3
ENDMDL
MODEL 7
REMARK VINA RESULT:      -6.3      2.427      3.296
REMARK  Name = 564920
REMARK  3 active torsions:
REMARK  status: ('A' for Active; 'I' for Inactive)
REMARK    1  A    between atoms: O_1  and  C_2
REMARK    2  A    between atoms: O_1  and  S_8
REMARK    3  A    between atoms: S_8  and  C_11
REMARK                            x       y       z     vdW  Elec       q    Type
REMARK                         _______ _______ _______ _____ _____    ______ ____
ROOT
ATOM      1  O   UNL     1      35.073 -15.281 -23.190  0.00  0.00    -0.357 OA
ENDROOT
BRANCH   1   2
ATOM      2  C   UNL     1      35.012 -16.611 -22.908  0.00  0.00    +0.172 C 
ATOM      3  C   UNL     1      35.021 -17.045 -21.583  0.00  0.00    +0.040 C 
ATOM      4  C   UNL     1      34.940 -17.540 -23.946  0.00  0.00    +0.040 C 
ATOM      5  C   UNL     1      34.960 -18.408 -21.295  0.00  0.00    +0.003 C 
ATOM      6  C   UNL     1      34.877 -18.904 -23.659  0.00  0.00    +0.003 C 
ATOM      7  C   UNL     1      34.888 -19.337 -22.332  0.00  0.00    +0.000 C 
ENDBRANCH   1   2
BRANCH   1   8
ATOM      8  S   UNL     1      33.764 -14.389 -23.615  0.00  0.00    +0.052 S 
ATOM      9  O   UNL     1      33.188 -14.950 -24.823  0.00  0.00    -0.057 OA
ATOM     10  O   UNL     1      34.110 -12.983 -23.530  0.00  0.00    -0.057 OA
BRANCH   8  11
ATOM     11  C   UNL     1      32.733 -14.785 -22.283  0.00  0.00    +0.139 C 
ATOM     12  C   UNL     1      32.681 -13.924 -21.264  0.00  0.00    +0.023 C 
ENDBRANCH   8  11
ENDBRANCH   1   8
TORSDOF 3
ENDMDL
MODEL 8
REMARK VINA RESULT:      -6.3      2.419      3.271
REMARK  Name = 564920
REMARK  3 active torsions:
REMARK  status: ('A' for Active; 'I' for Inactive)
REMARK    1  A    between atoms: O_1  and  C_2
REMARK    2  A    between atoms: O_1  and  S_8
REMARK    3  A    between atoms: S_8  and  C_11
REMARK                            x       y       z     vdW  Elec       q    Type
REMARK                         _______ _______ _______ _____ _____    ______ ____
ROOT
ATOM      1  O   UNL     1      35.074 -15.279 -23.174  0.00  0.00    -0.357 OA
ENDROOT
BRANCH   1   2
ATOM      2  C   UNL     1      35.019 -16.610 -22.895  0.00  0.00    +0.172 C 
ATOM      3  C   UNL     1      34.940 -17.539 -23.932  0.00  0.00    +0.040 C 
ATOM      4  C   UNL     1      35.043 -17.045 -21.569  0.00  0.00    +0.040 C 
ATOM      5  C   UNL     1      34.884 -18.902 -23.644  0.00  0.00    +0.003 C 
ATOM      6  C   UNL     1      34.987 -18.408 -21.282  0.00  0.00    +0.003 C 
ATOM      7  C   UNL     1      34.907 -19.337 -22.320  0.00  0.00    +0.000 C 
ENDBRANCH   1   2
BRANCH   1   8
ATOM      8  S   UNL     1      33.760 -14.391 -23.593  0.00  0.00    +0.052 S 
ATOM      9  O   UNL     1      33.185 -14.950 -24.803  0.00  0.00    -0.057 OA
ATOM     10  O   UNL     1      34.100 -12.985 -23.502  0.00  0.00    -0.057 OA
BRANCH   8  11
ATOM     11  C   UNL     1      32.733 -14.798 -22.262  0.00  0.00    +0.139 C 
ATOM     12  C   UNL     1      32.712 -13.965 -21.219  0.00  0.00    +0.023 C 
ENDBRANCH   8  11
ENDBRANCH   1   8
TORSDOF 3
ENDMDL
MODEL 9
REMARK VINA RESULT:      -6.2      4.077      5.987
REMARK  Name = 564920
REMARK  3 active torsions:
REMARK  status: ('A' for Active; 'I' for Inactive)
REMARK    1  A    between atoms: O_1  and  C_2
REMARK    2  A    between atoms: O_1  and  S_8
REMARK    3  A    between atoms: S_8  and  C_11
REMARK                            x       y       z     vdW  Elec       q    Type
REMARK                         _______ _______ _______ _____ _____    ______ ____
ROOT
ATOM      1  O   UNL     1      34.761 -21.803 -18.653  0.00  0.00    -0.357 OA
ENDROOT
BRANCH   1   2
ATOM      2  C   UNL     1      34.641 -20.929 -19.689  0.00  0.00    +0.172 C 
ATOM      3  C   UNL     1      33.377 -20.532 -20.126  0.00  0.00    +0.040 C 
ATOM      4  C   UNL     1      35.784 -20.429 -20.314  0.00  0.00    +0.040 C 
ATOM      5  C   UNL     1      33.256 -19.637 -21.188  0.00  0.00    +0.003 C 
ATOM      6  C   UNL     1      35.663 -19.533 -21.375  0.00  0.00    +0.003 C 
ATOM      7  C   UNL     1      34.398 -19.137 -21.813  0.00  0.00    +0.000 C 
ENDBRANCH   1   2
BRANCH   1   8
ATOM      8  S   UNL     1      33.642 -22.952 -18.309  0.00  0.00    +0.052 S 
ATOM      9  O   UNL     1      33.852 -24.086 -19.190  0.00  0.00    -0.057 OA
ATOM     10  O   UNL     1      32.343 -22.319 -18.194  0.00  0.00    -0.057 OA
BRANCH   8  11
ATOM     11  C   UNL     1      34.188 -23.383 -16.725  0.00  0.00    +0.139 C 
ATOM     12  C   UNL     1      33.284 -23.398 -15.742  0.00  0.00    +0.023 C 
ENDBRANCH   8  11
ENDBRANCH   1   8
TORSDOF 3
ENDMDL
