MODEL 1
REMARK VINA RESULT:      -5.7      0.000      0.000
REMARK  Name = 8186
REMARK  9 active torsions:
REMARK  status: ('A' for Active; 'I' for Inactive)
REMARK    1  A    between atoms: C_1  and  C_2
REMARK    2  A    between atoms: C_1  and  C_7
REMARK    3  A    between atoms: C_2  and  C_3
REMARK    4  A    between atoms: C_3  and  C_4
REMARK    5  A    between atoms: C_4  and  C_5
REMARK    6  A    between atoms: C_7  and  C_8
REMARK    7  A    between atoms: C_8  and  C_9
REMARK    8  A    between atoms: C_9  and  C_10
REMARK    9  A    between atoms: C_10  and  C_12
REMARK                            x       y       z     vdW  Elec       q    Type
REMARK                         _______ _______ _______ _____ _____    ______ ____
ROOT
ATOM      1  C   UNL     1      36.698 -18.933 -21.135  0.00  0.00    +0.000 C 
ENDROOT
BRANCH   1   2
ATOM      2  C   UNL     1      36.653 -20.092 -20.137  0.00  0.00    +0.000 C 
BRANCH   2   3
ATOM      3  C   UNL     1      35.589 -21.142 -20.474  0.00  0.00    +0.000 C 
BRANCH   3   4
ATOM      4  C   UNL     1      34.916 -21.744 -19.239  0.00  0.00    +0.000 C 
BRANCH   4   5
ATOM      5  C   UNL     1      33.401 -21.545 -19.282  0.00  0.00    +0.000 C 
ATOM      6  C   UNL     1      32.998 -20.567 -20.374  0.00  0.00    +0.000 C 
ENDBRANCH   4   5
ENDBRANCH   3   4
ENDBRANCH   2   3
ENDBRANCH   1   2
BRANCH   1   7
ATOM      7  C   UNL     1      35.454 -18.041 -21.083  0.00  0.00    +0.000 C 
BRANCH   7   8
ATOM      8  C   UNL     1      34.910 -17.676 -22.467  0.00  0.00    +0.000 C 
BRANCH   8   9
ATOM      9  C   UNL     1      34.657 -18.927 -23.309  0.00  0.00    +0.008 C 
BRANCH   9  10
ATOM     10  C   UNL     1      34.492 -18.579 -24.784  0.00  0.00    +0.072 C 
BRANCH  10  12
ATOM     11  O   UNL     1      34.343 -16.498 -25.987  0.00  0.00    -0.288 OA
ATOM     12  C   UNL     1      34.747 -17.111 -25.004  0.00  0.00    +0.207 C 
ENDBRANCH  10  12
ENDBRANCH   9  10
ENDBRANCH   8   9
ENDBRANCH   7   8
ENDBRANCH   1   7
TORSDOF 9
ENDMDL
MODEL 2
REMARK VINA RESULT:      -5.7      3.082      5.449
REMARK  Name = 8186
REMARK  9 active torsions:
REMARK  status: ('A' for Active; 'I' for Inactive)
REMARK    1  A    between atoms: C_1  and  C_2
REMARK    2  A    between atoms: C_1  and  C_7
REMARK    3  A    between atoms: C_2  and  C_3
REMARK    4  A    between atoms: C_3  and  C_4
REMARK    5  A    between atoms: C_4  and  C_5
REMARK    6  A    between atoms: C_7  and  C_8
REMARK    7  A    between atoms: C_8  and  C_9
REMARK    8  A    between atoms: C_9  and  C_10
REMARK    9  A    between atoms: C_10  and  C_12
REMARK                            x       y       z     vdW  Elec       q    Type
REMARK                         _______ _______ _______ _____ _____    ______ ____
ROOT
ATOM      1  C   UNL     1      35.344 -18.662 -23.528  0.00  0.00    +0.000 C 
ENDROOT
BRANCH   1   2
ATOM      2  C   UNL     1      34.999 -17.292 -24.118  0.00  0.00    +0.000 C 
BRANCH   2   3
ATOM      3  C   UNL     1      35.043 -16.160 -23.086  0.00  0.00    +0.000 C 
BRANCH   3   4
ATOM      4  C   UNL     1      33.727 -15.387 -22.975  0.00  0.00    +0.000 C 
BRANCH   4   5
ATOM      5  C   UNL     1      33.317 -15.199 -21.514  0.00  0.00    +0.000 C 
ATOM      6  C   UNL     1      34.477 -15.471 -20.570  0.00  0.00    +0.000 C 
ENDBRANCH   4   5
ENDBRANCH   3   4
ENDBRANCH   2   3
ENDBRANCH   1   2
BRANCH   1   7
ATOM      7  C   UNL     1      35.859 -18.588 -22.086  0.00  0.00    +0.000 C 
BRANCH   7   8
ATOM      8  C   UNL     1      35.064 -19.462 -21.112  0.00  0.00    +0.000 C 
BRANCH   8   9
ATOM      9  C   UNL     1      33.565 -19.178 -21.213  0.00  0.00    +0.008 C 
BRANCH   9  10
ATOM     10  C   UNL     1      32.767 -20.071 -20.269  0.00  0.00    +0.072 C 
BRANCH  10  12
ATOM     11  O   UNL     1      33.115 -22.303 -19.434  0.00  0.00    -0.288 OA
ATOM     12  C   UNL     1      33.599 -21.252 -19.843  0.00  0.00    +0.207 C 
ENDBRANCH  10  12
ENDBRANCH   9  10
ENDBRANCH   8   9
ENDBRANCH   7   8
ENDBRANCH   1   7
TORSDOF 9
ENDMDL
MODEL 3
REMARK VINA RESULT:      -5.7      1.024      2.098
REMARK  Name = 8186
REMARK  9 active torsions:
REMARK  status: ('A' for Active; 'I' for Inactive)
REMARK    1  A    between atoms: C_1  and  C_2
REMARK    2  A    between atoms: C_1  and  C_7
REMARK    3  A    between atoms: C_2  and  C_3
REMARK    4  A    between atoms: C_3  and  C_4
REMARK    5  A    between atoms: C_4  and  C_5
REMARK    6  A    between atoms: C_7  and  C_8
REMARK    7  A    between atoms: C_8  and  C_9
REMARK    8  A    between atoms: C_9  and  C_10
REMARK    9  A    between atoms: C_10  and  C_12
REMARK                            x       y       z     vdW  Elec       q    Type
REMARK                         _______ _______ _______ _____ _____    ______ ____
ROOT
ATOM      1  C   UNL     1      33.916 -19.828 -21.358  0.00  0.00    +0.000 C 
ENDROOT
BRANCH   1   2
ATOM      2  C   UNL     1      32.847 -20.023 -20.280  0.00  0.00    +0.000 C 
BRANCH   2   3
ATOM      3  C   UNL     1      33.110 -21.232 -19.376  0.00  0.00    +0.000 C 
BRANCH   3   4
ATOM      4  C   UNL     1      34.356 -22.027 -19.773  0.00  0.00    +0.000 C 
BRANCH   4   5
ATOM      5  C   UNL     1      35.461 -21.885 -18.726  0.00  0.00    +0.000 C 
ATOM      6  C   UNL     1      36.684 -21.186 -19.298  0.00  0.00    +0.000 C 
ENDBRANCH   4   5
ENDBRANCH   3   4
ENDBRANCH   2   3
ENDBRANCH   1   2
BRANCH   1   7
ATOM      7  C   UNL     1      34.512 -18.416 -21.371  0.00  0.00    +0.000 C 
BRANCH   7   8
ATOM      8  C   UNL     1      35.224 -18.071 -22.682  0.00  0.00    +0.000 C 
BRANCH   8   9
ATOM      9  C   UNL     1      34.942 -19.120 -23.758  0.00  0.00    +0.008 C 
BRANCH   9  10
ATOM     10  C   UNL     1      34.366 -18.482 -25.017  0.00  0.00    +0.072 C 
BRANCH  10  12
ATOM     11  O   UNL     1      34.320 -16.260 -25.945  0.00  0.00    -0.288 OA
ATOM     12  C   UNL     1      34.718 -17.019 -25.066  0.00  0.00    +0.207 C 
ENDBRANCH  10  12
ENDBRANCH   9  10
ENDBRANCH   8   9
ENDBRANCH   7   8
ENDBRANCH   1   7
TORSDOF 9
ENDMDL
MODEL 4
REMARK VINA RESULT:      -5.7      1.236      2.250
REMARK  Name = 8186
REMARK  9 active torsions:
REMARK  status: ('A' for Active; 'I' for Inactive)
REMARK    1  A    between atoms: C_1  and  C_2
REMARK    2  A    between atoms: C_1  and  C_7
REMARK    3  A    between atoms: C_2  and  C_3
REMARK    4  A    between atoms: C_3  and  C_4
REMARK    5  A    between atoms: C_4  and  C_5
REMARK    6  A    between atoms: C_7  and  C_8
REMARK    7  A    between atoms: C_8  and  C_9
REMARK    8  A    between atoms: C_9  and  C_10
REMARK    9  A    between atoms: C_10  and  C_12
REMARK                            x       y       z     vdW  Elec       q    Type
REMARK                         _______ _______ _______ _____ _____    ______ ____
ROOT
ATOM      1  C   UNL     1      35.448 -18.635 -21.490  0.00  0.00    +0.000 C 
ENDROOT
BRANCH   1   2
ATOM      2  C   UNL     1      34.085 -19.277 -21.220  0.00  0.00    +0.000 C 
BRANCH   2   3
ATOM      3  C   UNL     1      34.152 -20.448 -20.234  0.00  0.00    +0.000 C 
BRANCH   3   4
ATOM      4  C   UNL     1      35.578 -20.923 -19.950  0.00  0.00    +0.000 C 
BRANCH   4   5
ATOM      5  C   UNL     1      35.603 -21.959 -18.826  0.00  0.00    +0.000 C 
ATOM      6  C   UNL     1      36.717 -21.675 -17.830  0.00  0.00    +0.000 C 
ENDBRANCH   4   5
ENDBRANCH   3   4
ENDBRANCH   2   3
ENDBRANCH   1   2
BRANCH   1   7
ATOM      7  C   UNL     1      35.620 -18.169 -22.940  0.00  0.00    +0.000 C 
BRANCH   7   8
ATOM      8  C   UNL     1      34.901 -19.061 -23.955  0.00  0.00    +0.000 C 
BRANCH   8   9
ATOM      9  C   UNL     1      34.230 -18.227 -25.047  0.00  0.00    +0.008 C 
BRANCH   9  10
ATOM     10  C   UNL     1      34.839 -16.832 -25.132  0.00  0.00    +0.072 C 
BRANCH  10  12
ATOM     11  O   UNL     1      33.501 -15.467 -26.597  0.00  0.00    -0.288 OA
ATOM     12  C   UNL     1      33.773 -15.818 -25.453  0.00  0.00    +0.207 C 
ENDBRANCH  10  12
ENDBRANCH   9  10
ENDBRANCH   8   9
ENDBRANCH   7   8
ENDBRANCH   1   7
TORSDOF 9
ENDMDL
MODEL 5
REMARK VINA RESULT:      -5.6      2.483      3.954
REMARK  Name = 8186
REMARK  9 active torsions:
REMARK  status: ('A' for Active; 'I' for Inactive)
REMARK    1  A    between atoms: C_1  and  C_2
REMARK    2  A    between atoms: C_1  and  C_7
REMARK    3  A    between atoms: C_2  and  C_3
REMARK    4  A    between atoms: C_3  and  C_4
REMARK    5  A    between atoms: C_4  and  C_5
REMARK    6  A    between atoms: C_7  and  C_8
REMARK    7  A    between atoms: C_8  and  C_9
REMARK    8  A    between atoms: C_9  and  C_10
REMARK    9  A    between atoms: C_10  and  C_12
REMARK                            x       y       z     vdW  Elec       q    Type
REMARK                         _______ _______ _______ _____ _____    ______ ____
ROOT
ATOM      1  C   UNL     1      34.486 -17.930 -24.898  0.00  0.00    +0.000 C 
ENDROOT
BRANCH   1   2
ATOM      2  C   UNL     1      34.837 -19.052 -23.917  0.00  0.00    +0.000 C 
BRANCH   2   3
ATOM      3  C   UNL     1      35.569 -18.556 -22.666  0.00  0.00    +0.000 C 
BRANCH   3   4
ATOM      4  C   UNL     1      35.160 -19.294 -21.389  0.00  0.00    +0.000 C 
BRANCH   4   5
ATOM      5  C   UNL     1      33.696 -19.025 -21.039  0.00  0.00    +0.000 C 
ATOM      6  C   UNL     1      33.036 -20.250 -20.425  0.00  0.00    +0.000 C 
ENDBRANCH   4   5
ENDBRANCH   3   4
ENDBRANCH   2   3
ENDBRANCH   1   2
BRANCH   1   7
ATOM      7  C   UNL     1      34.841 -16.535 -24.373  0.00  0.00    +0.000 C 
BRANCH   7   8
ATOM      8  C   UNL     1      33.739 -15.499 -24.610  0.00  0.00    +0.000 C 
BRANCH   8   9
ATOM      9  C   UNL     1      33.520 -14.631 -23.370  0.00  0.00    +0.008 C 
BRANCH   9  10
ATOM     10  C   UNL     1      33.499 -15.474 -22.100  0.00  0.00    +0.072 C 
BRANCH  10  12
ATOM     11  O   UNL     1      34.878 -15.583 -20.129  0.00  0.00    -0.288 OA
ATOM     12  C   UNL     1      34.505 -14.948 -21.111  0.00  0.00    +0.207 C 
ENDBRANCH  10  12
ENDBRANCH   9  10
ENDBRANCH   8   9
ENDBRANCH   7   8
ENDBRANCH   1   7
TORSDOF 9
ENDMDL
MODEL 6
REMARK VINA RESULT:      -5.6      3.423      5.821
REMARK  Name = 8186
REMARK  9 active torsions:
REMARK  status: ('A' for Active; 'I' for Inactive)
REMARK    1  A    between atoms: C_1  and  C_2
REMARK    2  A    between atoms: C_1  and  C_7
REMARK    3  A    between atoms: C_2  and  C_3
REMARK    4  A    between atoms: C_3  and  C_4
REMARK    5  A    between atoms: C_4  and  C_5
REMARK    6  A    between atoms: C_7  and  C_8
REMARK    7  A    between atoms: C_8  and  C_9
REMARK    8  A    between atoms: C_9  and  C_10
REMARK    9  A    between atoms: C_10  and  C_12
REMARK                            x       y       z     vdW  Elec       q    Type
REMARK                         _______ _______ _______ _____ _____    ______ ____
ROOT
ATOM      1  C   UNL     1      35.504 -18.423 -22.828  0.00  0.00    +0.000 C 
ENDROOT
BRANCH   1   2
ATOM      2  C   UNL     1      35.271 -17.068 -22.156  0.00  0.00    +0.000 C 
BRANCH   2   3
ATOM      3  C   UNL     1      34.979 -15.939 -23.151  0.00  0.00    +0.000 C 
BRANCH   3   4
ATOM      4  C   UNL     1      34.314 -14.720 -22.509  0.00  0.00    +0.000 C 
BRANCH   4   5
ATOM      5  C   UNL     1      34.271 -14.849 -20.986  0.00  0.00    +0.000 C 
ATOM      6  C   UNL     1      32.841 -14.887 -20.470  0.00  0.00    +0.000 C 
ENDBRANCH   4   5
ENDBRANCH   3   4
ENDBRANCH   2   3
ENDBRANCH   1   2
BRANCH   1   7
ATOM      7  C   UNL     1      34.796 -19.581 -22.117  0.00  0.00    +0.000 C 
BRANCH   7   8
ATOM      8  C   UNL     1      33.697 -19.122 -21.155  0.00  0.00    +0.000 C 
BRANCH   8   9
ATOM      9  C   UNL     1      33.128 -20.301 -20.364  0.00  0.00    +0.008 C 
BRANCH   9  10
ATOM     10  C   UNL     1      34.239 -21.155 -19.765  0.00  0.00    +0.072 C 
BRANCH  10  12
ATOM     11  O   UNL     1      32.525 -22.272 -18.495  0.00  0.00    -0.288 OA
ATOM     12  C   UNL     1      33.651 -22.299 -18.982  0.00  0.00    +0.207 C 
ENDBRANCH  10  12
ENDBRANCH   9  10
ENDBRANCH   8   9
ENDBRANCH   7   8
ENDBRANCH   1   7
TORSDOF 9
ENDMDL
MODEL 7
REMARK VINA RESULT:      -5.5      3.589      6.420
REMARK  Name = 8186
REMARK  9 active torsions:
REMARK  status: ('A' for Active; 'I' for Inactive)
REMARK    1  A    between atoms: C_1  and  C_2
REMARK    2  A    between atoms: C_1  and  C_7
REMARK    3  A    between atoms: C_2  and  C_3
REMARK    4  A    between atoms: C_3  and  C_4
REMARK    5  A    between atoms: C_4  and  C_5
REMARK    6  A    between atoms: C_7  and  C_8
REMARK    7  A    between atoms: C_8  and  C_9
REMARK    8  A    between atoms: C_9  and  C_10
REMARK    9  A    between atoms: C_10  and  C_12
REMARK                            x       y       z     vdW  Elec       q    Type
REMARK                         _______ _______ _______ _____ _____    ______ ____
ROOT
ATOM      1  C   UNL     1      33.530 -19.384 -21.198  0.00  0.00    +0.000 C 
ENDROOT
BRANCH   1   2
ATOM      2  C   UNL     1      34.788 -18.511 -21.217  0.00  0.00    +0.000 C 
BRANCH   2   3
ATOM      3  C   UNL     1      35.165 -18.023 -22.619  0.00  0.00    +0.000 C 
BRANCH   3   4
ATOM      4  C   UNL     1      35.041 -19.105 -23.694  0.00  0.00    +0.000 C 
BRANCH   4   5
ATOM      5  C   UNL     1      34.337 -18.569 -24.941  0.00  0.00    +0.000 C 
ATOM      6  C   UNL     1      34.649 -17.099 -25.168  0.00  0.00    +0.000 C 
ENDBRANCH   4   5
ENDBRANCH   3   4
ENDBRANCH   2   3
ENDBRANCH   1   2
BRANCH   1   7
ATOM      7  C   UNL     1      33.576 -20.488 -20.136  0.00  0.00    +0.000 C 
BRANCH   7   8
ATOM      8  C   UNL     1      34.982 -21.044 -19.899  0.00  0.00    +0.000 C 
BRANCH   8   9
ATOM      9  C   UNL     1      34.970 -22.144 -18.836  0.00  0.00    +0.008 C 
BRANCH   9  10
ATOM     10  C   UNL     1      33.547 -22.583 -18.509  0.00  0.00    +0.072 C 
BRANCH  10  12
ATOM     11  O   UNL     1      34.505 -23.824 -16.681  0.00  0.00    -0.288 OA
ATOM     12  C   UNL     1      33.516 -23.302 -17.187  0.00  0.00    +0.207 C 
ENDBRANCH  10  12
ENDBRANCH   9  10
ENDBRANCH   8   9
ENDBRANCH   7   8
ENDBRANCH   1   7
TORSDOF 9
ENDMDL
MODEL 8
REMARK VINA RESULT:      -5.5      1.535      2.737
REMARK  Name = 8186
REMARK  9 active torsions:
REMARK  status: ('A' for Active; 'I' for Inactive)
REMARK    1  A    between atoms: C_1  and  C_2
REMARK    2  A    between atoms: C_1  and  C_7
REMARK    3  A    between atoms: C_2  and  C_3
REMARK    4  A    between atoms: C_3  and  C_4
REMARK    5  A    between atoms: C_4  and  C_5
REMARK    6  A    between atoms: C_7  and  C_8
REMARK    7  A    between atoms: C_8  and  C_9
REMARK    8  A    between atoms: C_9  and  C_10
REMARK    9  A    between atoms: C_10  and  C_12
REMARK                            x       y       z     vdW  Elec       q    Type
REMARK                         _______ _______ _______ _____ _____    ______ ____
ROOT
ATOM      1  C   UNL     1      35.667 -18.452 -22.907  0.00  0.00    +0.000 C 
ENDROOT
BRANCH   1   2
ATOM      2  C   UNL     1      35.058 -18.408 -21.503  0.00  0.00    +0.000 C 
BRANCH   2   3
ATOM      3  C   UNL     1      33.942 -19.436 -21.294  0.00  0.00    +0.000 C 
BRANCH   3   4
ATOM      4  C   UNL     1      34.265 -20.475 -20.218  0.00  0.00    +0.000 C 
BRANCH   4   5
ATOM      5  C   UNL     1      35.739 -20.879 -20.263  0.00  0.00    +0.000 C 
ATOM      6  C   UNL     1      36.190 -21.489 -18.945  0.00  0.00    +0.000 C 
ENDBRANCH   4   5
ENDBRANCH   3   4
ENDBRANCH   2   3
ENDBRANCH   1   2
BRANCH   1   7
ATOM      7  C   UNL     1      34.814 -19.233 -23.912  0.00  0.00    +0.000 C 
BRANCH   7   8
ATOM      8  C   UNL     1      34.317 -18.377 -25.080  0.00  0.00    +0.000 C 
BRANCH   8   9
ATOM      9  C   UNL     1      34.880 -16.958 -25.004  0.00  0.00    +0.008 C 
BRANCH   9  10
ATOM     10  C   UNL     1      33.828 -15.923 -25.385  0.00  0.00    +0.072 C 
BRANCH  10  12
ATOM     11  O   UNL     1      33.688 -15.388 -23.041  0.00  0.00    -0.288 OA
ATOM     12  C   UNL     1      33.514 -15.041 -24.206  0.00  0.00    +0.207 C 
ENDBRANCH  10  12
ENDBRANCH   9  10
ENDBRANCH   8   9
ENDBRANCH   7   8
ENDBRANCH   1   7
TORSDOF 9
ENDMDL
MODEL 9
REMARK VINA RESULT:      -5.5      2.450      3.511
REMARK  Name = 8186
REMARK  9 active torsions:
REMARK  status: ('A' for Active; 'I' for Inactive)
REMARK    1  A    between atoms: C_1  and  C_2
REMARK    2  A    between atoms: C_1  and  C_7
REMARK    3  A    between atoms: C_2  and  C_3
REMARK    4  A    between atoms: C_3  and  C_4
REMARK    5  A    between atoms: C_4  and  C_5
REMARK    6  A    between atoms: C_7  and  C_8
REMARK    7  A    between atoms: C_8  and  C_9
REMARK    8  A    between atoms: C_9  and  C_10
REMARK    9  A    between atoms: C_10  and  C_12
REMARK                            x       y       z     vdW  Elec       q    Type
REMARK                         _______ _______ _______ _____ _____    ______ ____
ROOT
ATOM      1  C   UNL     1      34.454 -15.780 -20.843  0.00  0.00    +0.000 C 
ENDROOT
BRANCH   1   2
ATOM      2  C   UNL     1      35.106 -17.150 -21.042  0.00  0.00    +0.000 C 
BRANCH   2   3
ATOM      3  C   UNL     1      34.663 -17.850 -22.331  0.00  0.00    +0.000 C 
BRANCH   3   4
ATOM      4  C   UNL     1      34.649 -19.376 -22.220  0.00  0.00    +0.000 C 
BRANCH   4   5
ATOM      5  C   UNL     1      34.326 -19.825 -20.795  0.00  0.00    +0.000 C 
ATOM      6  C   UNL     1      32.831 -20.023 -20.598  0.00  0.00    +0.000 C 
ENDBRANCH   4   5
ENDBRANCH   3   4
ENDBRANCH   2   3
ENDBRANCH   1   2
BRANCH   1   7
ATOM      7  C   UNL     1      33.204 -15.573 -21.705  0.00  0.00    +0.000 C 
BRANCH   7   8
ATOM      8  C   UNL     1      32.864 -14.099 -21.938  0.00  0.00    +0.000 C 
BRANCH   8   9
ATOM      9  C   UNL     1      32.809 -13.774 -23.432  0.00  0.00    +0.008 C 
BRANCH   9  10
ATOM     10  C   UNL     1      33.513 -14.844 -24.258  0.00  0.00    +0.072 C 
BRANCH  10  12
ATOM     11  O   UNL     1      33.469 -15.534 -26.565  0.00  0.00    -0.288 OA
ATOM     12  C   UNL     1      33.083 -14.756 -25.698  0.00  0.00    +0.207 C 
ENDBRANCH  10  12
ENDBRANCH   9  10
ENDBRANCH   8   9
ENDBRANCH   7   8
ENDBRANCH   1   7
TORSDOF 9
ENDMDL
