MODEL 1
REMARK VINA RESULT:      -8.3      0.000      0.000
REMARK  Name = 5813717
REMARK  6 active torsions:
REMARK  status: ('A' for Active; 'I' for Inactive)
REMARK    1  A    between atoms: C_4  and  N_13
REMARK    2  A    between atoms: C_8  and  C_21
REMARK    3  A    between atoms: C_10  and  C_16
REMARK    4  A    between atoms: C_17  and  C_18
REMARK    5  A    between atoms: C_18  and  O_19
REMARK    6  A    between atoms: C_21  and  O_22
REMARK                            x       y       z     vdW  Elec       q    Type
REMARK                         _______ _______ _______ _____ _____    ______ ____
ROOT
ATOM      1  O   UNL     1      31.686 -22.412 -17.882  0.00  0.00    -0.285 OA
ATOM      2  O   UNL     1      31.331 -24.275 -12.824  0.00  0.00    -0.285 OA
ATOM      3  N   UNL     1      33.960 -23.889 -14.198  0.00  0.00    -0.323 N 
ATOM      4  C   UNL     1      30.303 -23.035 -16.026  0.00  0.00    +0.091 C 
ATOM      5  C   UNL     1      32.789 -23.180 -15.951  0.00  0.00    +0.059 A 
ATOM      6  C   UNL     1      32.693 -23.656 -14.662  0.00  0.00    +0.102 A 
ATOM      7  C   UNL     1      31.622 -22.834 -16.734  0.00  0.00    +0.210 C 
ATOM      8  C   UNL     1      34.166 -23.125 -16.278  0.00  0.00    +0.027 A 
ATOM      9  C   UNL     1      30.240 -23.501 -14.764  0.00  0.00    +0.061 C 
ATOM     10  C   UNL     1      34.867 -23.569 -15.176  0.00  0.00    +0.058 A 
ATOM     11  C   UNL     1      31.453 -23.854 -13.969  0.00  0.00    +0.213 C 
ATOM     12  C   UNL     1      34.283 -24.396 -12.879  0.00  0.00    +0.131 C 
ENDROOT
BRANCH   4  13
ATOM     13  N   UNL     1      29.198 -22.708 -16.761  0.00  0.00    -0.301 N 
ATOM     14  C   UNL     1      28.190 -23.746 -16.958  0.00  0.00    +0.112 C 
ATOM     15  C   UNL     1      27.928 -22.590 -16.051  0.00  0.00    +0.112 C 
ENDBRANCH   4  13
BRANCH  10  16
ATOM     16  C   UNL     1      36.242 -23.731 -14.922  0.00  0.00    +0.015 C 
ATOM     17  C   UNL     1      36.931 -24.888 -15.083  0.00  0.00    +0.007 C 
BRANCH  17  18
ATOM     18  C   UNL     1      38.390 -25.041 -14.787  0.00  0.00    +0.163 C 
BRANCH  18  19
ATOM     19  O   UNL     1      39.109 -24.056 -15.516  0.00  0.00    -0.377 OA
ATOM     20  H   UNL     1      38.723 -23.182 -15.347  0.00  0.00    +0.211 HD
ENDBRANCH  18  19
ENDBRANCH  17  18
ENDBRANCH  10  16
BRANCH   8  21
ATOM     21  C   UNL     1      34.753 -22.678 -17.559  0.00  0.00    +0.165 C 
BRANCH  21  22
ATOM     22  O   UNL     1      34.230 -23.462 -18.631  0.00  0.00    -0.377 OA
ATOM     23  H   UNL     1      34.261 -24.401 -18.389  0.00  0.00    +0.211 HD
ENDBRANCH  21  22
ENDBRANCH   8  21
TORSDOF 6
ENDMDL
MODEL 2
REMARK VINA RESULT:      -8.2      1.918      6.789
REMARK  Name = 5813717
REMARK  6 active torsions:
REMARK  status: ('A' for Active; 'I' for Inactive)
REMARK    1  A    between atoms: C_4  and  N_13
REMARK    2  A    between atoms: C_8  and  C_21
REMARK    3  A    between atoms: C_10  and  C_16
REMARK    4  A    between atoms: C_17  and  C_18
REMARK    5  A    between atoms: C_18  and  O_19
REMARK    6  A    between atoms: C_21  and  O_22
REMARK                            x       y       z     vdW  Elec       q    Type
REMARK                         _______ _______ _______ _____ _____    ______ ____
ROOT
ATOM      1  O   UNL     1      33.973 -24.321 -12.377  0.00  0.00    -0.285 OA
ATOM      2  O   UNL     1      35.730 -22.799 -17.254  0.00  0.00    -0.285 OA
ATOM      3  N   UNL     1      32.818 -23.036 -16.613  0.00  0.00    -0.323 N 
ATOM      4  C   UNL     1      35.823 -23.849 -13.828  0.00  0.00    +0.091 C 
ATOM      5  C   UNL     1      33.453 -23.652 -14.572  0.00  0.00    +0.059 A 
ATOM      6  C   UNL     1      33.907 -23.265 -15.814  0.00  0.00    +0.102 A 
ATOM      7  C   UNL     1      34.356 -23.973 -13.488  0.00  0.00    +0.210 C 
ATOM      8  C   UNL     1      32.037 -23.657 -14.623  0.00  0.00    +0.027 A 
ATOM      9  C   UNL     1      36.236 -23.468 -15.052  0.00  0.00    +0.061 C 
ATOM     10  C   UNL     1      31.672 -23.272 -15.897  0.00  0.00    +0.058 A 
ATOM     11  C   UNL     1      35.292 -23.140 -16.160  0.00  0.00    +0.213 C 
ATOM     12  C   UNL     1      32.876 -22.611 -17.997  0.00  0.00    +0.131 C 
ENDROOT
BRANCH   4  13
ATOM     13  N   UNL     1      36.680 -24.151 -12.806  0.00  0.00    -0.301 N 
ATOM     14  C   UNL     1      37.114 -25.539 -12.680  0.00  0.00    +0.112 C 
ATOM     15  C   UNL     1      38.056 -24.486 -13.159  0.00  0.00    +0.112 C 
ENDBRANCH   4  13
BRANCH  10  16
ATOM     16  C   UNL     1      30.421 -23.100 -16.518  0.00  0.00    +0.015 C 
ATOM     17  C   UNL     1      29.303 -22.645 -15.901  0.00  0.00    +0.007 C 
BRANCH  17  18
ATOM     18  C   UNL     1      27.977 -22.491 -16.578  0.00  0.00    +0.163 C 
BRANCH  18  19
ATOM     19  O   UNL     1      27.842 -23.515 -17.553  0.00  0.00    -0.377 OA
ATOM     20  H   UNL     1      28.683 -23.991 -17.642  0.00  0.00    +0.211 HD
ENDBRANCH  18  19
ENDBRANCH  17  18
ENDBRANCH  10  16
BRANCH   8  21
ATOM     21  C   UNL     1      31.115 -24.009 -13.523  0.00  0.00    +0.165 C 
BRANCH  21  22
ATOM     22  O   UNL     1      31.271 -25.385 -13.181  0.00  0.00    -0.377 OA
ATOM     23  H   UNL     1      30.495 -25.883 -13.484  0.00  0.00    +0.211 HD
ENDBRANCH  21  22
ENDBRANCH   8  21
TORSDOF 6
ENDMDL
MODEL 3
REMARK VINA RESULT:      -8.1      1.409      3.218
REMARK  Name = 5813717
REMARK  6 active torsions:
REMARK  status: ('A' for Active; 'I' for Inactive)
REMARK    1  A    between atoms: C_4  and  N_13
REMARK    2  A    between atoms: C_8  and  C_21
REMARK    3  A    between atoms: C_10  and  C_16
REMARK    4  A    between atoms: C_17  and  C_18
REMARK    5  A    between atoms: C_18  and  O_19
REMARK    6  A    between atoms: C_21  and  O_22
REMARK                            x       y       z     vdW  Elec       q    Type
REMARK                         _______ _______ _______ _____ _____    ______ ____
ROOT
ATOM      1  O   UNL     1      31.852 -24.394 -13.175  0.00  0.00    -0.285 OA
ATOM      2  O   UNL     1      32.627 -22.448 -18.155  0.00  0.00    -0.285 OA
ATOM      3  N   UNL     1      34.904 -23.118 -16.335  0.00  0.00    -0.323 N 
ATOM      4  C   UNL     1      30.906 -23.611 -15.234  0.00  0.00    +0.091 C 
ATOM      5  C   UNL     1      33.364 -23.722 -14.848  0.00  0.00    +0.059 A 
ATOM      6  C   UNL     1      33.557 -23.224 -16.118  0.00  0.00    +0.102 A 
ATOM      7  C   UNL     1      32.045 -23.955 -14.303  0.00  0.00    +0.210 C 
ATOM      8  C   UNL     1      34.645 -23.922 -14.276  0.00  0.00    +0.027 A 
ATOM      9  C   UNL     1      31.125 -23.127 -16.472  0.00  0.00    +0.061 C 
ATOM     10  C   UNL     1      35.578 -23.540 -15.218  0.00  0.00    +0.058 A 
ATOM     11  C   UNL     1      32.492 -22.892 -17.020  0.00  0.00    +0.213 C 
ATOM     12  C   UNL     1      35.515 -22.632 -17.557  0.00  0.00    +0.131 C 
ENDROOT
BRANCH   4  13
ATOM     13  N   UNL     1      29.656 -23.831 -14.723  0.00  0.00    -0.301 N 
ATOM     14  C   UNL     1      28.542 -23.866 -15.666  0.00  0.00    +0.112 C 
ATOM     15  C   UNL     1      29.029 -25.117 -15.013  0.00  0.00    +0.112 C 
ENDBRANCH   4  13
BRANCH  10  16
ATOM     16  C   UNL     1      36.986 -23.518 -15.210  0.00  0.00    +0.015 C 
ATOM     17  C   UNL     1      37.779 -24.606 -15.045  0.00  0.00    +0.007 C 
BRANCH  17  18
ATOM     18  C   UNL     1      39.274 -24.555 -15.018  0.00  0.00    +0.163 C 
BRANCH  18  19
ATOM     19  O   UNL     1      39.781 -25.675 -15.731  0.00  0.00    -0.377 OA
ATOM     20  H   UNL     1      39.042 -26.186 -16.098  0.00  0.00    +0.211 HD
ENDBRANCH  18  19
ENDBRANCH  17  18
ENDBRANCH  10  16
BRANCH   8  21
ATOM     21  C   UNL     1      34.937 -24.442 -12.923  0.00  0.00    +0.165 C 
BRANCH  21  22
ATOM     22  O   UNL     1      34.495 -23.507 -11.940  0.00  0.00    -0.377 OA
ATOM     23  H   UNL     1      33.791 -22.955 -12.313  0.00  0.00    +0.211 HD
ENDBRANCH  21  22
ENDBRANCH   8  21
TORSDOF 6
ENDMDL
MODEL 4
REMARK VINA RESULT:      -8.0      2.588      6.120
REMARK  Name = 5813717
REMARK  6 active torsions:
REMARK  status: ('A' for Active; 'I' for Inactive)
REMARK    1  A    between atoms: C_4  and  N_13
REMARK    2  A    between atoms: C_8  and  C_21
REMARK    3  A    between atoms: C_10  and  C_16
REMARK    4  A    between atoms: C_17  and  C_18
REMARK    5  A    between atoms: C_18  and  O_19
REMARK    6  A    between atoms: C_21  and  O_22
REMARK                            x       y       z     vdW  Elec       q    Type
REMARK                         _______ _______ _______ _____ _____    ______ ____
ROOT
ATOM      1  O   UNL     1      37.878 -22.705 -15.494  0.00  0.00    -0.285 OA
ATOM      2  O   UNL     1      32.904 -24.415 -14.259  0.00  0.00    -0.285 OA
ATOM      3  N   UNL     1      33.531 -23.089 -16.866  0.00  0.00    -0.323 N 
ATOM      4  C   UNL     1      36.412 -23.759 -13.917  0.00  0.00    +0.091 C 
ATOM      5  C   UNL     1      35.626 -22.937 -16.134  0.00  0.00    +0.059 A 
ATOM      6  C   UNL     1      34.359 -23.375 -15.814  0.00  0.00    +0.102 A 
ATOM      7  C   UNL     1      36.745 -23.088 -15.229  0.00  0.00    +0.210 C 
ATOM      8  C   UNL     1      35.559 -22.366 -17.429  0.00  0.00    +0.027 A 
ATOM      9  C   UNL     1      35.163 -24.177 -13.633  0.00  0.00    +0.061 C 
ATOM     10  C   UNL     1      34.252 -22.473 -17.857  0.00  0.00    +0.058 A 
ATOM     11  C   UNL     1      34.019 -24.014 -14.577  0.00  0.00    +0.213 C 
ATOM     12  C   UNL     1      32.115 -23.393 -16.917  0.00  0.00    +0.131 C 
ENDROOT
BRANCH   4  13
ATOM     13  N   UNL     1      37.467 -23.904 -13.059  0.00  0.00    -0.301 N 
ATOM     14  C   UNL     1      37.165 -24.272 -11.679  0.00  0.00    +0.112 C 
ATOM     15  C   UNL     1      37.787 -25.257 -12.612  0.00  0.00    +0.112 C 
ENDBRANCH   4  13
BRANCH  10  16
ATOM     16  C   UNL     1      33.604 -22.084 -19.044  0.00  0.00    +0.015 C 
ATOM     17  C   UNL     1      33.619 -20.830 -19.563  0.00  0.00    +0.007 C 
BRANCH  17  18
ATOM     18  C   UNL     1      32.903 -20.435 -20.816  0.00  0.00    +0.163 C 
BRANCH  18  19
ATOM     19  O   UNL     1      33.713 -19.513 -21.532  0.00  0.00    -0.377 OA
ATOM     20  H   UNL     1      33.868 -19.847 -22.430  0.00  0.00    +0.211 HD
ENDBRANCH  18  19
ENDBRANCH  17  18
ENDBRANCH  10  16
BRANCH   8  21
ATOM     21  C   UNL     1      36.677 -21.763 -18.187  0.00  0.00    +0.165 C 
BRANCH  21  22
ATOM     22  O   UNL     1      37.142 -20.593 -17.515  0.00  0.00    -0.377 OA
ATOM     23  H   UNL     1      37.027 -19.822 -18.092  0.00  0.00    +0.211 HD
ENDBRANCH  21  22
ENDBRANCH   8  21
TORSDOF 6
ENDMDL
MODEL 5
REMARK VINA RESULT:      -7.9      1.681      6.146
REMARK  Name = 5813717
REMARK  6 active torsions:
REMARK  status: ('A' for Active; 'I' for Inactive)
REMARK    1  A    between atoms: C_4  and  N_13
REMARK    2  A    between atoms: C_8  and  C_21
REMARK    3  A    between atoms: C_10  and  C_16
REMARK    4  A    between atoms: C_17  and  C_18
REMARK    5  A    between atoms: C_18  and  O_19
REMARK    6  A    between atoms: C_21  and  O_22
REMARK                            x       y       z     vdW  Elec       q    Type
REMARK                         _______ _______ _______ _____ _____    ______ ____
ROOT
ATOM      1  O   UNL     1      35.850 -22.850 -16.891  0.00  0.00    -0.285 OA
ATOM      2  O   UNL     1      33.488 -24.719 -12.406  0.00  0.00    -0.285 OA
ATOM      3  N   UNL     1      31.920 -23.991 -14.847  0.00  0.00    -0.323 N 
ATOM      4  C   UNL     1      36.077 -23.645 -14.641  0.00  0.00    +0.091 C 
ATOM      5  C   UNL     1      33.869 -23.457 -15.777  0.00  0.00    +0.059 A 
ATOM      6  C   UNL     1      33.271 -23.933 -14.631  0.00  0.00    +0.102 A 
ATOM      7  C   UNL     1      35.300 -23.274 -15.882  0.00  0.00    +0.210 C 
ATOM      8  C   UNL     1      32.839 -23.218 -16.721  0.00  0.00    +0.027 A 
ATOM      9  C   UNL     1      35.465 -24.110 -13.534  0.00  0.00    +0.061 C 
ATOM     10  C   UNL     1      31.645 -23.556 -16.119  0.00  0.00    +0.058 A 
ATOM     11  C   UNL     1      33.987 -24.293 -13.442  0.00  0.00    +0.213 C 
ATOM     12  C   UNL     1      30.941 -24.441 -13.878  0.00  0.00    +0.131 C 
ENDROOT
BRANCH   4  13
ATOM     13  N   UNL     1      37.431 -23.475 -14.735  0.00  0.00    -0.301 N 
ATOM     14  C   UNL     1      38.254 -24.026 -13.662  0.00  0.00    +0.112 C 
ATOM     15  C   UNL     1      38.239 -24.658 -15.015  0.00  0.00    +0.112 C 
ENDBRANCH   4  13
BRANCH  10  16
ATOM     16  C   UNL     1      30.311 -23.527 -16.565  0.00  0.00    +0.015 C 
ATOM     17  C   UNL     1      29.433 -22.521 -16.327  0.00  0.00    +0.007 C 
BRANCH  17  18
ATOM     18  C   UNL     1      28.011 -22.522 -16.794  0.00  0.00    +0.163 C 
BRANCH  18  19
ATOM     19  O   UNL     1      27.814 -23.638 -17.652  0.00  0.00    -0.377 OA
ATOM     20  H   UNL     1      28.586 -23.741 -18.232  0.00  0.00    +0.211 HD
ENDBRANCH  18  19
ENDBRANCH  17  18
ENDBRANCH  10  16
BRANCH   8  21
ATOM     21  C   UNL     1      33.003 -22.700 -18.096  0.00  0.00    +0.165 C 
BRANCH  21  22
ATOM     22  O   UNL     1      33.716 -23.648 -18.889  0.00  0.00    -0.377 OA
ATOM     23  H   UNL     1      34.116 -24.316 -18.310  0.00  0.00    +0.211 HD
ENDBRANCH  21  22
ENDBRANCH   8  21
TORSDOF 6
ENDMDL
MODEL 6
REMARK VINA RESULT:      -7.9      2.664      6.217
REMARK  Name = 5813717
REMARK  6 active torsions:
REMARK  status: ('A' for Active; 'I' for Inactive)
REMARK    1  A    between atoms: C_4  and  N_13
REMARK    2  A    between atoms: C_8  and  C_21
REMARK    3  A    between atoms: C_10  and  C_16
REMARK    4  A    between atoms: C_17  and  C_18
REMARK    5  A    between atoms: C_18  and  O_19
REMARK    6  A    between atoms: C_21  and  O_22
REMARK                            x       y       z     vdW  Elec       q    Type
REMARK                         _______ _______ _______ _____ _____    ______ ____
ROOT
ATOM      1  O   UNL     1      33.262 -24.392 -14.293  0.00  0.00    -0.285 OA
ATOM      2  O   UNL     1      37.981 -22.421 -16.035  0.00  0.00    -0.285 OA
ATOM      3  N   UNL     1      35.497 -22.308 -17.697  0.00  0.00    -0.323 N 
ATOM      4  C   UNL     1      35.589 -23.989 -13.875  0.00  0.00    +0.091 C 
ATOM      5  C   UNL     1      34.475 -23.322 -16.001  0.00  0.00    +0.059 A 
ATOM      6  C   UNL     1      35.681 -22.821 -16.441  0.00  0.00    +0.102 A 
ATOM      7  C   UNL     1      34.325 -23.939 -14.702  0.00  0.00    +0.210 C 
ATOM      8  C   UNL     1      33.528 -23.103 -17.032  0.00  0.00    +0.027 A 
ATOM      9  C   UNL     1      36.754 -23.490 -14.332  0.00  0.00    +0.061 C 
ATOM     10  C   UNL     1      34.187 -22.475 -18.068  0.00  0.00    +0.058 A 
ATOM     11  C   UNL     1      36.893 -22.856 -15.675  0.00  0.00    +0.213 C 
ATOM     12  C   UNL     1      36.531 -21.689 -18.503  0.00  0.00    +0.131 C 
ENDROOT
BRANCH   4  13
ATOM     13  N   UNL     1      35.451 -24.571 -12.645  0.00  0.00    -0.301 N 
ATOM     14  C   UNL     1      36.644 -25.157 -12.042  0.00  0.00    +0.112 C 
ATOM     15  C   UNL     1      36.063 -23.890 -11.508  0.00  0.00    +0.112 C 
ENDBRANCH   4  13
BRANCH  10  16
ATOM     16  C   UNL     1      33.763 -22.022 -19.331  0.00  0.00    +0.015 C 
ATOM     17  C   UNL     1      33.305 -20.773 -19.595  0.00  0.00    +0.007 C 
BRANCH  17  18
ATOM     18  C   UNL     1      32.839 -20.320 -20.943  0.00  0.00    +0.163 C 
BRANCH  18  19
ATOM     19  O   UNL     1      33.795 -19.412 -21.474  0.00  0.00    -0.377 OA
ATOM     20  H   UNL     1      34.426 -19.895 -22.031  0.00  0.00    +0.211 HD
ENDBRANCH  18  19
ENDBRANCH  17  18
ENDBRANCH  10  16
BRANCH   8  21
ATOM     21  C   UNL     1      32.097 -23.476 -17.010  0.00  0.00    +0.165 C 
BRANCH  21  22
ATOM     22  O   UNL     1      31.414 -22.719 -16.012  0.00  0.00    -0.377 OA
ATOM     23  H   UNL     1      30.501 -22.559 -16.297  0.00  0.00    +0.211 HD
ENDBRANCH  21  22
ENDBRANCH   8  21
TORSDOF 6
ENDMDL
MODEL 7
REMARK VINA RESULT:      -7.8      9.088     11.288
REMARK  Name = 5813717
REMARK  6 active torsions:
REMARK  status: ('A' for Active; 'I' for Inactive)
REMARK    1  A    between atoms: C_4  and  N_13
REMARK    2  A    between atoms: C_8  and  C_21
REMARK    3  A    between atoms: C_10  and  C_16
REMARK    4  A    between atoms: C_17  and  C_18
REMARK    5  A    between atoms: C_18  and  O_19
REMARK    6  A    between atoms: C_21  and  O_22
REMARK                            x       y       z     vdW  Elec       q    Type
REMARK                         _______ _______ _______ _____ _____    ______ ____
ROOT
ATOM      1  O   UNL     1      33.334 -13.685 -22.178  0.00  0.00    -0.285 OA
ATOM      2  O   UNL     1      34.475 -17.200 -26.119  0.00  0.00    -0.285 OA
ATOM      3  N   UNL     1      34.596 -17.955 -23.227  0.00  0.00    -0.323 N 
ATOM      4  C   UNL     1      33.539 -14.129 -24.525  0.00  0.00    +0.091 C 
ATOM      5  C   UNL     1      33.979 -15.863 -22.792  0.00  0.00    +0.059 A 
ATOM      6  C   UNL     1      34.270 -16.756 -23.800  0.00  0.00    +0.102 A 
ATOM      7  C   UNL     1      33.595 -14.495 -23.060  0.00  0.00    +0.210 C 
ATOM      8  C   UNL     1      34.137 -16.551 -21.563  0.00  0.00    +0.027 A 
ATOM      9  C   UNL     1      33.828 -15.024 -25.490  0.00  0.00    +0.061 C 
ATOM     10  C   UNL     1      34.519 -17.842 -21.862  0.00  0.00    +0.058 A 
ATOM     11  C   UNL     1      34.223 -16.432 -25.196  0.00  0.00    +0.213 C 
ATOM     12  C   UNL     1      34.966 -19.153 -23.956  0.00  0.00    +0.131 C 
ENDROOT
BRANCH   4  13
ATOM     13  N   UNL     1      33.175 -12.837 -24.784  0.00  0.00    -0.301 N 
ATOM     14  C   UNL     1      34.236 -11.834 -24.821  0.00  0.00    +0.112 C 
ATOM     15  C   UNL     1      33.560 -12.276 -26.076  0.00  0.00    +0.112 C 
ENDBRANCH   4  13
BRANCH  10  16
ATOM     16  C   UNL     1      34.815 -18.959 -21.058  0.00  0.00    +0.015 C 
ATOM     17  C   UNL     1      33.918 -19.901 -20.675  0.00  0.00    +0.007 C 
BRANCH  17  18
ATOM     18  C   UNL     1      34.252 -21.069 -19.801  0.00  0.00    +0.163 C 
BRANCH  18  19
ATOM     19  O   UNL     1      33.128 -21.936 -19.750  0.00  0.00    -0.377 OA
ATOM     20  H   UNL     1      32.685 -21.942 -20.613  0.00  0.00    +0.211 HD
ENDBRANCH  18  19
ENDBRANCH  17  18
ENDBRANCH  10  16
BRANCH   8  21
ATOM     21  C   UNL     1      33.933 -15.996 -20.208  0.00  0.00    +0.165 C 
BRANCH  21  22
ATOM     22  O   UNL     1      34.950 -15.037 -19.919  0.00  0.00    -0.377 OA
ATOM     23  H   UNL     1      34.753 -14.209 -20.385  0.00  0.00    +0.211 HD
ENDBRANCH  21  22
ENDBRANCH   8  21
TORSDOF 6
ENDMDL
MODEL 8
REMARK VINA RESULT:      -7.7      9.418     11.270
REMARK  Name = 5813717
REMARK  6 active torsions:
REMARK  status: ('A' for Active; 'I' for Inactive)
REMARK    1  A    between atoms: C_4  and  N_13
REMARK    2  A    between atoms: C_8  and  C_21
REMARK    3  A    between atoms: C_10  and  C_16
REMARK    4  A    between atoms: C_17  and  C_18
REMARK    5  A    between atoms: C_18  and  O_19
REMARK    6  A    between atoms: C_21  and  O_22
REMARK                            x       y       z     vdW  Elec       q    Type
REMARK                         _______ _______ _______ _____ _____    ______ ____
ROOT
ATOM      1  O   UNL     1      33.885 -16.302 -26.218  0.00  0.00    -0.285 OA
ATOM      2  O   UNL     1      33.306 -13.468 -21.655  0.00  0.00    -0.285 OA
ATOM      3  N   UNL     1      34.501 -16.210 -21.686  0.00  0.00    -0.323 N 
ATOM      4  C   UNL     1      33.160 -14.286 -25.142  0.00  0.00    +0.091 C 
ATOM      5  C   UNL     1      34.172 -16.184 -23.886  0.00  0.00    +0.059 A 
ATOM      6  C   UNL     1      34.022 -15.457 -22.725  0.00  0.00    +0.102 A 
ATOM      7  C   UNL     1      33.762 -15.671 -25.175  0.00  0.00    +0.210 C 
ATOM      8  C   UNL     1      34.764 -17.422 -23.533  0.00  0.00    +0.027 A 
ATOM      9  C   UNL     1      33.026 -13.599 -23.991  0.00  0.00    +0.061 C 
ATOM     10  C   UNL     1      34.956 -17.411 -22.167  0.00  0.00    +0.058 A 
ATOM     11  C   UNL     1      33.455 -14.142 -22.669  0.00  0.00    +0.213 C 
ATOM     12  C   UNL     1      34.519 -15.795 -20.297  0.00  0.00    +0.131 C 
ENDROOT
BRANCH   4  13
ATOM     13  N   UNL     1      32.771 -13.797 -26.359  0.00  0.00    -0.301 N 
ATOM     14  C   UNL     1      33.071 -12.398 -26.647  0.00  0.00    +0.112 C 
ATOM     15  C   UNL     1      33.820 -13.495 -27.328  0.00  0.00    +0.112 C 
ENDBRANCH   4  13
BRANCH  10  16
ATOM     16  C   UNL     1      35.496 -18.354 -21.273  0.00  0.00    +0.015 C 
ATOM     17  C   UNL     1      35.001 -19.599 -21.065  0.00  0.00    +0.007 C 
BRANCH  17  18
ATOM     18  C   UNL     1      35.580 -20.578 -20.092  0.00  0.00    +0.163 C 
BRANCH  18  19
ATOM     19  O   UNL     1      36.761 -20.019 -19.532  0.00  0.00    -0.377 OA
ATOM     20  H   UNL     1      36.559 -19.646 -18.659  0.00  0.00    +0.211 HD
ENDBRANCH  18  19
ENDBRANCH  17  18
ENDBRANCH  10  16
BRANCH   8  21
ATOM     21  C   UNL     1      35.114 -18.527 -24.452  0.00  0.00    +0.165 C 
BRANCH  21  22
ATOM     22  O   UNL     1      33.931 -19.045 -25.058  0.00  0.00    -0.377 OA
ATOM     23  H   UNL     1      33.979 -18.920 -26.019  0.00  0.00    +0.211 HD
ENDBRANCH  21  22
ENDBRANCH   8  21
TORSDOF 6
ENDMDL
MODEL 9
REMARK VINA RESULT:      -7.7     13.730     15.378
REMARK  Name = 5813717
REMARK  6 active torsions:
REMARK  status: ('A' for Active; 'I' for Inactive)
REMARK    1  A    between atoms: C_4  and  N_13
REMARK    2  A    between atoms: C_8  and  C_21
REMARK    3  A    between atoms: C_10  and  C_16
REMARK    4  A    between atoms: C_17  and  C_18
REMARK    5  A    between atoms: C_18  and  O_19
REMARK    6  A    between atoms: C_21  and  O_22
REMARK                            x       y       z     vdW  Elec       q    Type
REMARK                         _______ _______ _______ _____ _____    ______ ____
ROOT
ATOM      1  O   UNL     1      33.928  -8.236 -24.132  0.00  0.00    -0.285 OA
ATOM      2  O   UNL     1      31.215 -11.167 -20.494  0.00  0.00    -0.285 OA
ATOM      3  N   UNL     1      32.602 -12.416 -22.831  0.00  0.00    -0.323 N 
ATOM      4  C   UNL     1      32.612  -8.299 -22.129  0.00  0.00    +0.091 C 
ATOM      5  C   UNL     1      33.211 -10.355 -23.402  0.00  0.00    +0.059 A 
ATOM      6  C   UNL     1      32.518 -11.098 -22.472  0.00  0.00    +0.102 A 
ATOM      7  C   UNL     1      33.318  -8.915 -23.314  0.00  0.00    +0.210 C 
ATOM      8  C   UNL     1      33.734 -11.260 -24.359  0.00  0.00    +0.027 A 
ATOM      9  C   UNL     1      31.941  -9.052 -21.235  0.00  0.00    +0.061 C 
ATOM     10  C   UNL     1      33.341 -12.527 -23.981  0.00  0.00    +0.058 A 
ATOM     11  C   UNL     1      31.841 -10.537 -21.340  0.00  0.00    +0.213 C 
ATOM     12  C   UNL     1      32.000 -13.517 -22.105  0.00  0.00    +0.131 C 
ENDROOT
BRANCH   4  13
ATOM     13  N   UNL     1      32.710  -6.938 -22.041  0.00  0.00    -0.301 N 
ATOM     14  C   UNL     1      31.551  -6.152 -22.453  0.00  0.00    +0.112 C 
ATOM     15  C   UNL     1      31.918  -6.272 -21.012  0.00  0.00    +0.112 C 
ENDBRANCH   4  13
BRANCH  10  16
ATOM     16  C   UNL     1      33.561 -13.799 -24.542  0.00  0.00    +0.015 C 
ATOM     17  C   UNL     1      32.918 -14.291 -25.630  0.00  0.00    +0.007 C 
BRANCH  17  18
ATOM     18  C   UNL     1      33.153 -15.656 -26.195  0.00  0.00    +0.163 C 
BRANCH  18  19
ATOM     19  O   UNL     1      34.467 -16.073 -25.849  0.00  0.00    -0.377 OA
ATOM     20  H   UNL     1      34.678 -16.897 -26.316  0.00  0.00    +0.211 HD
ENDBRANCH  18  19
ENDBRANCH  17  18
ENDBRANCH  10  16
BRANCH   8  21
ATOM     21  C   UNL     1      34.547 -10.919 -25.546  0.00  0.00    +0.165 C 
BRANCH  21  22
ATOM     22  O   UNL     1      35.779 -10.328 -25.135  0.00  0.00    -0.377 OA
ATOM     23  H   UNL     1      36.517 -10.891 -25.417  0.00  0.00    +0.211 HD
ENDBRANCH  21  22
ENDBRANCH   8  21
TORSDOF 6
ENDMDL
