MODEL 1
REMARK VINA RESULT:     -10.1      0.000      0.000
REMARK  Name = 5282136
REMARK  11 active torsions:
REMARK  status: ('A' for Active; 'I' for Inactive)
REMARK    1  A    between atoms: C_1  and  C_2
REMARK    2  A    between atoms: C_1  and  O_18
REMARK    3  A    between atoms: C_3  and  C_4
REMARK    4  A    between atoms: C_4  and  N_6
REMARK    5  A    between atoms: C_7  and  C_9
REMARK    6  A    between atoms: C_9  and  S_10
REMARK    7  A    between atoms: S_10  and  C_12
REMARK    8  A    between atoms: C_12  and  C_14
REMARK    9  A    between atoms: O_18  and  C_23
REMARK   10  A    between atoms: C_20  and  C_25
REMARK   11  A    between atoms: C_25  and  N_26
REMARK                            x       y       z     vdW  Elec       q    Type
REMARK                         _______ _______ _______ _____ _____    ______ ____
ROOT
ATOM      1  C   UNL     1      32.916 -14.145 -24.786  0.00  0.00    +0.233 C 
ENDROOT
BRANCH   1   2
ATOM      2  C   UNL     1      33.362 -13.133 -25.789  0.00  0.00    +0.018 C 
ATOM      3  C   UNL     1      33.795 -11.904 -25.468  0.00  0.00    -0.006 C 
BRANCH   3   4
ATOM      4  C   UNL     1      33.883 -11.399 -24.065  0.00  0.00    +0.116 C 
BRANCH   4   6
ATOM      5  O   UNL     1      35.192  -8.866 -23.626  0.00  0.00    -0.274 OA
ATOM      6  N   UNL     1      33.262 -10.107 -23.993  0.00  0.00    -0.300 N 
ATOM      7  C   UNL     1      33.974  -8.933 -23.777  0.00  0.00    +0.236 C 
ATOM      8  H   UNL     1      32.285 -10.050 -24.103  0.00  0.00    +0.150 HD
BRANCH   7   9
ATOM      9  C   UNL     1      33.103  -7.701 -23.766  0.00  0.00    +0.177 C 
BRANCH   9  10
ATOM     10  S   UNL     1      31.512  -8.062 -22.974  0.00  0.00    +0.059 S 
ATOM     11  O   UNL     1      30.672  -6.825 -23.075  0.00  0.00    -0.255 OA
BRANCH  10  12
ATOM     12  C   UNL     1      32.167  -8.142 -21.291  0.00  0.00    +0.156 C 
BRANCH  12  14
ATOM     13  O   UNL     1      31.533 -10.474 -21.532  0.00  0.00    -0.454 OA
ATOM     14  C   UNL     1      31.887  -9.481 -20.677  0.00  0.00    +0.137 C 
ATOM     15  C   UNL     1      31.910  -9.945 -19.382  0.00  0.00    +0.037 C 
ATOM     16  C   UNL     1      31.547 -11.311 -19.447  0.00  0.00    +0.043 C 
ATOM     17  C   UNL     1      31.328 -11.585 -20.777  0.00  0.00    +0.179 C 
ENDBRANCH  12  14
ENDBRANCH  10  12
ENDBRANCH   9  10
ENDBRANCH   7   9
ENDBRANCH   4   6
ENDBRANCH   3   4
ENDBRANCH   1   2
BRANCH   1  18
ATOM     18  O   UNL     1      33.903 -15.165 -24.694  0.00  0.00    -0.455 OA
BRANCH  18  23
ATOM     19  N   UNL     1      33.951 -14.757 -22.409  0.00  0.00    -0.210 NA
ATOM     20  C   UNL     1      35.145 -17.249 -21.992  0.00  0.00    -0.037 C 
ATOM     21  C   UNL     1      34.822 -16.837 -23.280  0.00  0.00    +0.051 C 
ATOM     22  C   UNL     1      34.872 -16.417 -20.912  0.00  0.00    +0.015 C 
ATOM     23  C   UNL     1      34.231 -15.593 -23.434  0.00  0.00    +0.225 C 
ATOM     24  C   UNL     1      34.279 -15.191 -21.172  0.00  0.00    +0.102 C 
BRANCH  20  25
ATOM     25  C   UNL     1      35.788 -18.591 -21.766  0.00  0.00    -0.050 C 
BRANCH  25  26
ATOM     26  N   UNL     1      35.098 -19.359 -20.729  0.00  0.00    +0.390 N 
ATOM     27  C   UNL     1      33.732 -19.688 -21.158  0.00  0.00    -0.077 C 
ATOM     28  C   UNL     1      35.857 -20.573 -20.397  0.00  0.00    -0.077 C 
ATOM     29  C   UNL     1      32.978 -20.448 -20.065  0.00  0.00    -0.023 C 
ATOM     30  C   UNL     1      35.175 -21.362 -19.279  0.00  0.00    -0.023 C 
ATOM     31  C   UNL     1      33.734 -21.704 -19.642  0.00  0.00    -0.004 C 
ATOM     32  H   UNL     1      35.035 -18.788 -19.888  0.00  0.00    -0.079 HD
ENDBRANCH  25  26
ENDBRANCH  20  25
ENDBRANCH  18  23
ENDBRANCH   1  18
TORSDOF 11
ENDMDL
MODEL 2
REMARK VINA RESULT:     -10.0      7.963     13.806
REMARK  Name = 5282136
REMARK  11 active torsions:
REMARK  status: ('A' for Active; 'I' for Inactive)
REMARK    1  A    between atoms: C_1  and  C_2
REMARK    2  A    between atoms: C_1  and  O_18
REMARK    3  A    between atoms: C_3  and  C_4
REMARK    4  A    between atoms: C_4  and  N_6
REMARK    5  A    between atoms: C_7  and  C_9
REMARK    6  A    between atoms: C_9  and  S_10
REMARK    7  A    between atoms: S_10  and  C_12
REMARK    8  A    between atoms: C_12  and  C_14
REMARK    9  A    between atoms: O_18  and  C_23
REMARK   10  A    between atoms: C_20  and  C_25
REMARK   11  A    between atoms: C_25  and  N_26
REMARK                            x       y       z     vdW  Elec       q    Type
REMARK                         _______ _______ _______ _____ _____    ______ ____
ROOT
ATOM      1  C   UNL     1      34.023 -23.227 -17.439  0.00  0.00    +0.233 C 
ENDROOT
BRANCH   1   2
ATOM      2  C   UNL     1      34.370 -22.820 -16.045  0.00  0.00    +0.018 C 
ATOM      3  C   UNL     1      34.724 -23.685 -15.082  0.00  0.00    -0.006 C 
BRANCH   3   4
ATOM      4  C   UNL     1      34.813 -25.161 -15.288  0.00  0.00    +0.116 C 
BRANCH   4   6
ATOM      5  O   UNL     1      36.416 -27.306 -16.361  0.00  0.00    -0.274 OA
ATOM      6  N   UNL     1      36.076 -25.628 -14.790  0.00  0.00    -0.300 N 
ATOM      7  C   UNL     1      36.782 -26.673 -15.373  0.00  0.00    +0.236 C 
ATOM      8  H   UNL     1      36.459 -25.186 -13.998  0.00  0.00    +0.150 HD
BRANCH   7   9
ATOM      9  C   UNL     1      38.093 -26.964 -14.685  0.00  0.00    +0.177 C 
BRANCH   9  10
ATOM     10  S   UNL     1      39.164 -25.500 -14.727  0.00  0.00    +0.059 S 
ATOM     11  O   UNL     1      40.513 -25.948 -15.203  0.00  0.00    -0.255 OA
BRANCH  10  12
ATOM     12  C   UNL     1      39.257 -25.298 -12.933  0.00  0.00    +0.156 C 
BRANCH  12  14
ATOM     13  O   UNL     1      37.098 -25.421 -11.828  0.00  0.00    -0.454 OA
ATOM     14  C   UNL     1      38.026 -24.620 -12.412  0.00  0.00    +0.137 C 
ATOM     15  C   UNL     1      37.611 -23.308 -12.394  0.00  0.00    +0.037 C 
ATOM     16  C   UNL     1      36.347 -23.304 -11.758  0.00  0.00    +0.043 C 
ATOM     17  C   UNL     1      36.079 -24.613 -11.432  0.00  0.00    +0.179 C 
ENDBRANCH  12  14
ENDBRANCH  10  12
ENDBRANCH   9  10
ENDBRANCH   7   9
ENDBRANCH   4   6
ENDBRANCH   3   4
ENDBRANCH   1   2
BRANCH   1  18
ATOM     18  O   UNL     1      34.944 -22.619 -18.336  0.00  0.00    -0.455 OA
BRANCH  18  23
ATOM     19  N   UNL     1      33.099 -21.525 -19.223  0.00  0.00    -0.210 NA
ATOM     20  C   UNL     1      34.793 -19.925 -20.766  0.00  0.00    -0.037 C 
ATOM     21  C   UNL     1      35.325 -20.892 -19.921  0.00  0.00    +0.051 C 
ATOM     22  C   UNL     1      33.414 -19.756 -20.841  0.00  0.00    +0.015 C 
ATOM     23  C   UNL     1      34.443 -21.659 -19.177  0.00  0.00    +0.225 C 
ATOM     24  C   UNL     1      32.618 -20.575 -20.056  0.00  0.00    +0.102 C 
BRANCH  20  25
ATOM     25  C   UNL     1      35.705 -19.062 -21.597  0.00  0.00    -0.050 C 
BRANCH  25  26
ATOM     26  N   UNL     1      34.971 -18.332 -22.632  0.00  0.00    +0.390 N 
ATOM     27  C   UNL     1      35.375 -16.919 -22.647  0.00  0.00    -0.077 C 
ATOM     28  C   UNL     1      35.176 -18.957 -23.945  0.00  0.00    -0.077 C 
ATOM     29  C   UNL     1      34.582 -16.130 -23.690  0.00  0.00    -0.023 C 
ATOM     30  C   UNL     1      34.376 -18.236 -25.031  0.00  0.00    -0.023 C 
ATOM     31  C   UNL     1      34.718 -16.751 -25.077  0.00  0.00    -0.004 C 
ATOM     32  H   UNL     1      33.975 -18.372 -22.416  0.00  0.00    -0.079 HD
ENDBRANCH  25  26
ENDBRANCH  20  25
ENDBRANCH  18  23
ENDBRANCH   1  18
TORSDOF 11
ENDMDL
MODEL 3
REMARK VINA RESULT:     -10.0      4.675      8.339
REMARK  Name = 5282136
REMARK  11 active torsions:
REMARK  status: ('A' for Active; 'I' for Inactive)
REMARK    1  A    between atoms: C_1  and  C_2
REMARK    2  A    between atoms: C_1  and  O_18
REMARK    3  A    between atoms: C_3  and  C_4
REMARK    4  A    between atoms: C_4  and  N_6
REMARK    5  A    between atoms: C_7  and  C_9
REMARK    6  A    between atoms: C_9  and  S_10
REMARK    7  A    between atoms: S_10  and  C_12
REMARK    8  A    between atoms: C_12  and  C_14
REMARK    9  A    between atoms: O_18  and  C_23
REMARK   10  A    between atoms: C_20  and  C_25
REMARK   11  A    between atoms: C_25  and  N_26
REMARK                            x       y       z     vdW  Elec       q    Type
REMARK                         _______ _______ _______ _____ _____    ______ ____
ROOT
ATOM      1  C   UNL     1      33.831 -21.392 -19.826  0.00  0.00    +0.233 C 
ENDROOT
BRANCH   1   2
ATOM      2  C   UNL     1      33.066 -20.204 -20.310  0.00  0.00    +0.018 C 
ATOM      3  C   UNL     1      33.570 -19.281 -21.142  0.00  0.00    -0.006 C 
BRANCH   3   4
ATOM      4  C   UNL     1      34.959 -19.329 -21.687  0.00  0.00    +0.116 C 
BRANCH   4   6
ATOM      5  O   UNL     1      34.515 -19.106 -24.529  0.00  0.00    -0.274 OA
ATOM      6  N   UNL     1      35.182 -18.173 -22.508  0.00  0.00    -0.300 N 
ATOM      7  C   UNL     1      34.938 -18.155 -23.876  0.00  0.00    +0.236 C 
ATOM      8  H   UNL     1      35.521 -17.354 -22.080  0.00  0.00    +0.150 HD
BRANCH   7   9
ATOM      9  C   UNL     1      35.225 -16.818 -24.515  0.00  0.00    +0.177 C 
BRANCH   9  10
ATOM     10  S   UNL     1      33.674 -15.974 -24.930  0.00  0.00    +0.059 S 
ATOM     11  O   UNL     1      33.759 -15.566 -26.370  0.00  0.00    -0.255 OA
BRANCH  10  12
ATOM     12  C   UNL     1      33.998 -14.506 -23.926  0.00  0.00    +0.156 C 
BRANCH  12  14
ATOM     13  O   UNL     1      34.724 -15.161 -21.703  0.00  0.00    -0.454 OA
ATOM     14  C   UNL     1      33.684 -14.770 -22.484  0.00  0.00    +0.137 C 
ATOM     15  C   UNL     1      32.526 -14.701 -21.746  0.00  0.00    +0.037 C 
ATOM     16  C   UNL     1      32.877 -15.073 -20.427  0.00  0.00    +0.043 C 
ATOM     17  C   UNL     1      34.225 -15.343 -20.452  0.00  0.00    +0.179 C 
ENDBRANCH  12  14
ENDBRANCH  10  12
ENDBRANCH   9  10
ENDBRANCH   7   9
ENDBRANCH   4   6
ENDBRANCH   3   4
ENDBRANCH   1   2
BRANCH   1  18
ATOM     18  O   UNL     1      32.915 -22.340 -19.293  0.00  0.00    -0.455 OA
BRANCH  18  23
ATOM     19  N   UNL     1      31.973 -22.938 -17.257  0.00  0.00    -0.210 NA
ATOM     20  C   UNL     1      34.526 -23.146 -16.140  0.00  0.00    -0.037 C 
ATOM     21  C   UNL     1      34.376 -22.783 -17.473  0.00  0.00    +0.051 C 
ATOM     22  C   UNL     1      33.402 -23.405 -15.363  0.00  0.00    +0.015 C 
ATOM     23  C   UNL     1      33.089 -22.695 -17.980  0.00  0.00    +0.225 C 
ATOM     24  C   UNL     1      32.159 -23.288 -15.965  0.00  0.00    +0.102 C 
BRANCH  20  25
ATOM     25  C   UNL     1      35.901 -23.258 -15.537  0.00  0.00    -0.050 C 
BRANCH  25  26
ATOM     26  N   UNL     1      35.987 -24.356 -14.574  0.00  0.00    +0.390 N 
ATOM     27  C   UNL     1      36.978 -25.348 -15.014  0.00  0.00    -0.077 C 
ATOM     28  C   UNL     1      36.307 -23.843 -13.235  0.00  0.00    -0.077 C 
ATOM     29  C   UNL     1      37.045 -26.529 -14.044  0.00  0.00    -0.023 C 
ATOM     30  C   UNL     1      36.351 -24.974 -12.206  0.00  0.00    -0.023 C 
ATOM     31  C   UNL     1      37.336 -26.061 -12.621  0.00  0.00    -0.004 C 
ATOM     32  H   UNL     1      35.080 -24.819 -14.525  0.00  0.00    -0.079 HD
ENDBRANCH  25  26
ENDBRANCH  20  25
ENDBRANCH  18  23
ENDBRANCH   1  18
TORSDOF 11
ENDMDL
MODEL 4
REMARK VINA RESULT:      -9.9      8.038     13.657
REMARK  Name = 5282136
REMARK  11 active torsions:
REMARK  status: ('A' for Active; 'I' for Inactive)
REMARK    1  A    between atoms: C_1  and  C_2
REMARK    2  A    between atoms: C_1  and  O_18
REMARK    3  A    between atoms: C_3  and  C_4
REMARK    4  A    between atoms: C_4  and  N_6
REMARK    5  A    between atoms: C_7  and  C_9
REMARK    6  A    between atoms: C_9  and  S_10
REMARK    7  A    between atoms: S_10  and  C_12
REMARK    8  A    between atoms: C_12  and  C_14
REMARK    9  A    between atoms: O_18  and  C_23
REMARK   10  A    between atoms: C_20  and  C_25
REMARK   11  A    between atoms: C_25  and  N_26
REMARK                            x       y       z     vdW  Elec       q    Type
REMARK                         _______ _______ _______ _____ _____    ______ ____
ROOT
ATOM      1  C   UNL     1      32.035 -22.851 -16.739  0.00  0.00    +0.233 C 
ENDROOT
BRANCH   1   2
ATOM      2  C   UNL     1      31.725 -23.867 -15.688  0.00  0.00    +0.018 C 
ATOM      3  C   UNL     1      32.592 -24.242 -14.735  0.00  0.00    -0.006 C 
BRANCH   3   4
ATOM      4  C   UNL     1      33.973 -23.689 -14.610  0.00  0.00    +0.116 C 
BRANCH   4   6
ATOM      5  O   UNL     1      36.689 -23.619 -15.581  0.00  0.00    -0.274 OA
ATOM      6  N   UNL     1      34.915 -24.773 -14.622  0.00  0.00    -0.300 N 
ATOM      7  C   UNL     1      36.209 -24.648 -15.111  0.00  0.00    +0.236 C 
ATOM      8  H   UNL     1      34.629 -25.645 -14.265  0.00  0.00    +0.150 HD
BRANCH   7   9
ATOM      9  C   UNL     1      37.016 -25.919 -14.993  0.00  0.00    +0.177 C 
BRANCH   9  10
ATOM     10  S   UNL     1      38.701 -25.543 -14.434  0.00  0.00    +0.059 S 
ATOM     11  O   UNL     1      39.600 -26.613 -14.979  0.00  0.00    -0.255 OA
BRANCH  10  12
ATOM     12  C   UNL     1      38.397 -25.920 -12.692  0.00  0.00    +0.156 C 
BRANCH  12  14
ATOM     13  O   UNL     1      36.307 -25.297 -11.624  0.00  0.00    -0.454 OA
ATOM     14  C   UNL     1      37.518 -24.876 -12.071  0.00  0.00    +0.137 C 
ATOM     15  C   UNL     1      37.675 -23.529 -11.843  0.00  0.00    +0.037 C 
ATOM     16  C   UNL     1      36.483 -23.094 -11.216  0.00  0.00    +0.043 C 
ATOM     17  C   UNL     1      35.683 -24.207 -11.105  0.00  0.00    +0.179 C 
ENDBRANCH  12  14
ENDBRANCH  10  12
ENDBRANCH   9  10
ENDBRANCH   7   9
ENDBRANCH   4   6
ENDBRANCH   3   4
ENDBRANCH   1   2
BRANCH   1  18
ATOM     18  O   UNL     1      32.917 -23.433 -17.690  0.00  0.00    -0.455 OA
BRANCH  18  23
ATOM     19  N   UNL     1      35.035 -22.651 -18.228  0.00  0.00    -0.210 NA
ATOM     20  C   UNL     1      33.904 -20.813 -20.004  0.00  0.00    -0.037 C 
ATOM     21  C   UNL     1      33.089 -21.677 -19.281  0.00  0.00    +0.051 C 
ATOM     22  C   UNL     1      35.284 -20.866 -19.840  0.00  0.00    +0.015 C 
ATOM     23  C   UNL     1      33.699 -22.570 -18.414  0.00  0.00    +0.225 C 
ATOM     24  C   UNL     1      35.795 -21.795 -18.948  0.00  0.00    +0.102 C 
BRANCH  20  25
ATOM     25  C   UNL     1      33.295 -19.823 -20.960  0.00  0.00    -0.050 C 
BRANCH  25  26
ATOM     26  N   UNL     1      34.293 -18.895 -21.493  0.00  0.00    +0.390 N 
ATOM     27  C   UNL     1      34.495 -19.129 -22.930  0.00  0.00    -0.077 C 
ATOM     28  C   UNL     1      33.894 -17.505 -21.232  0.00  0.00    -0.077 C 
ATOM     29  C   UNL     1      35.572 -18.200 -23.493  0.00  0.00    -0.023 C 
ATOM     30  C   UNL     1      34.951 -16.523 -21.739  0.00  0.00    -0.023 C 
ATOM     31  C   UNL     1      35.240 -16.736 -23.221  0.00  0.00    -0.004 C 
ATOM     32  H   UNL     1      35.180 -19.062 -21.019  0.00  0.00    -0.079 HD
ENDBRANCH  25  26
ENDBRANCH  20  25
ENDBRANCH  18  23
ENDBRANCH   1  18
TORSDOF 11
ENDMDL
MODEL 5
REMARK VINA RESULT:      -9.7      7.854     13.570
REMARK  Name = 5282136
REMARK  11 active torsions:
REMARK  status: ('A' for Active; 'I' for Inactive)
REMARK    1  A    between atoms: C_1  and  C_2
REMARK    2  A    between atoms: C_1  and  O_18
REMARK    3  A    between atoms: C_3  and  C_4
REMARK    4  A    between atoms: C_4  and  N_6
REMARK    5  A    between atoms: C_7  and  C_9
REMARK    6  A    between atoms: C_9  and  S_10
REMARK    7  A    between atoms: S_10  and  C_12
REMARK    8  A    between atoms: C_12  and  C_14
REMARK    9  A    between atoms: O_18  and  C_23
REMARK   10  A    between atoms: C_20  and  C_25
REMARK   11  A    between atoms: C_25  and  N_26
REMARK                            x       y       z     vdW  Elec       q    Type
REMARK                         _______ _______ _______ _____ _____    ______ ____
ROOT
ATOM      1  C   UNL     1      33.317 -23.322 -16.868  0.00  0.00    +0.233 C 
ENDROOT
BRANCH   1   2
ATOM      2  C   UNL     1      31.943 -23.019 -16.367  0.00  0.00    +0.018 C 
ATOM      3  C   UNL     1      31.370 -23.651 -15.332  0.00  0.00    -0.006 C 
BRANCH   3   4
ATOM      4  C   UNL     1      32.038 -24.736 -14.553  0.00  0.00    +0.116 C 
BRANCH   4   6
ATOM      5  O   UNL     1      34.906 -24.945 -14.311  0.00  0.00    -0.274 OA
ATOM      6  N   UNL     1      32.866 -24.144 -13.540  0.00  0.00    -0.300 N 
ATOM      7  C   UNL     1      34.246 -24.298 -13.501  0.00  0.00    +0.236 C 
ATOM      8  H   UNL     1      32.434 -23.603 -12.840  0.00  0.00    +0.150 HD
BRANCH   7   9
ATOM      9  C   UNL     1      34.897 -23.562 -12.356  0.00  0.00    +0.177 C 
BRANCH   9  10
ATOM     10  S   UNL     1      35.865 -24.711 -11.339  0.00  0.00    +0.059 S 
ATOM     11  O   UNL     1      35.512 -24.444  -9.906  0.00  0.00    -0.255 OA
BRANCH  10  12
ATOM     12  C   UNL     1      37.463 -23.930 -11.663  0.00  0.00    +0.156 C 
BRANCH  12  14
ATOM     13  O   UNL     1      38.037 -23.792 -14.019  0.00  0.00    -0.454 OA
ATOM     14  C   UNL     1      38.107 -24.526 -12.878  0.00  0.00    +0.137 C 
ATOM     15  C   UNL     1      38.782 -25.703 -13.103  0.00  0.00    +0.037 C 
ATOM     16  C   UNL     1      39.151 -25.691 -14.469  0.00  0.00    +0.043 C 
ATOM     17  C   UNL     1      38.675 -24.507 -14.982  0.00  0.00    +0.179 C 
ENDBRANCH  12  14
ENDBRANCH  10  12
ENDBRANCH   9  10
ENDBRANCH   7   9
ENDBRANCH   4   6
ENDBRANCH   3   4
ENDBRANCH   1   2
BRANCH   1  18
ATOM     18  O   UNL     1      33.290 -23.348 -18.290  0.00  0.00    -0.455 OA
BRANCH  18  23
ATOM     19  N   UNL     1      35.345 -22.428 -18.851  0.00  0.00    -0.210 NA
ATOM     20  C   UNL     1      34.048 -20.409 -20.283  0.00  0.00    -0.037 C 
ATOM     21  C   UNL     1      33.307 -21.389 -19.634  0.00  0.00    +0.051 C 
ATOM     22  C   UNL     1      35.437 -20.435 -20.218  0.00  0.00    +0.015 C 
ATOM     23  C   UNL     1      33.998 -22.369 -18.938  0.00  0.00    +0.225 C 
ATOM     24  C   UNL     1      36.031 -21.457 -19.495  0.00  0.00    +0.102 C 
BRANCH  20  25
ATOM     25  C   UNL     1      33.349 -19.321 -21.055  0.00  0.00    -0.050 C 
BRANCH  25  26
ATOM     26  N   UNL     1      34.298 -18.445 -21.743  0.00  0.00    +0.390 N 
ATOM     27  C   UNL     1      34.346 -18.765 -23.176  0.00  0.00    -0.077 C 
ATOM     28  C   UNL     1      33.948 -17.035 -21.525  0.00  0.00    -0.077 C 
ATOM     29  C   UNL     1      35.371 -17.892 -23.903  0.00  0.00    -0.023 C 
ATOM     30  C   UNL     1      34.959 -16.104 -22.197  0.00  0.00    -0.023 C 
ATOM     31  C   UNL     1      35.089 -16.409 -23.685  0.00  0.00    -0.004 C 
ATOM     32  H   UNL     1      35.228 -18.601 -21.354  0.00  0.00    -0.079 HD
ENDBRANCH  25  26
ENDBRANCH  20  25
ENDBRANCH  18  23
ENDBRANCH   1  18
TORSDOF 11
ENDMDL
MODEL 6
REMARK VINA RESULT:      -9.7      2.853      9.741
REMARK  Name = 5282136
REMARK  11 active torsions:
REMARK  status: ('A' for Active; 'I' for Inactive)
REMARK    1  A    between atoms: C_1  and  C_2
REMARK    2  A    between atoms: C_1  and  O_18
REMARK    3  A    between atoms: C_3  and  C_4
REMARK    4  A    between atoms: C_4  and  N_6
REMARK    5  A    between atoms: C_7  and  C_9
REMARK    6  A    between atoms: C_9  and  S_10
REMARK    7  A    between atoms: S_10  and  C_12
REMARK    8  A    between atoms: C_12  and  C_14
REMARK    9  A    between atoms: O_18  and  C_23
REMARK   10  A    between atoms: C_20  and  C_25
REMARK   11  A    between atoms: C_25  and  N_26
REMARK                            x       y       z     vdW  Elec       q    Type
REMARK                         _______ _______ _______ _____ _____    ______ ____
ROOT
ATOM      1  C   UNL     1      32.358 -13.149 -22.364  0.00  0.00    +0.233 C 
ENDROOT
BRANCH   1   2
ATOM      2  C   UNL     1      33.343 -12.650 -23.369  0.00  0.00    +0.018 C 
ATOM      3  C   UNL     1      33.704 -13.335 -24.465  0.00  0.00    -0.006 C 
BRANCH   3   4
ATOM      4  C   UNL     1      33.162 -14.683 -24.812  0.00  0.00    +0.116 C 
BRANCH   4   6
ATOM      5  O   UNL     1      34.727 -16.840 -25.917  0.00  0.00    -0.274 OA
ATOM      6  N   UNL     1      33.892 -15.683 -24.084  0.00  0.00    -0.300 N 
ATOM      7  C   UNL     1      34.623 -16.690 -24.702  0.00  0.00    +0.236 C 
ATOM      8  H   UNL     1      33.874 -15.652 -23.100  0.00  0.00    +0.150 HD
BRANCH   7   9
ATOM      9  C   UNL     1      35.323 -17.604 -23.726  0.00  0.00    +0.177 C 
BRANCH   9  10
ATOM     10  S   UNL     1      34.594 -17.436 -22.074  0.00  0.00    +0.059 S 
ATOM     11  O   UNL     1      34.998 -16.093 -21.543  0.00  0.00    -0.255 OA
BRANCH  10  12
ATOM     12  C   UNL     1      35.650 -18.675 -21.288  0.00  0.00    +0.156 C 
BRANCH  12  14
ATOM     13  O   UNL     1      35.487 -20.627 -19.852  0.00  0.00    -0.454 OA
ATOM     14  C   UNL     1      34.821 -19.742 -20.638  0.00  0.00    +0.137 C 
ATOM     15  C   UNL     1      33.477 -20.034 -20.662  0.00  0.00    +0.037 C 
ATOM     16  C   UNL     1      33.308 -21.172 -19.839  0.00  0.00    +0.043 C 
ATOM     17  C   UNL     1      34.560 -21.494 -19.369  0.00  0.00    +0.179 C 
ENDBRANCH  12  14
ENDBRANCH  10  12
ENDBRANCH   9  10
ENDBRANCH   7   9
ENDBRANCH   4   6
ENDBRANCH   3   4
ENDBRANCH   1   2
BRANCH   1  18
ATOM     18  O   UNL     1      31.319 -12.188 -22.225  0.00  0.00    -0.455 OA
BRANCH  18  23
ATOM     19  N   UNL     1      31.491 -11.513 -20.012  0.00  0.00    -0.210 NA
ATOM     20  C   UNL     1      31.974  -8.891 -20.851  0.00  0.00    -0.037 C 
ATOM     21  C   UNL     1      31.763  -9.896 -21.788  0.00  0.00    +0.051 C 
ATOM     22  C   UNL     1      31.943  -9.195 -19.495  0.00  0.00    +0.015 C 
ATOM     23  C   UNL     1      31.528 -11.180 -21.321  0.00  0.00    +0.225 C 
ATOM     24  C   UNL     1      31.699 -10.509 -19.130  0.00  0.00    +0.102 C 
BRANCH  20  25
ATOM     25  C   UNL     1      32.234  -7.479 -21.303  0.00  0.00    -0.050 C 
BRANCH  25  26
ATOM     26  N   UNL     1      32.681  -7.425 -22.696  0.00  0.00    +0.390 N 
ATOM     27  C   UNL     1      32.282  -6.152 -23.313  0.00  0.00    -0.077 C 
ATOM     28  C   UNL     1      34.134  -7.624 -22.778  0.00  0.00    -0.077 C 
ATOM     29  C   UNL     1      32.698  -6.099 -24.784  0.00  0.00    -0.023 C 
ATOM     30  C   UNL     1      34.610  -7.620 -24.232  0.00  0.00    -0.023 C 
ATOM     31  C   UNL     1      34.195  -6.339 -24.947  0.00  0.00    -0.004 C 
ATOM     32  H   UNL     1      32.230  -8.179 -23.212  0.00  0.00    -0.079 HD
ENDBRANCH  25  26
ENDBRANCH  20  25
ENDBRANCH  18  23
ENDBRANCH   1  18
TORSDOF 11
ENDMDL
MODEL 7
REMARK VINA RESULT:      -9.7      4.386      8.139
REMARK  Name = 5282136
REMARK  11 active torsions:
REMARK  status: ('A' for Active; 'I' for Inactive)
REMARK    1  A    between atoms: C_1  and  C_2
REMARK    2  A    between atoms: C_1  and  O_18
REMARK    3  A    between atoms: C_3  and  C_4
REMARK    4  A    between atoms: C_4  and  N_6
REMARK    5  A    between atoms: C_7  and  C_9
REMARK    6  A    between atoms: C_9  and  S_10
REMARK    7  A    between atoms: S_10  and  C_12
REMARK    8  A    between atoms: C_12  and  C_14
REMARK    9  A    between atoms: O_18  and  C_23
REMARK   10  A    between atoms: C_20  and  C_25
REMARK   11  A    between atoms: C_25  and  N_26
REMARK                            x       y       z     vdW  Elec       q    Type
REMARK                         _______ _______ _______ _____ _____    ______ ____
ROOT
ATOM      1  C   UNL     1      34.655 -21.237 -19.926  0.00  0.00    +0.233 C 
ENDROOT
BRANCH   1   2
ATOM      2  C   UNL     1      33.689 -20.170 -20.327  0.00  0.00    +0.018 C 
ATOM      3  C   UNL     1      33.837 -19.400 -21.415  0.00  0.00    -0.006 C 
BRANCH   3   4
ATOM      4  C   UNL     1      34.987 -19.517 -22.360  0.00  0.00    +0.116 C 
BRANCH   4   6
ATOM      5  O   UNL     1      34.293 -18.886 -25.089  0.00  0.00    -0.274 OA
ATOM      6  N   UNL     1      35.172 -18.261 -23.031  0.00  0.00    -0.300 N 
ATOM      7  C   UNL     1      34.806 -18.045 -24.354  0.00  0.00    +0.236 C 
ATOM      8  H   UNL     1      35.576 -17.517 -22.528  0.00  0.00    +0.150 HD
BRANCH   7   9
ATOM      9  C   UNL     1      35.078 -16.638 -24.826  0.00  0.00    +0.177 C 
BRANCH   9  10
ATOM     10  S   UNL     1      33.517 -15.775 -25.162  0.00  0.00    +0.059 S 
ATOM     11  O   UNL     1      33.579 -15.275 -26.574  0.00  0.00    -0.255 OA
BRANCH  10  12
ATOM     12  C   UNL     1      33.853 -14.373 -24.070  0.00  0.00    +0.156 C 
BRANCH  12  14
ATOM     13  O   UNL     1      34.731 -15.292 -22.000  0.00  0.00    -0.454 OA
ATOM     14  C   UNL     1      33.655 -14.760 -22.635  0.00  0.00    +0.137 C 
ATOM     15  C   UNL     1      32.577 -14.691 -21.783  0.00  0.00    +0.037 C 
ATOM     16  C   UNL     1      33.020 -15.215 -20.546  0.00  0.00    +0.043 C 
ATOM     17  C   UNL     1      34.337 -15.566 -20.729  0.00  0.00    +0.179 C 
ENDBRANCH  12  14
ENDBRANCH  10  12
ENDBRANCH   9  10
ENDBRANCH   7   9
ENDBRANCH   4   6
ENDBRANCH   3   4
ENDBRANCH   1   2
BRANCH   1  18
ATOM     18  O   UNL     1      33.926 -22.344 -19.411  0.00  0.00    -0.455 OA
BRANCH  18  23
ATOM     19  N   UNL     1      35.392 -22.520 -17.621  0.00  0.00    -0.210 NA
ATOM     20  C   UNL     1      33.297 -23.408 -15.997  0.00  0.00    -0.037 C 
ATOM     21  C   UNL     1      33.061 -23.096 -17.330  0.00  0.00    +0.051 C 
ATOM     22  C   UNL     1      34.579 -23.278 -15.473  0.00  0.00    +0.015 C 
ATOM     23  C   UNL     1      34.133 -22.659 -18.093  0.00  0.00    +0.225 C 
ATOM     24  C   UNL     1      35.582 -22.834 -16.319  0.00  0.00    +0.102 C 
BRANCH  20  25
ATOM     25  C   UNL     1      32.170 -23.886 -15.121  0.00  0.00    -0.050 C 
BRANCH  25  26
ATOM     26  N   UNL     1      30.861 -23.580 -15.701  0.00  0.00    +0.390 N 
ATOM     27  C   UNL     1      30.064 -24.806 -15.844  0.00  0.00    -0.077 C 
ATOM     28  C   UNL     1      30.159 -22.581 -14.885  0.00  0.00    -0.077 C 
ATOM     29  C   UNL     1      28.711 -24.511 -16.495  0.00  0.00    -0.023 C 
ATOM     30  C   UNL     1      28.809 -22.212 -15.503  0.00  0.00    -0.023 C 
ATOM     31  C   UNL     1      27.942 -23.447 -15.717  0.00  0.00    -0.004 C 
ATOM     32  H   UNL     1      31.001 -23.185 -16.631  0.00  0.00    -0.079 HD
ENDBRANCH  25  26
ENDBRANCH  20  25
ENDBRANCH  18  23
ENDBRANCH   1  18
TORSDOF 11
ENDMDL
MODEL 8
REMARK VINA RESULT:      -9.6      7.808     13.532
REMARK  Name = 5282136
REMARK  11 active torsions:
REMARK  status: ('A' for Active; 'I' for Inactive)
REMARK    1  A    between atoms: C_1  and  C_2
REMARK    2  A    between atoms: C_1  and  O_18
REMARK    3  A    between atoms: C_3  and  C_4
REMARK    4  A    between atoms: C_4  and  N_6
REMARK    5  A    between atoms: C_7  and  C_9
REMARK    6  A    between atoms: C_9  and  S_10
REMARK    7  A    between atoms: S_10  and  C_12
REMARK    8  A    between atoms: C_12  and  C_14
REMARK    9  A    between atoms: O_18  and  C_23
REMARK   10  A    between atoms: C_20  and  C_25
REMARK   11  A    between atoms: C_25  and  N_26
REMARK                            x       y       z     vdW  Elec       q    Type
REMARK                         _______ _______ _______ _____ _____    ______ ____
ROOT
ATOM      1  C   UNL     1      36.190 -21.947 -18.433  0.00  0.00    +0.233 C 
ENDROOT
BRANCH   1   2
ATOM      2  C   UNL     1      37.038 -21.504 -17.286  0.00  0.00    +0.018 C 
ATOM      3  C   UNL     1      37.020 -22.086 -16.078  0.00  0.00    -0.006 C 
BRANCH   3   4
ATOM      4  C   UNL     1      36.149 -23.249 -15.733  0.00  0.00    +0.116 C 
BRANCH   4   6
ATOM      5  O   UNL     1      35.449 -26.048 -15.681  0.00  0.00    -0.274 OA
ATOM      6  N   UNL     1      36.974 -24.338 -15.292  0.00  0.00    -0.300 N 
ATOM      7  C   UNL     1      36.553 -25.662 -15.302  0.00  0.00    +0.236 C 
ATOM      8  H   UNL     1      37.882 -24.137 -14.969  0.00  0.00    +0.150 HD
BRANCH   7   9
ATOM      9  C   UNL     1      37.607 -26.627 -14.815  0.00  0.00    +0.177 C 
BRANCH   9  10
ATOM     10  S   UNL     1      39.108 -25.729 -14.334  0.00  0.00    +0.059 S 
ATOM     11  O   UNL     1      40.279 -26.599 -14.679  0.00  0.00    -0.255 OA
BRANCH  10  12
ATOM     12  C   UNL     1      38.831 -25.866 -12.552  0.00  0.00    +0.156 C 
BRANCH  12  14
ATOM     13  O   UNL     1      36.590 -25.423 -11.730  0.00  0.00    -0.454 OA
ATOM     14  C   UNL     1      37.783 -24.893 -12.102  0.00  0.00    +0.137 C 
ATOM     15  C   UNL     1      37.763 -23.523 -11.978  0.00  0.00    +0.037 C 
ATOM     16  C   UNL     1      36.474 -23.191 -11.498  0.00  0.00    +0.043 C 
ATOM     17  C   UNL     1      35.798 -24.381 -11.363  0.00  0.00    +0.179 C 
ENDBRANCH  12  14
ENDBRANCH  10  12
ENDBRANCH   9  10
ENDBRANCH   7   9
ENDBRANCH   4   6
ENDBRANCH   3   4
ENDBRANCH   1   2
BRANCH   1  18
ATOM     18  O   UNL     1      36.556 -21.200 -19.587  0.00  0.00    -0.455 OA
BRANCH  18  23
ATOM     19  N   UNL     1      34.308 -20.902 -20.081  0.00  0.00    -0.210 NA
ATOM     20  C   UNL     1      34.913 -18.495 -21.368  0.00  0.00    -0.037 C 
ATOM     21  C   UNL     1      35.927 -19.252 -20.791  0.00  0.00    +0.051 C 
ATOM     22  C   UNL     1      33.597 -18.940 -21.303  0.00  0.00    +0.015 C 
ATOM     23  C   UNL     1      35.575 -20.437 -20.165  0.00  0.00    +0.225 C 
ATOM     24  C   UNL     1      33.350 -20.139 -20.654  0.00  0.00    +0.102 C 
BRANCH  20  25
ATOM     25  C   UNL     1      35.239 -17.199 -22.062  0.00  0.00    -0.050 C 
BRANCH  25  26
ATOM     26  N   UNL     1      34.108 -16.271 -22.042  0.00  0.00    +0.390 N 
ATOM     27  C   UNL     1      34.091 -15.510 -20.785  0.00  0.00    -0.077 C 
ATOM     28  C   UNL     1      34.156 -15.376 -23.205  0.00  0.00    -0.077 C 
ATOM     29  C   UNL     1      32.886 -14.570 -20.726  0.00  0.00    -0.023 C 
ATOM     30  C   UNL     1      32.953 -14.431 -23.226  0.00  0.00    -0.023 C 
ATOM     31  C   UNL     1      32.852 -13.635 -21.931  0.00  0.00    -0.004 C 
ATOM     32  H   UNL     1      33.243 -16.809 -22.095  0.00  0.00    -0.079 HD
ENDBRANCH  25  26
ENDBRANCH  20  25
ENDBRANCH  18  23
ENDBRANCH   1  18
TORSDOF 11
ENDMDL
MODEL 9
REMARK VINA RESULT:      -9.6      4.413      7.766
REMARK  Name = 5282136
REMARK  11 active torsions:
REMARK  status: ('A' for Active; 'I' for Inactive)
REMARK    1  A    between atoms: C_1  and  C_2
REMARK    2  A    between atoms: C_1  and  O_18
REMARK    3  A    between atoms: C_3  and  C_4
REMARK    4  A    between atoms: C_4  and  N_6
REMARK    5  A    between atoms: C_7  and  C_9
REMARK    6  A    between atoms: C_9  and  S_10
REMARK    7  A    between atoms: S_10  and  C_12
REMARK    8  A    between atoms: C_12  and  C_14
REMARK    9  A    between atoms: O_18  and  C_23
REMARK   10  A    between atoms: C_20  and  C_25
REMARK   11  A    between atoms: C_25  and  N_26
REMARK                            x       y       z     vdW  Elec       q    Type
REMARK                         _______ _______ _______ _____ _____    ______ ____
ROOT
ATOM      1  C   UNL     1      34.579 -21.587 -19.843  0.00  0.00    +0.233 C 
ENDROOT
BRANCH   1   2
ATOM      2  C   UNL     1      33.309 -20.811 -19.969  0.00  0.00    +0.018 C 
ATOM      3  C   UNL     1      33.196 -19.674 -20.672  0.00  0.00    -0.006 C 
BRANCH   3   4
ATOM      4  C   UNL     1      34.329 -19.046 -21.415  0.00  0.00    +0.116 C 
BRANCH   4   6
ATOM      5  O   UNL     1      34.468 -16.855 -23.287  0.00  0.00    -0.274 OA
ATOM      6  N   UNL     1      34.374 -17.645 -21.104  0.00  0.00    -0.300 N 
ATOM      7  C   UNL     1      34.440 -16.653 -22.075  0.00  0.00    +0.236 C 
ATOM      8  H   UNL     1      34.356 -17.375 -20.157  0.00  0.00    +0.150 HD
BRANCH   7   9
ATOM      9  C   UNL     1      34.453 -15.257 -21.501  0.00  0.00    +0.177 C 
BRANCH   9  10
ATOM     10  S   UNL     1      32.842 -14.866 -20.764  0.00  0.00    +0.059 S 
ATOM     11  O   UNL     1      31.993 -16.098 -20.867  0.00  0.00    -0.255 OA
BRANCH  10  12
ATOM     12  C   UNL     1      32.320 -13.733 -22.072  0.00  0.00    +0.156 C 
BRANCH  12  14
ATOM     13  O   UNL     1      31.895 -11.361 -22.380  0.00  0.00    -0.454 OA
ATOM     14  C   UNL     1      31.959 -12.395 -21.501  0.00  0.00    +0.137 C 
ATOM     15  C   UNL     1      31.666 -11.964 -20.228  0.00  0.00    +0.037 C 
ATOM     16  C   UNL     1      31.405 -10.577 -20.332  0.00  0.00    +0.043 C 
ATOM     17  C   UNL     1      31.557 -10.259 -21.661  0.00  0.00    +0.179 C 
ENDBRANCH  12  14
ENDBRANCH  10  12
ENDBRANCH   9  10
ENDBRANCH   7   9
ENDBRANCH   4   6
ENDBRANCH   3   4
ENDBRANCH   1   2
BRANCH   1  18
ATOM     18  O   UNL     1      34.316 -22.781 -19.117  0.00  0.00    -0.455 OA
BRANCH  18  23
ATOM     19  N   UNL     1      35.928 -22.408 -17.490  0.00  0.00    -0.210 NA
ATOM     20  C   UNL     1      34.107 -23.172 -15.513  0.00  0.00    -0.037 C 
ATOM     21  C   UNL     1      33.727 -23.175 -16.850  0.00  0.00    +0.051 C 
ATOM     22  C   UNL     1      35.397 -22.788 -15.162  0.00  0.00    +0.015 C 
ATOM     23  C   UNL     1      34.667 -22.787 -17.792  0.00  0.00    +0.225 C 
ATOM     24  C   UNL     1      36.261 -22.418 -16.180  0.00  0.00    +0.102 C 
BRANCH  20  25
ATOM     25  C   UNL     1      33.126 -23.584 -14.447  0.00  0.00    -0.050 C 
BRANCH  25  26
ATOM     26  N   UNL     1      31.828 -23.953 -15.013  0.00  0.00    +0.390 N 
ATOM     27  C   UNL     1      31.283 -25.129 -14.322  0.00  0.00    -0.077 C 
ATOM     28  C   UNL     1      30.898 -22.818 -14.947  0.00  0.00    -0.077 C 
ATOM     29  C   UNL     1      29.948 -25.559 -14.934  0.00  0.00    -0.023 C 
ATOM     30  C   UNL     1      29.550 -23.171 -15.580  0.00  0.00    -0.023 C 
ATOM     31  C   UNL     1      28.943 -24.411 -14.934  0.00  0.00    -0.004 C 
ATOM     32  H   UNL     1      31.958 -24.197 -15.995  0.00  0.00    -0.079 HD
ENDBRANCH  25  26
ENDBRANCH  20  25
ENDBRANCH  18  23
ENDBRANCH   1  18
TORSDOF 11
ENDMDL
