MODEL 1
REMARK VINA RESULT:     -11.2      0.000      0.000
REMARK  Name = 24779678
REMARK  5 active torsions:
REMARK  status: ('A' for Active; 'I' for Inactive)
REMARK    1  A    between atoms: N_1  and  C_22
REMARK    2  A    between atoms: N_6  and  C_14
REMARK    3  A    between atoms: C_10  and  C_21
REMARK    4  A    between atoms: C_22  and  C_23
REMARK    5  A    between atoms: C_23  and  C_26
REMARK                            x       y       z     vdW  Elec       q    Type
REMARK                         _______ _______ _______ _____ _____    ______ ____
ROOT
ATOM      1  N   UNL     1      31.415 -24.225 -14.740  0.00  0.00    -0.294 N 
ATOM      2  N   UNL     1      33.713 -23.845 -15.123  0.00  0.00    -0.123 N 
ATOM      3  N   UNL     1      32.223 -23.348 -16.788  0.00  0.00    -0.295 NA
ATOM      4  N   UNL     1      34.557 -22.976 -17.140  0.00  0.00    -0.314 NA
ATOM      5  N   UNL     1      34.056 -24.287 -13.900  0.00  0.00    -0.170 NA
ATOM      6  N   UNL     1      33.040 -22.476 -18.825  0.00  0.00    -0.238 N 
ATOM      7  C   UNL     1      32.406 -23.799 -15.582  0.00  0.00    +0.276 C 
ATOM      8  C   UNL     1      34.769 -23.441 -15.889  0.00  0.00    +0.219 C 
ATOM      9  C   UNL     1      33.310 -22.939 -17.559  0.00  0.00    +0.207 C 
ATOM     10  C   UNL     1      35.884 -23.631 -15.106  0.00  0.00    +0.203 C 
ATOM     11  C   UNL     1      35.386 -24.153 -13.896  0.00  0.00    +0.116 C 
ATOM     12  H   UNL     1      31.659 -24.549 -13.844  0.00  0.00    +0.150 HD
ATOM     13  H   UNL     1      32.252 -22.854 -19.275  0.00  0.00    +0.166 HD
ENDROOT
BRANCH   6  14
ATOM     14  C   UNL     1      33.769 -21.526 -19.536  0.00  0.00    +0.058 C 
ATOM     15  C   UNL     1      35.160 -21.611 -19.591  0.00  0.00    +0.015 C 
ATOM     16  C   UNL     1      33.108 -20.490 -20.196  0.00  0.00    +0.015 C 
ATOM     17  C   UNL     1      35.889 -20.661 -20.304  0.00  0.00    +0.001 C 
ATOM     18  C   UNL     1      33.837 -19.539 -20.909  0.00  0.00    +0.001 C 
ATOM     19  C   UNL     1      35.229 -19.624 -20.963  0.00  0.00    +0.000 C 
ENDBRANCH   6  14
BRANCH  10  21
ATOM     20  N   UNL     1      38.332 -23.131 -15.757  0.00  0.00    -0.195 NA
ATOM     21  C   UNL     1      37.231 -23.355 -15.464  0.00  0.00    +0.087 C 
ENDBRANCH  10  21
BRANCH   1  22
ATOM     22  C   UNL     1      30.034 -24.215 -15.118  0.00  0.00    +0.096 C 
BRANCH  22  23
ATOM     23  C   UNL     1      29.415 -22.837 -14.889  0.00  0.00    +0.063 C 
BRANCH  23  26
ATOM     24  N   UNL     1      28.374 -22.681 -17.183  0.00  0.00    -0.319 N 
ATOM     25  N   UNL     1      26.308 -21.961 -16.799  0.00  0.00    -0.315 N 
ATOM     26  C   UNL     1      28.274 -22.535 -15.828  0.00  0.00    +0.039 C 
ATOM     27  C   UNL     1      26.991 -22.089 -15.615  0.00  0.00    +0.069 C 
ATOM     28  C   UNL     1      27.170 -22.324 -17.723  0.00  0.00    +0.182 C 
ATOM     29  H   UNL     1      29.167 -22.986 -17.679  0.00  0.00    +0.148 HD
ATOM     30  H   UNL     1      25.380 -21.662 -16.928  0.00  0.00    +0.148 HD
ENDBRANCH  23  26
ENDBRANCH  22  23
ENDBRANCH   1  22
TORSDOF 5
ENDMDL
MODEL 2
REMARK VINA RESULT:     -10.9      2.009      7.095
REMARK  Name = 24779678
REMARK  5 active torsions:
REMARK  status: ('A' for Active; 'I' for Inactive)
REMARK    1  A    between atoms: N_1  and  C_22
REMARK    2  A    between atoms: N_6  and  C_14
REMARK    3  A    between atoms: C_10  and  C_21
REMARK    4  A    between atoms: C_22  and  C_23
REMARK    5  A    between atoms: C_23  and  C_26
REMARK                            x       y       z     vdW  Elec       q    Type
REMARK                         _______ _______ _______ _____ _____    ______ ____
ROOT
ATOM      1  N   UNL     1      32.692 -22.108 -18.693  0.00  0.00    -0.294 N 
ATOM      2  N   UNL     1      31.993 -23.001 -16.622  0.00  0.00    -0.123 N 
ATOM      3  N   UNL     1      34.208 -23.131 -17.185  0.00  0.00    -0.295 NA
ATOM      4  N   UNL     1      33.465 -24.023 -15.097  0.00  0.00    -0.314 NA
ATOM      5  N   UNL     1      30.710 -22.660 -16.835  0.00  0.00    -0.170 NA
ATOM      6  N   UNL     1      35.709 -24.153 -15.675  0.00  0.00    -0.238 N 
ATOM      7  C   UNL     1      33.013 -22.744 -17.524  0.00  0.00    +0.276 C 
ATOM      8  C   UNL     1      32.216 -23.629 -15.430  0.00  0.00    +0.219 C 
ATOM      9  C   UNL     1      34.420 -23.771 -15.965  0.00  0.00    +0.207 C 
ATOM     10  C   UNL     1      30.985 -23.702 -14.819  0.00  0.00    +0.203 C 
ATOM     11  C   UNL     1      30.098 -23.092 -15.728  0.00  0.00    +0.116 C 
ATOM     12  H   UNL     1      31.755 -21.856 -18.854  0.00  0.00    +0.150 HD
ATOM     13  H   UNL     1      36.285 -24.379 -16.439  0.00  0.00    +0.166 HD
ENDROOT
BRANCH   6  14
ATOM     14  C   UNL     1      36.282 -24.252 -14.410  0.00  0.00    +0.058 C 
ATOM     15  C   UNL     1      36.664 -25.499 -13.913  0.00  0.00    +0.015 C 
ATOM     16  C   UNL     1      36.478 -23.106 -13.640  0.00  0.00    +0.015 C 
ATOM     17  C   UNL     1      37.239 -25.599 -12.647  0.00  0.00    +0.001 C 
ATOM     18  C   UNL     1      37.053 -23.206 -12.374  0.00  0.00    +0.001 C 
ATOM     19  C   UNL     1      37.434 -24.452 -11.877  0.00  0.00    +0.000 C 
ENDBRANCH   6  14
BRANCH  10  21
ATOM     20  N   UNL     1      30.466 -24.742 -12.514  0.00  0.00    -0.195 NA
ATOM     21  C   UNL     1      30.699 -24.274 -13.550  0.00  0.00    +0.087 C 
ENDBRANCH  10  21
BRANCH   1  22
ATOM     22  C   UNL     1      33.672 -21.796 -19.687  0.00  0.00    +0.096 C 
BRANCH  22  23
ATOM     23  C   UNL     1      33.291 -20.527 -20.450  0.00  0.00    +0.063 C 
BRANCH  23  26
ATOM     24  N   UNL     1      35.698 -19.775 -20.340  0.00  0.00    -0.319 N 
ATOM     25  N   UNL     1      35.950 -18.481 -22.127  0.00  0.00    -0.315 N 
ATOM     26  C   UNL     1      34.486 -19.766 -20.970  0.00  0.00    +0.039 C 
ATOM     27  C   UNL     1      34.665 -18.960 -22.069  0.00  0.00    +0.069 C 
ATOM     28  C   UNL     1      36.546 -18.989 -21.071  0.00  0.00    +0.182 C 
ATOM     29  H   UNL     1      35.922 -20.257 -19.512  0.00  0.00    +0.148 HD
ATOM     30  H   UNL     1      36.339 -17.886 -22.808  0.00  0.00    +0.148 HD
ENDBRANCH  23  26
ENDBRANCH  22  23
ENDBRANCH   1  22
TORSDOF 5
ENDMDL
MODEL 3
REMARK VINA RESULT:     -10.3      2.590      7.433
REMARK  Name = 24779678
REMARK  5 active torsions:
REMARK  status: ('A' for Active; 'I' for Inactive)
REMARK    1  A    between atoms: N_1  and  C_22
REMARK    2  A    between atoms: N_6  and  C_14
REMARK    3  A    between atoms: C_10  and  C_21
REMARK    4  A    between atoms: C_22  and  C_23
REMARK    5  A    between atoms: C_23  and  C_26
REMARK                            x       y       z     vdW  Elec       q    Type
REMARK                         _______ _______ _______ _____ _____    ______ ____
ROOT
ATOM      1  N   UNL     1      37.022 -22.850 -13.466  0.00  0.00    -0.294 N 
ATOM      2  N   UNL     1      35.917 -22.722 -15.548  0.00  0.00    -0.123 N 
ATOM      3  N   UNL     1      34.810 -23.643 -13.770  0.00  0.00    -0.295 NA
ATOM      4  N   UNL     1      33.722 -23.497 -15.892  0.00  0.00    -0.314 NA
ATOM      5  N   UNL     1      36.974 -22.143 -16.146  0.00  0.00    -0.170 NA
ATOM      6  N   UNL     1      32.605 -24.431 -14.085  0.00  0.00    -0.238 N 
ATOM      7  C   UNL     1      35.901 -23.091 -14.213  0.00  0.00    +0.276 C 
ATOM      8  C   UNL     1      34.847 -22.921 -16.372  0.00  0.00    +0.219 C 
ATOM      9  C   UNL     1      33.725 -23.841 -14.623  0.00  0.00    +0.207 C 
ATOM     10  C   UNL     1      35.234 -22.434 -17.600  0.00  0.00    +0.203 C 
ATOM     11  C   UNL     1      36.549 -21.969 -17.401  0.00  0.00    +0.116 C 
ATOM     12  H   UNL     1      37.798 -22.426 -13.897  0.00  0.00    +0.150 HD
ATOM     13  H   UNL     1      32.751 -25.062 -13.345  0.00  0.00    +0.166 HD
ENDROOT
BRANCH   6  14
ATOM     14  C   UNL     1      31.286 -24.227 -14.481  0.00  0.00    +0.058 C 
ATOM     15  C   UNL     1      30.835 -22.939 -14.768  0.00  0.00    +0.015 C 
ATOM     16  C   UNL     1      30.416 -25.312 -14.592  0.00  0.00    +0.015 C 
ATOM     17  C   UNL     1      29.514 -22.736 -15.166  0.00  0.00    +0.001 C 
ATOM     18  C   UNL     1      29.095 -25.108 -14.990  0.00  0.00    +0.001 C 
ATOM     19  C   UNL     1      28.643 -23.820 -15.276  0.00  0.00    +0.000 C 
ENDBRANCH   6  14
BRANCH  10  21
ATOM     20  N   UNL     1      33.824 -22.401 -19.762  0.00  0.00    -0.195 NA
ATOM     21  C   UNL     1      34.458 -22.416 -18.790  0.00  0.00    +0.087 C 
ENDBRANCH  10  21
BRANCH   1  22
ATOM     22  C   UNL     1      37.105 -23.192 -12.078  0.00  0.00    +0.096 C 
BRANCH  22  23
ATOM     23  C   UNL     1      38.089 -24.340 -11.857  0.00  0.00    +0.063 C 
BRANCH  23  26
ATOM     24  N   UNL     1      36.888 -26.204 -13.064  0.00  0.00    -0.319 N 
ATOM     25  N   UNL     1      38.331 -26.870 -14.615  0.00  0.00    -0.315 N 
ATOM     26  C   UNL     1      37.993 -25.415 -12.911  0.00  0.00    +0.039 C 
ATOM     27  C   UNL     1      38.871 -25.846 -13.878  0.00  0.00    +0.069 C 
ATOM     28  C   UNL     1      37.138 -27.062 -14.099  0.00  0.00    +0.182 C 
ATOM     29  H   UNL     1      36.064 -26.162 -12.527  0.00  0.00    +0.148 HD
ATOM     30  H   UNL     1      38.747 -27.355 -15.364  0.00  0.00    +0.148 HD
ENDBRANCH  23  26
ENDBRANCH  22  23
ENDBRANCH   1  22
TORSDOF 5
ENDMDL
MODEL 4
REMARK VINA RESULT:      -9.7      6.763     10.599
REMARK  Name = 24779678
REMARK  5 active torsions:
REMARK  status: ('A' for Active; 'I' for Inactive)
REMARK    1  A    between atoms: N_1  and  C_22
REMARK    2  A    between atoms: N_6  and  C_14
REMARK    3  A    between atoms: C_10  and  C_21
REMARK    4  A    between atoms: C_22  and  C_23
REMARK    5  A    between atoms: C_23  and  C_26
REMARK                            x       y       z     vdW  Elec       q    Type
REMARK                         _______ _______ _______ _____ _____    ______ ____
ROOT
ATOM      1  N   UNL     1      35.145 -17.712 -22.162  0.00  0.00    -0.294 N 
ATOM      2  N   UNL     1      34.236 -16.252 -23.780  0.00  0.00    -0.123 N 
ATOM      3  N   UNL     1      33.756 -15.885 -21.572  0.00  0.00    -0.295 NA
ATOM      4  N   UNL     1      32.855 -14.427 -23.237  0.00  0.00    -0.314 NA
ATOM      5  N   UNL     1      34.816 -16.915 -24.797  0.00  0.00    -0.170 NA
ATOM      6  N   UNL     1      32.371 -14.060 -20.996  0.00  0.00    -0.238 N 
ATOM      7  C   UNL     1      34.375 -16.618 -22.450  0.00  0.00    +0.276 C 
ATOM      8  C   UNL     1      33.490 -15.176 -24.165  0.00  0.00    +0.219 C 
ATOM      9  C   UNL     1      32.997 -14.789 -21.980  0.00  0.00    +0.207 C 
ATOM     10  C   UNL     1      33.591 -15.132 -25.537  0.00  0.00    +0.203 C 
ATOM     11  C   UNL     1      34.417 -16.224 -25.869  0.00  0.00    +0.116 C 
ATOM     12  H   UNL     1      35.571 -18.201 -22.901  0.00  0.00    +0.150 HD
ATOM     13  H   UNL     1      32.104 -14.551 -20.186  0.00  0.00    +0.166 HD
ENDROOT
BRANCH   6  14
ATOM     14  C   UNL     1      32.074 -12.700 -21.029  0.00  0.00    +0.058 C 
ATOM     15  C   UNL     1      31.865 -12.003 -19.839  0.00  0.00    +0.015 C 
ATOM     16  C   UNL     1      31.989 -12.034 -22.251  0.00  0.00    +0.015 C 
ATOM     17  C   UNL     1      31.570 -10.641 -19.872  0.00  0.00    +0.001 C 
ATOM     18  C   UNL     1      31.693 -10.672 -22.284  0.00  0.00    +0.001 C 
ATOM     19  C   UNL     1      31.483  -9.975 -21.094  0.00  0.00    +0.000 C 
ENDBRANCH   6  14
BRANCH  10  21
ATOM     20  N   UNL     1      32.490 -13.408 -27.111  0.00  0.00    -0.195 NA
ATOM     21  C   UNL     1      32.985 -14.184 -26.404  0.00  0.00    +0.087 C 
ENDBRANCH  10  21
BRANCH   1  22
ATOM     22  C   UNL     1      35.351 -18.170 -20.822  0.00  0.00    +0.096 C 
BRANCH  22  23
ATOM     23  C   UNL     1      35.764 -19.641 -20.805  0.00  0.00    +0.063 C 
BRANCH  23  26
ATOM     24  N   UNL     1      35.014 -21.659 -19.485  0.00  0.00    -0.319 N 
ATOM     25  N   UNL     1      32.797 -21.568 -19.558  0.00  0.00    -0.315 N 
ATOM     26  C   UNL     1      34.709 -20.546 -20.217  0.00  0.00    +0.039 C 
ATOM     27  C   UNL     1      33.335 -20.512 -20.249  0.00  0.00    +0.069 C 
ATOM     28  C   UNL     1      33.835 -22.240 -19.111  0.00  0.00    +0.182 C 
ATOM     29  H   UNL     1      35.918 -21.983 -19.267  0.00  0.00    +0.148 HD
ATOM     30  H   UNL     1      31.844 -21.778 -19.427  0.00  0.00    +0.148 HD
ENDBRANCH  23  26
ENDBRANCH  22  23
ENDBRANCH   1  22
TORSDOF 5
ENDMDL
MODEL 5
REMARK VINA RESULT:      -9.6      2.532      6.213
REMARK  Name = 24779678
REMARK  5 active torsions:
REMARK  status: ('A' for Active; 'I' for Inactive)
REMARK    1  A    between atoms: N_1  and  C_22
REMARK    2  A    between atoms: N_6  and  C_14
REMARK    3  A    between atoms: C_10  and  C_21
REMARK    4  A    between atoms: C_22  and  C_23
REMARK    5  A    between atoms: C_23  and  C_26
REMARK                            x       y       z     vdW  Elec       q    Type
REMARK                         _______ _______ _______ _____ _____    ______ ____
ROOT
ATOM      1  N   UNL     1      37.430 -21.848 -17.359  0.00  0.00    -0.294 N 
ATOM      2  N   UNL     1      37.186 -23.367 -15.568  0.00  0.00    -0.123 N 
ATOM      3  N   UNL     1      35.328 -22.286 -16.354  0.00  0.00    -0.295 NA
ATOM      4  N   UNL     1      35.119 -23.831 -14.544  0.00  0.00    -0.314 NA
ATOM      5  N   UNL     1      38.499 -23.658 -15.552  0.00  0.00    -0.170 NA
ATOM      6  N   UNL     1      33.239 -22.730 -15.345  0.00  0.00    -0.238 N 
ATOM      7  C   UNL     1      36.612 -22.469 -16.454  0.00  0.00    +0.276 C 
ATOM      8  C   UNL     1      36.452 -24.036 -14.631  0.00  0.00    +0.219 C 
ATOM      9  C   UNL     1      34.592 -22.975 -15.392  0.00  0.00    +0.207 C 
ATOM     10  C   UNL     1      37.354 -24.824 -13.952  0.00  0.00    +0.203 C 
ATOM     11  C   UNL     1      38.595 -24.550 -14.560  0.00  0.00    +0.116 C 
ATOM     12  H   UNL     1      38.391 -22.056 -17.352  0.00  0.00    +0.150 HD
ATOM     13  H   UNL     1      32.943 -21.833 -15.621  0.00  0.00    +0.166 HD
ENDROOT
BRANCH   6  14
ATOM     14  C   UNL     1      32.245 -23.620 -14.947  0.00  0.00    +0.058 C 
ATOM     15  C   UNL     1      32.302 -24.210 -13.685  0.00  0.00    +0.015 C 
ATOM     16  C   UNL     1      31.191 -23.920 -15.810  0.00  0.00    +0.015 C 
ATOM     17  C   UNL     1      31.306 -25.100 -13.286  0.00  0.00    +0.001 C 
ATOM     18  C   UNL     1      30.196 -24.811 -15.411  0.00  0.00    +0.001 C 
ATOM     19  C   UNL     1      30.253 -25.402 -14.149  0.00  0.00    +0.000 C 
ENDBRANCH   6  14
BRANCH  10  21
ATOM     20  N   UNL     1      36.836 -26.431 -12.000  0.00  0.00    -0.195 NA
ATOM     21  C   UNL     1      37.070 -25.708 -12.878  0.00  0.00    +0.087 C 
ENDBRANCH  10  21
BRANCH   1  22
ATOM     22  C   UNL     1      36.934 -20.906 -18.316  0.00  0.00    +0.096 C 
BRANCH  22  23
ATOM     23  C   UNL     1      36.314 -21.622 -19.515  0.00  0.00    +0.063 C 
BRANCH  23  26
ATOM     24  N   UNL     1      34.668 -20.063 -20.627  0.00  0.00    -0.319 N 
ATOM     25  N   UNL     1      32.679 -20.833 -20.005  0.00  0.00    -0.315 N 
ATOM     26  C   UNL     1      34.917 -21.146 -19.832  0.00  0.00    +0.039 C 
ATOM     27  C   UNL     1      33.675 -21.603 -19.459  0.00  0.00    +0.069 C 
ATOM     28  C   UNL     1      33.311 -19.914 -20.702  0.00  0.00    +0.182 C 
ATOM     29  H   UNL     1      35.341 -19.494 -21.065  0.00  0.00    +0.148 HD
ATOM     30  H   UNL     1      31.707 -20.943 -19.898  0.00  0.00    +0.148 HD
ENDBRANCH  23  26
ENDBRANCH  22  23
ENDBRANCH   1  22
TORSDOF 5
ENDMDL
MODEL 6
REMARK VINA RESULT:      -9.4      2.530      7.494
REMARK  Name = 24779678
REMARK  5 active torsions:
REMARK  status: ('A' for Active; 'I' for Inactive)
REMARK    1  A    between atoms: N_1  and  C_22
REMARK    2  A    between atoms: N_6  and  C_14
REMARK    3  A    between atoms: C_10  and  C_21
REMARK    4  A    between atoms: C_22  and  C_23
REMARK    5  A    between atoms: C_23  and  C_26
REMARK                            x       y       z     vdW  Elec       q    Type
REMARK                         _______ _______ _______ _____ _____    ______ ____
ROOT
ATOM      1  N   UNL     1      34.774 -21.741 -19.319  0.00  0.00    -0.294 N 
ATOM      2  N   UNL     1      33.665 -22.710 -17.474  0.00  0.00    -0.123 N 
ATOM      3  N   UNL     1      35.953 -22.721 -17.512  0.00  0.00    -0.295 NA
ATOM      4  N   UNL     1      34.797 -23.691 -15.660  0.00  0.00    -0.314 NA
ATOM      5  N   UNL     1      32.449 -22.427 -17.974  0.00  0.00    -0.170 NA
ATOM      6  N   UNL     1      37.118 -23.700 -15.706  0.00  0.00    -0.238 N 
ATOM      7  C   UNL     1      34.850 -22.385 -18.114  0.00  0.00    +0.276 C 
ATOM      8  C   UNL     1      33.640 -23.351 -16.269  0.00  0.00    +0.219 C 
ATOM      9  C   UNL     1      35.912 -23.375 -16.282  0.00  0.00    +0.207 C 
ATOM     10  C   UNL     1      32.306 -23.497 -15.958  0.00  0.00    +0.203 C 
ATOM     11  C   UNL     1      31.622 -22.912 -17.042  0.00  0.00    +0.116 C 
ATOM     12  H   UNL     1      33.887 -21.532 -19.690  0.00  0.00    +0.150 HD
ATOM     13  H   UNL     1      37.866 -23.882 -16.319  0.00  0.00    +0.166 HD
ENDROOT
BRANCH   6  14
ATOM     14  C   UNL     1      37.389 -23.798 -14.344  0.00  0.00    +0.058 C 
ATOM     15  C   UNL     1      36.799 -22.906 -13.449  0.00  0.00    +0.015 C 
ATOM     16  C   UNL     1      38.249 -24.790 -13.874  0.00  0.00    +0.015 C 
ATOM     17  C   UNL     1      37.070 -23.005 -12.084  0.00  0.00    +0.001 C 
ATOM     18  C   UNL     1      38.520 -24.889 -12.509  0.00  0.00    +0.001 C 
ATOM     19  C   UNL     1      37.931 -23.996 -11.614  0.00  0.00    +0.000 C 
ENDBRANCH   6  14
BRANCH  10  21
ATOM     20  N   UNL     1      31.325 -24.609 -13.846  0.00  0.00    -0.195 NA
ATOM     21  C   UNL     1      31.766 -24.108 -14.795  0.00  0.00    +0.087 C 
ENDBRANCH  10  21
BRANCH   1  22
ATOM     22  C   UNL     1      35.939 -21.361 -20.058  0.00  0.00    +0.096 C 
BRANCH  22  23
ATOM     23  C   UNL     1      36.093 -19.841 -20.090  0.00  0.00    +0.063 C 
BRANCH  23  26
ATOM     24  N   UNL     1      34.731 -19.652 -22.207  0.00  0.00    -0.319 N 
ATOM     25  N   UNL     1      35.740 -18.050 -23.367  0.00  0.00    -0.315 N 
ATOM     26  C   UNL     1      35.784 -19.242 -21.440  0.00  0.00    +0.039 C 
ATOM     27  C   UNL     1      36.393 -18.253 -22.177  0.00  0.00    +0.069 C 
ATOM     28  C   UNL     1      34.745 -18.908 -23.354  0.00  0.00    +0.182 C 
ATOM     29  H   UNL     1      34.081 -20.354 -21.977  0.00  0.00    +0.148 HD
ATOM     30  H   UNL     1      35.968 -17.404 -24.074  0.00  0.00    +0.148 HD
ENDBRANCH  23  26
ENDBRANCH  22  23
ENDBRANCH   1  22
TORSDOF 5
ENDMDL
MODEL 7
REMARK VINA RESULT:      -9.3      1.994      6.664
REMARK  Name = 24779678
REMARK  5 active torsions:
REMARK  status: ('A' for Active; 'I' for Inactive)
REMARK    1  A    between atoms: N_1  and  C_22
REMARK    2  A    between atoms: N_6  and  C_14
REMARK    3  A    between atoms: C_10  and  C_21
REMARK    4  A    between atoms: C_22  and  C_23
REMARK    5  A    between atoms: C_23  and  C_26
REMARK                            x       y       z     vdW  Elec       q    Type
REMARK                         _______ _______ _______ _____ _____    ______ ____
ROOT
ATOM      1  N   UNL     1      35.932 -22.143 -18.519  0.00  0.00    -0.294 N 
ATOM      2  N   UNL     1      35.543 -22.975 -16.344  0.00  0.00    -0.123 N 
ATOM      3  N   UNL     1      33.745 -22.429 -17.651  0.00  0.00    -0.295 NA
ATOM      4  N   UNL     1      33.390 -23.276 -15.445  0.00  0.00    -0.314 NA
ATOM      5  N   UNL     1      36.857 -23.103 -16.088  0.00  0.00    -0.170 NA
ATOM      6  N   UNL     1      31.571 -22.719 -16.775  0.00  0.00    -0.238 N 
ATOM      7  C   UNL     1      35.040 -22.499 -17.544  0.00  0.00    +0.276 C 
ATOM      8  C   UNL     1      34.732 -23.357 -15.314  0.00  0.00    +0.219 C 
ATOM      9  C   UNL     1      32.930 -22.822 -16.590  0.00  0.00    +0.207 C 
ATOM     10  C   UNL     1      35.582 -23.765 -14.310  0.00  0.00    +0.203 C 
ATOM     11  C   UNL     1      36.874 -23.587 -14.842  0.00  0.00    +0.116 C 
ATOM     12  H   UNL     1      36.894 -22.234 -18.338  0.00  0.00    +0.150 HD
ATOM     13  H   UNL     1      31.260 -22.006 -17.378  0.00  0.00    +0.166 HD
ENDROOT
BRANCH   6  14
ATOM     14  C   UNL     1      30.590 -23.519 -16.195  0.00  0.00    +0.058 C 
ATOM     15  C   UNL     1      30.954 -24.628 -15.432  0.00  0.00    +0.015 C 
ATOM     16  C   UNL     1      29.241 -23.210 -16.375  0.00  0.00    +0.015 C 
ATOM     17  C   UNL     1      29.972 -25.428 -14.850  0.00  0.00    +0.001 C 
ATOM     18  C   UNL     1      28.259 -24.010 -15.793  0.00  0.00    +0.001 C 
ATOM     19  C   UNL     1      28.624 -25.120 -15.031  0.00  0.00    +0.000 C 
ENDBRANCH   6  14
BRANCH  10  21
ATOM     20  N   UNL     1      34.906 -24.653 -11.983  0.00  0.00    -0.195 NA
ATOM     21  C   UNL     1      35.211 -24.254 -13.029  0.00  0.00    +0.087 C 
ENDBRANCH  10  21
BRANCH   1  22
ATOM     22  C   UNL     1      35.513 -21.642 -19.792  0.00  0.00    +0.096 C 
BRANCH  22  23
ATOM     23  C   UNL     1      36.425 -20.510 -20.261  0.00  0.00    +0.063 C 
BRANCH  23  26
ATOM     24  N   UNL     1      35.686 -18.125 -20.633  0.00  0.00    -0.319 N 
ATOM     25  N   UNL     1      34.459 -18.213 -22.481  0.00  0.00    -0.315 N 
ATOM     26  C   UNL     1      35.692 -19.434 -21.023  0.00  0.00    +0.039 C 
ATOM     27  C   UNL     1      34.927 -19.464 -22.166  0.00  0.00    +0.069 C 
ATOM     28  C   UNL     1      34.933 -17.430 -21.538  0.00  0.00    +0.182 C 
ATOM     29  H   UNL     1      36.141 -17.750 -19.844  0.00  0.00    +0.148 HD
ATOM     30  H   UNL     1      33.892 -17.959 -23.245  0.00  0.00    +0.148 HD
ENDBRANCH  23  26
ENDBRANCH  22  23
ENDBRANCH   1  22
TORSDOF 5
ENDMDL
MODEL 8
REMARK VINA RESULT:      -8.6      9.907     12.742
REMARK  Name = 24779678
REMARK  5 active torsions:
REMARK  status: ('A' for Active; 'I' for Inactive)
REMARK    1  A    between atoms: N_1  and  C_22
REMARK    2  A    between atoms: N_6  and  C_14
REMARK    3  A    between atoms: C_10  and  C_21
REMARK    4  A    between atoms: C_22  and  C_23
REMARK    5  A    between atoms: C_23  and  C_26
REMARK                            x       y       z     vdW  Elec       q    Type
REMARK                         _______ _______ _______ _____ _____    ______ ____
ROOT
ATOM      1  N   UNL     1      31.591 -12.171 -19.824  0.00  0.00    -0.294 N 
ATOM      2  N   UNL     1      32.725 -13.758 -21.153  0.00  0.00    -0.123 N 
ATOM      3  N   UNL     1      32.244 -11.711 -22.056  0.00  0.00    -0.295 NA
ATOM      4  N   UNL     1      33.391 -13.342 -23.371  0.00  0.00    -0.314 NA
ATOM      5  N   UNL     1      32.724 -14.677 -20.171  0.00  0.00    -0.170 NA
ATOM      6  N   UNL     1      32.898 -11.264 -24.281  0.00  0.00    -0.238 N 
ATOM      7  C   UNL     1      32.170 -12.496 -21.021  0.00  0.00    +0.276 C 
ATOM      8  C   UNL     1      33.325 -14.173 -22.308  0.00  0.00    +0.219 C 
ATOM      9  C   UNL     1      32.859 -12.148 -23.228  0.00  0.00    +0.207 C 
ATOM     10  C   UNL     1      33.749 -15.459 -22.059  0.00  0.00    +0.203 C 
ATOM     11  C   UNL     1      33.352 -15.716 -20.732  0.00  0.00    +0.116 C 
ATOM     12  H   UNL     1      31.587 -12.838 -19.102  0.00  0.00    +0.150 HD
ATOM     13  H   UNL     1      32.160 -10.617 -24.342  0.00  0.00    +0.166 HD
ENDROOT
BRANCH   6  14
ATOM     14  C   UNL     1      33.876 -11.192 -25.270  0.00  0.00    +0.058 C 
ATOM     15  C   UNL     1      33.814 -12.040 -26.375  0.00  0.00    +0.015 C 
ATOM     16  C   UNL     1      34.915 -10.269 -25.157  0.00  0.00    +0.015 C 
ATOM     17  C   UNL     1      34.792 -11.967 -27.366  0.00  0.00    +0.001 C 
ATOM     18  C   UNL     1      35.893 -10.196 -26.148  0.00  0.00    +0.001 C 
ATOM     19  C   UNL     1      35.832 -11.045 -27.253  0.00  0.00    +0.000 C 
ENDBRANCH   6  14
BRANCH  10  21
ATOM     20  N   UNL     1      34.990 -17.021 -23.698  0.00  0.00    -0.195 NA
ATOM     21  C   UNL     1      34.432 -16.318 -22.961  0.00  0.00    +0.087 C 
ENDBRANCH  10  21
BRANCH   1  22
ATOM     22  C   UNL     1      30.992 -10.893 -19.587  0.00  0.00    +0.096 C 
BRANCH  22  23
ATOM     23  C   UNL     1      32.053  -9.848 -19.243  0.00  0.00    +0.063 C 
BRANCH  23  26
ATOM     24  N   UNL     1      31.873  -8.868 -21.563  0.00  0.00    -0.319 N 
ATOM     25  N   UNL     1      32.281  -6.704 -21.277  0.00  0.00    -0.315 N 
ATOM     26  C   UNL     1      32.100  -8.704 -20.226  0.00  0.00    +0.039 C 
ATOM     27  C   UNL     1      32.351  -7.360 -20.074  0.00  0.00    +0.069 C 
ATOM     28  C   UNL     1      31.992  -7.641 -22.153  0.00  0.00    +0.182 C 
ATOM     29  H   UNL     1      31.662  -9.715 -22.018  0.00  0.00    +0.148 HD
ATOM     30  H   UNL     1      32.419  -5.745 -21.447  0.00  0.00    +0.148 HD
ENDBRANCH  23  26
ENDBRANCH  22  23
ENDBRANCH   1  22
TORSDOF 5
ENDMDL
MODEL 9
REMARK VINA RESULT:      -8.2      9.010     12.685
REMARK  Name = 24779678
REMARK  5 active torsions:
REMARK  status: ('A' for Active; 'I' for Inactive)
REMARK    1  A    between atoms: N_1  and  C_22
REMARK    2  A    between atoms: N_6  and  C_14
REMARK    3  A    between atoms: C_10  and  C_21
REMARK    4  A    between atoms: C_22  and  C_23
REMARK    5  A    between atoms: C_23  and  C_26
REMARK                            x       y       z     vdW  Elec       q    Type
REMARK                         _______ _______ _______ _____ _____    ______ ____
ROOT
ATOM      1  N   UNL     1      33.475 -15.383 -24.210  0.00  0.00    -0.294 N 
ATOM      2  N   UNL     1      32.832 -13.954 -22.444  0.00  0.00    -0.123 N 
ATOM      3  N   UNL     1      33.897 -13.051 -24.257  0.00  0.00    -0.295 NA
ATOM      4  N   UNL     1      33.230 -11.635 -22.452  0.00  0.00    -0.314 NA
ATOM      5  N   UNL     1      32.302 -14.966 -21.733  0.00  0.00    -0.170 NA
ATOM      6  N   UNL     1      34.312 -10.726 -24.293  0.00  0.00    -0.238 N 
ATOM      7  C   UNL     1      33.427 -14.120 -23.684  0.00  0.00    +0.276 C 
ATOM      8  C   UNL     1      32.735 -12.734 -21.839  0.00  0.00    +0.219 C 
ATOM      9  C   UNL     1      33.792 -11.812 -23.628  0.00  0.00    +0.207 C 
ATOM     10  C   UNL     1      32.093 -12.966 -20.644  0.00  0.00    +0.203 C 
ATOM     11  C   UNL     1      31.852 -14.354 -20.632  0.00  0.00    +0.116 C 
ATOM     12  H   UNL     1      33.090 -16.126 -23.695  0.00  0.00    +0.150 HD
ATOM     13  H   UNL     1      35.079 -10.897 -24.885  0.00  0.00    +0.166 HD
ENDROOT
BRANCH   6  14
ATOM     14  C   UNL     1      33.866  -9.410 -24.214  0.00  0.00    +0.058 C 
ATOM     15  C   UNL     1      32.510  -9.143 -24.025  0.00  0.00    +0.015 C 
ATOM     16  C   UNL     1      34.775  -8.357 -24.320  0.00  0.00    +0.015 C 
ATOM     17  C   UNL     1      32.064  -7.824 -23.945  0.00  0.00    +0.001 C 
ATOM     18  C   UNL     1      34.329  -7.039 -24.239  0.00  0.00    +0.001 C 
ATOM     19  C   UNL     1      32.973  -6.772 -24.052  0.00  0.00    +0.000 C 
ENDBRANCH   6  14
BRANCH  10  21
ATOM     20  N   UNL     1      31.487 -11.211 -18.851  0.00  0.00    -0.195 NA
ATOM     21  C   UNL     1      31.760 -12.001 -19.656  0.00  0.00    +0.087 C 
ENDBRANCH  10  21
BRANCH   1  22
ATOM     22  C   UNL     1      34.067 -15.658 -25.484  0.00  0.00    +0.096 C 
BRANCH  22  23
ATOM     23  C   UNL     1      34.583 -17.096 -25.547  0.00  0.00    +0.063 C 
BRANCH  23  26
ATOM     24  N   UNL     1      35.772 -17.052 -23.321  0.00  0.00    -0.319 N 
ATOM     25  N   UNL     1      35.093 -18.903 -22.299  0.00  0.00    -0.315 N 
ATOM     26  C   UNL     1      34.916 -17.666 -24.190  0.00  0.00    +0.039 C 
ATOM     27  C   UNL     1      34.510 -18.807 -23.539  0.00  0.00    +0.069 C 
ATOM     28  C   UNL     1      35.847 -17.831 -22.200  0.00  0.00    +0.182 C 
ATOM     29  H   UNL     1      36.249 -16.204 -23.472  0.00  0.00    +0.148 HD
ATOM     30  H   UNL     1      34.973 -19.618 -21.633  0.00  0.00    +0.148 HD
ENDBRANCH  23  26
ENDBRANCH  22  23
ENDBRANCH   1  22
TORSDOF 5
ENDMDL
