MODEL 1
REMARK VINA RESULT:      -4.6      0.000      0.000
REMARK  Name = 68030
REMARK  2 active torsions:
REMARK  status: ('A' for Active; 'I' for Inactive)
REMARK    1  A    between atoms: C_1  and  C_5
REMARK    2  A    between atoms: C_1  and  C_8
REMARK                            x       y       z     vdW  Elec       q    Type
REMARK                         _______ _______ _______ _____ _____    ______ ____
ROOT
ATOM      1  C   UNL     1      34.509 -20.186 -20.652  0.00  0.00    +0.175 C 
ENDROOT
BRANCH   1   5
ATOM      2  F   UNL     1      36.250 -18.933 -21.652  0.00  0.00    -0.170 F 
ATOM      3  F   UNL     1      34.635 -19.630 -22.948  0.00  0.00    -0.170 F 
ATOM      4  F   UNL     1      34.277 -18.013 -21.529  0.00  0.00    -0.170 F 
ATOM      5  C   UNL     1      34.925 -19.186 -21.706  0.00  0.00    +0.403 C 
ENDBRANCH   1   5
BRANCH   1   8
ATOM      6  F   UNL     1      32.252 -20.406 -21.281  0.00  0.00    -0.198 F 
ATOM      7  F   UNL     1      32.781 -20.869 -19.223  0.00  0.00    -0.198 F 
ATOM      8  C   UNL     1      33.055 -20.031 -20.255  0.00  0.00    +0.327 C 
ENDBRANCH   1   8
TORSDOF 2
ENDMDL
MODEL 2
REMARK VINA RESULT:      -4.6      0.616      1.808
REMARK  Name = 68030
REMARK  2 active torsions:
REMARK  status: ('A' for Active; 'I' for Inactive)
REMARK    1  A    between atoms: C_1  and  C_5
REMARK    2  A    between atoms: C_1  and  C_8
REMARK                            x       y       z     vdW  Elec       q    Type
REMARK                         _______ _______ _______ _____ _____    ______ ____
ROOT
ATOM      1  C   UNL     1      34.558 -19.933 -20.581  0.00  0.00    +0.175 C 
ENDROOT
BRANCH   1   5
ATOM      2  F   UNL     1      34.101 -19.343 -22.826  0.00  0.00    -0.170 F 
ATOM      3  F   UNL     1      34.384 -17.719 -21.394  0.00  0.00    -0.170 F 
ATOM      4  F   UNL     1      36.090 -18.909 -22.046  0.00  0.00    -0.170 F 
ATOM      5  C   UNL     1      34.780 -18.967 -21.722  0.00  0.00    +0.403 C 
ENDBRANCH   1   5
BRANCH   1   8
ATOM      6  F   UNL     1      32.904 -20.957 -19.257  0.00  0.00    -0.198 F 
ATOM      7  F   UNL     1      32.324 -19.237 -20.455  0.00  0.00    -0.198 F 
ATOM      8  C   UNL     1      33.106 -20.345 -20.450  0.00  0.00    +0.327 C 
ENDBRANCH   1   8
TORSDOF 2
ENDMDL
MODEL 3
REMARK VINA RESULT:      -4.5      2.440      3.475
REMARK  Name = 68030
REMARK  2 active torsions:
REMARK  status: ('A' for Active; 'I' for Inactive)
REMARK    1  A    between atoms: C_1  and  C_5
REMARK    2  A    between atoms: C_1  and  C_8
REMARK                            x       y       z     vdW  Elec       q    Type
REMARK                         _______ _______ _______ _____ _____    ______ ____
ROOT
ATOM      1  C   UNL     1      34.687 -19.036 -22.382  0.00  0.00    +0.175 C 
ENDROOT
BRANCH   1   5
ATOM      2  F   UNL     1      36.963 -18.461 -22.078  0.00  0.00    -0.170 F 
ATOM      3  F   UNL     1      35.498 -17.511 -20.766  0.00  0.00    -0.170 F 
ATOM      4  F   UNL     1      35.988 -19.619 -20.509  0.00  0.00    -0.170 F 
ATOM      5  C   UNL     1      35.794 -18.649 -21.428  0.00  0.00    +0.403 C 
ENDBRANCH   1   5
BRANCH   1   8
ATOM      6  F   UNL     1      35.024 -20.055 -24.476  0.00  0.00    -0.198 F 
ATOM      7  F   UNL     1      34.206 -18.039 -24.448  0.00  0.00    -0.198 F 
ATOM      8  C   UNL     1      35.091 -18.863 -23.832  0.00  0.00    +0.327 C 
ENDBRANCH   1   8
TORSDOF 2
ENDMDL
MODEL 4
REMARK VINA RESULT:      -4.4      9.503     10.244
REMARK  Name = 68030
REMARK  2 active torsions:
REMARK  status: ('A' for Active; 'I' for Inactive)
REMARK    1  A    between atoms: C_1  and  C_5
REMARK    2  A    between atoms: C_1  and  C_8
REMARK                            x       y       z     vdW  Elec       q    Type
REMARK                         _______ _______ _______ _____ _____    ______ ____
ROOT
ATOM      1  C   UNL     1      41.620 -14.018 -16.138  0.00  0.00    +0.175 C 
ENDROOT
BRANCH   1   5
ATOM      2  F   UNL     1      42.926 -14.071 -18.111  0.00  0.00    -0.170 F 
ATOM      3  F   UNL     1      40.754 -14.051 -18.339  0.00  0.00    -0.170 F 
ATOM      4  F   UNL     1      41.801 -12.253 -17.686  0.00  0.00    -0.170 F 
ATOM      5  C   UNL     1      41.777 -13.600 -17.582  0.00  0.00    +0.403 C 
ENDBRANCH   1   5
BRANCH   1   8
ATOM      6  F   UNL     1      42.329 -16.257 -15.995  0.00  0.00    -0.198 F 
ATOM      7  F   UNL     1      40.610 -15.660 -14.804  0.00  0.00    -0.198 F 
ATOM      8  C   UNL     1      41.223 -15.474 -16.001  0.00  0.00    +0.327 C 
ENDBRANCH   1   8
TORSDOF 2
ENDMDL
MODEL 5
REMARK VINA RESULT:      -4.4      1.655      3.038
REMARK  Name = 68030
REMARK  2 active torsions:
REMARK  status: ('A' for Active; 'I' for Inactive)
REMARK    1  A    between atoms: C_1  and  C_5
REMARK    2  A    between atoms: C_1  and  C_8
REMARK                            x       y       z     vdW  Elec       q    Type
REMARK                         _______ _______ _______ _____ _____    ______ ____
ROOT
ATOM      1  C   UNL     1      34.568 -20.658 -20.035  0.00  0.00    +0.175 C 
ENDROOT
BRANCH   1   5
ATOM      2  F   UNL     1      32.618 -20.017 -21.212  0.00  0.00    -0.170 F 
ATOM      3  F   UNL     1      34.069 -18.455 -20.737  0.00  0.00    -0.170 F 
ATOM      4  F   UNL     1      34.520 -19.934 -22.275  0.00  0.00    -0.170 F 
ATOM      5  C   UNL     1      33.935 -19.757 -21.070  0.00  0.00    +0.403 C 
ENDBRANCH   1   5
BRANCH   1   8
ATOM      6  F   UNL     1      36.708 -19.694 -20.209  0.00  0.00    -0.198 F 
ATOM      7  F   UNL     1      36.555 -21.671 -19.314  0.00  0.00    -0.198 F 
ATOM      8  C   UNL     1      36.046 -20.875 -20.288  0.00  0.00    +0.327 C 
ENDBRANCH   1   8
TORSDOF 2
ENDMDL
MODEL 6
REMARK VINA RESULT:      -4.4      3.561      4.944
REMARK  Name = 68030
REMARK  2 active torsions:
REMARK  status: ('A' for Active; 'I' for Inactive)
REMARK    1  A    between atoms: C_1  and  C_5
REMARK    2  A    between atoms: C_1  and  C_8
REMARK                            x       y       z     vdW  Elec       q    Type
REMARK                         _______ _______ _______ _____ _____    ______ ____
ROOT
ATOM      1  C   UNL     1      34.252 -15.307 -20.693  0.00  0.00    +0.175 C 
ENDROOT
BRANCH   1   5
ATOM      2  F   UNL     1      32.446 -13.870 -20.172  0.00  0.00    -0.170 F 
ATOM      3  F   UNL     1      32.424 -14.851 -22.123  0.00  0.00    -0.170 F 
ATOM      4  F   UNL     1      32.036 -16.006 -20.315  0.00  0.00    -0.170 F 
ATOM      5  C   UNL     1      32.778 -15.001 -20.829  0.00  0.00    +0.403 C 
ENDBRANCH   1   5
BRANCH   1   8
ATOM      6  F   UNL     1      35.379 -16.184 -22.563  0.00  0.00    -0.198 F 
ATOM      7  F   UNL     1      35.470 -17.310 -20.704  0.00  0.00    -0.198 F 
ATOM      8  C   UNL     1      34.657 -16.542 -21.473  0.00  0.00    +0.327 C 
ENDBRANCH   1   8
TORSDOF 2
ENDMDL
MODEL 7
REMARK VINA RESULT:      -4.4      1.893      3.656
REMARK  Name = 68030
REMARK  2 active torsions:
REMARK  status: ('A' for Active; 'I' for Inactive)
REMARK    1  A    between atoms: C_1  and  C_5
REMARK    2  A    between atoms: C_1  and  C_8
REMARK                            x       y       z     vdW  Elec       q    Type
REMARK                         _______ _______ _______ _____ _____    ______ ____
ROOT
ATOM      1  C   UNL     1      35.431 -18.304 -23.252  0.00  0.00    +0.175 C 
ENDROOT
BRANCH   1   5
ATOM      2  F   UNL     1      36.008 -19.519 -21.305  0.00  0.00    -0.170 F 
ATOM      3  F   UNL     1      34.647 -17.827 -21.072  0.00  0.00    -0.170 F 
ATOM      4  F   UNL     1      33.954 -19.664 -22.021  0.00  0.00    -0.170 F 
ATOM      5  C   UNL     1      35.011 -18.830 -21.899  0.00  0.00    +0.403 C 
ENDBRANCH   1   5
BRANCH   1   8
ATOM      6  F   UNL     1      34.728 -18.094 -25.488  0.00  0.00    -0.198 F 
ATOM      7  F   UNL     1      34.998 -20.101 -24.692  0.00  0.00    -0.198 F 
ATOM      8  C   UNL     1      34.573 -18.852 -24.374  0.00  0.00    +0.327 C 
ENDBRANCH   1   8
TORSDOF 2
ENDMDL
MODEL 8
REMARK VINA RESULT:      -4.4      1.790      3.511
REMARK  Name = 68030
REMARK  2 active torsions:
REMARK  status: ('A' for Active; 'I' for Inactive)
REMARK    1  A    between atoms: C_1  and  C_5
REMARK    2  A    between atoms: C_1  and  C_8
REMARK                            x       y       z     vdW  Elec       q    Type
REMARK                         _______ _______ _______ _____ _____    ______ ____
ROOT
ATOM      1  C   UNL     1      35.560 -18.165 -21.106  0.00  0.00    +0.175 C 
ENDROOT
BRANCH   1   5
ATOM      2  F   UNL     1      34.515 -19.648 -22.625  0.00  0.00    -0.170 F 
ATOM      3  F   UNL     1      35.213 -20.473 -20.727  0.00  0.00    -0.170 F 
ATOM      4  F   UNL     1      33.461 -19.177 -20.776  0.00  0.00    -0.170 F 
ATOM      5  C   UNL     1      34.684 -19.378 -21.313  0.00  0.00    +0.403 C 
ENDBRANCH   1   5
BRANCH   1   8
ATOM      6  F   UNL     1      34.975 -16.046 -20.264  0.00  0.00    -0.198 F 
ATOM      7  F   UNL     1      35.338 -16.224 -22.402  0.00  0.00    -0.198 F 
ATOM      8  C   UNL     1      34.809 -16.868 -21.330  0.00  0.00    +0.327 C 
ENDBRANCH   1   8
TORSDOF 2
ENDMDL
MODEL 9
REMARK VINA RESULT:      -4.4      9.342     10.044
REMARK  Name = 68030
REMARK  2 active torsions:
REMARK  status: ('A' for Active; 'I' for Inactive)
REMARK    1  A    between atoms: C_1  and  C_5
REMARK    2  A    between atoms: C_1  and  C_8
REMARK                            x       y       z     vdW  Elec       q    Type
REMARK                         _______ _______ _______ _____ _____    ______ ____
ROOT
ATOM      1  C   UNL     1      41.658 -15.461 -16.750  0.00  0.00    +0.175 C 
ENDROOT
BRANCH   1   5
ATOM      2  F   UNL     1      42.809 -13.957 -18.169  0.00  0.00    -0.170 F 
ATOM      3  F   UNL     1      41.798 -15.653 -19.103  0.00  0.00    -0.170 F 
ATOM      4  F   UNL     1      40.633 -14.000 -18.286  0.00  0.00    -0.170 F 
ATOM      5  C   UNL     1      41.730 -14.764 -18.089  0.00  0.00    +0.403 C 
ENDBRANCH   1   5
BRANCH   1   8
ATOM      6  F   UNL     1      41.040 -15.232 -14.491  0.00  0.00    -0.198 F 
ATOM      7  F   UNL     1      41.660 -13.442 -15.559  0.00  0.00    -0.198 F 
ATOM      8  C   UNL     1      40.982 -14.610 -15.694  0.00  0.00    +0.327 C 
ENDBRANCH   1   8
TORSDOF 2
ENDMDL
