MODEL 1
REMARK VINA RESULT:      -7.4      0.000      0.000
REMARK  Name = 77918
REMARK  2 active torsions:
REMARK  status: ('A' for Active; 'I' for Inactive)
REMARK    1  A    between atoms: C_1  and  C_2
REMARK    2  A    between atoms: C_1  and  N_8
REMARK                            x       y       z     vdW  Elec       q    Type
REMARK                         _______ _______ _______ _____ _____    ______ ____
ROOT
ATOM      1  C   UNL     1      35.969 -18.566 -21.722  0.00  0.00    +0.124 C 
ENDROOT
BRANCH   1   2
ATOM      2  C   UNL     1      35.091 -19.522 -20.988  0.00  0.00    -0.002 C 
ATOM      3  C   UNL     1      35.653 -20.602 -20.305  0.00  0.00    -0.003 C 
ATOM      4  C   UNL     1      33.708 -19.338 -20.983  0.00  0.00    -0.003 C 
ATOM      5  C   UNL     1      34.831 -21.497 -19.618  0.00  0.00    -0.000 C 
ATOM      6  C   UNL     1      32.888 -20.232 -20.296  0.00  0.00    -0.000 C 
ATOM      7  C   UNL     1      33.449 -21.311 -19.614  0.00  0.00    -0.000 C 
ENDBRANCH   1   2
BRANCH   1   8
ATOM      8  N   UNL     1      35.364 -18.129 -22.984  0.00  0.00    -0.264 N 
ATOM      9  N   UNL     1      34.525 -18.246 -25.014  0.00  0.00    -0.225 NA
ATOM     10  C   UNL     1      35.029 -16.856 -23.295  0.00  0.00    +0.088 C 
ATOM     11  C   UNL     1      35.053 -18.935 -24.026  0.00  0.00    +0.168 C 
ATOM     12  C   UNL     1      34.508 -16.949 -24.564  0.00  0.00    +0.117 C 
ENDBRANCH   1   8
TORSDOF 2
ENDMDL
MODEL 2
REMARK VINA RESULT:      -7.4      0.018      1.395
REMARK  Name = 77918
REMARK  2 active torsions:
REMARK  status: ('A' for Active; 'I' for Inactive)
REMARK    1  A    between atoms: C_1  and  C_2
REMARK    2  A    between atoms: C_1  and  N_8
REMARK                            x       y       z     vdW  Elec       q    Type
REMARK                         _______ _______ _______ _____ _____    ______ ____
ROOT
ATOM      1  C   UNL     1      35.970 -18.576 -21.731  0.00  0.00    +0.124 C 
ENDROOT
BRANCH   1   2
ATOM      2  C   UNL     1      35.087 -19.525 -20.994  0.00  0.00    -0.002 C 
ATOM      3  C   UNL     1      33.705 -19.332 -20.990  0.00  0.00    -0.003 C 
ATOM      4  C   UNL     1      35.642 -20.607 -20.310  0.00  0.00    -0.003 C 
ATOM      5  C   UNL     1      32.879 -20.220 -20.299  0.00  0.00    -0.000 C 
ATOM      6  C   UNL     1      34.816 -21.495 -19.621  0.00  0.00    -0.000 C 
ATOM      7  C   UNL     1      33.435 -21.301 -19.616  0.00  0.00    -0.000 C 
ENDBRANCH   1   2
BRANCH   1   8
ATOM      8  N   UNL     1      35.368 -18.139 -22.995  0.00  0.00    -0.264 N 
ATOM      9  N   UNL     1      34.520 -18.259 -25.020  0.00  0.00    -0.225 NA
ATOM     10  C   UNL     1      35.052 -16.863 -23.314  0.00  0.00    +0.088 C 
ATOM     11  C   UNL     1      35.041 -18.948 -24.029  0.00  0.00    +0.168 C 
ATOM     12  C   UNL     1      34.525 -16.958 -24.581  0.00  0.00    +0.117 C 
ENDBRANCH   1   8
TORSDOF 2
ENDMDL
MODEL 3
REMARK VINA RESULT:      -7.1      1.364      2.395
REMARK  Name = 77918
REMARK  2 active torsions:
REMARK  status: ('A' for Active; 'I' for Inactive)
REMARK    1  A    between atoms: C_1  and  C_2
REMARK    2  A    between atoms: C_1  and  N_8
REMARK                            x       y       z     vdW  Elec       q    Type
REMARK                         _______ _______ _______ _____ _____    ______ ____
ROOT
ATOM      1  C   UNL     1      35.991 -18.566 -21.725  0.00  0.00    +0.124 C 
ENDROOT
BRANCH   1   2
ATOM      2  C   UNL     1      35.109 -19.525 -21.000  0.00  0.00    -0.002 C 
ATOM      3  C   UNL     1      33.722 -19.410 -21.099  0.00  0.00    -0.003 C 
ATOM      4  C   UNL     1      35.670 -20.538 -20.222  0.00  0.00    -0.003 C 
ATOM      5  C   UNL     1      32.897 -20.307 -20.419  0.00  0.00    -0.000 C 
ATOM      6  C   UNL     1      34.845 -21.435 -19.543  0.00  0.00    -0.000 C 
ATOM      7  C   UNL     1      33.459 -21.319 -19.643  0.00  0.00    -0.000 C 
ENDBRANCH   1   2
BRANCH   1   8
ATOM      8  N   UNL     1      35.354 -17.256 -21.890  0.00  0.00    -0.264 N 
ATOM      9  N   UNL     1      34.399 -15.350 -21.351  0.00  0.00    -0.225 NA
ATOM     10  C   UNL     1      35.098 -16.650 -23.072  0.00  0.00    +0.088 C 
ATOM     11  C   UNL     1      34.927 -16.459 -20.883  0.00  0.00    +0.168 C 
ATOM     12  C   UNL     1      34.502 -15.463 -22.716  0.00  0.00    +0.117 C 
ENDBRANCH   1   8
TORSDOF 2
ENDMDL
MODEL 4
REMARK VINA RESULT:      -7.0      1.029      1.866
REMARK  Name = 77918
REMARK  2 active torsions:
REMARK  status: ('A' for Active; 'I' for Inactive)
REMARK    1  A    between atoms: C_1  and  C_2
REMARK    2  A    between atoms: C_1  and  N_8
REMARK                            x       y       z     vdW  Elec       q    Type
REMARK                         _______ _______ _______ _____ _____    ______ ____
ROOT
ATOM      1  C   UNL     1      35.025 -16.925 -21.908  0.00  0.00    +0.124 C 
ENDROOT
BRANCH   1   2
ATOM      2  C   UNL     1      34.928 -18.288 -21.311  0.00  0.00    -0.002 C 
ATOM      3  C   UNL     1      33.676 -18.857 -21.070  0.00  0.00    -0.003 C 
ATOM      4  C   UNL     1      36.087 -18.995 -20.994  0.00  0.00    -0.003 C 
ATOM      5  C   UNL     1      33.586 -20.132 -20.511  0.00  0.00    -0.000 C 
ATOM      6  C   UNL     1      35.996 -20.270 -20.435  0.00  0.00    -0.000 C 
ATOM      7  C   UNL     1      34.745 -20.838 -20.195  0.00  0.00    -0.000 C 
ENDBRANCH   1   2
BRANCH   1   8
ATOM      8  N   UNL     1      34.698 -16.930 -23.337  0.00  0.00    -0.264 N 
ATOM      9  N   UNL     1      34.593 -17.622 -25.422  0.00  0.00    -0.225 NA
ATOM     10  C   UNL     1      34.021 -15.959 -23.991  0.00  0.00    +0.088 C 
ATOM     11  C   UNL     1      35.026 -17.908 -24.214  0.00  0.00    +0.168 C 
ATOM     12  C   UNL     1      33.966 -16.408 -25.290  0.00  0.00    +0.117 C 
ENDBRANCH   1   8
TORSDOF 2
ENDMDL
MODEL 5
REMARK VINA RESULT:      -7.0      1.734      4.737
REMARK  Name = 77918
REMARK  2 active torsions:
REMARK  status: ('A' for Active; 'I' for Inactive)
REMARK    1  A    between atoms: C_1  and  C_2
REMARK    2  A    between atoms: C_1  and  N_8
REMARK                            x       y       z     vdW  Elec       q    Type
REMARK                         _______ _______ _______ _____ _____    ______ ____
ROOT
ATOM      1  C   UNL     1      35.723 -19.076 -21.195  0.00  0.00    +0.124 C 
ENDROOT
BRANCH   1   2
ATOM      2  C   UNL     1      35.296 -18.467 -22.488  0.00  0.00    -0.002 C 
ATOM      3  C   UNL     1      34.924 -19.286 -23.555  0.00  0.00    -0.003 C 
ATOM      4  C   UNL     1      35.268 -17.080 -22.631  0.00  0.00    -0.003 C 
ATOM      5  C   UNL     1      34.525 -18.716 -24.765  0.00  0.00    -0.000 C 
ATOM      6  C   UNL     1      34.868 -16.511 -23.840  0.00  0.00    -0.000 C 
ATOM      7  C   UNL     1      34.496 -17.330 -24.906  0.00  0.00    -0.000 C 
ENDBRANCH   1   2
BRANCH   1   8
ATOM      8  N   UNL     1      34.673 -19.919 -20.615  0.00  0.00    -0.264 N 
ATOM      9  N   UNL     1      32.660 -20.618 -20.073  0.00  0.00    -0.225 NA
ATOM     10  C   UNL     1      34.878 -21.060 -19.918  0.00  0.00    +0.088 C 
ATOM     11  C   UNL     1      33.343 -19.681 -20.692  0.00  0.00    +0.168 C 
ATOM     12  C   UNL     1      33.611 -21.481 -19.588  0.00  0.00    +0.117 C 
ENDBRANCH   1   8
TORSDOF 2
ENDMDL
MODEL 6
REMARK VINA RESULT:      -7.0      1.690      4.795
REMARK  Name = 77918
REMARK  2 active torsions:
REMARK  status: ('A' for Active; 'I' for Inactive)
REMARK    1  A    between atoms: C_1  and  C_2
REMARK    2  A    between atoms: C_1  and  N_8
REMARK                            x       y       z     vdW  Elec       q    Type
REMARK                         _______ _______ _______ _____ _____    ______ ____
ROOT
ATOM      1  C   UNL     1      35.752 -18.988 -21.314  0.00  0.00    +0.124 C 
ENDROOT
BRANCH   1   2
ATOM      2  C   UNL     1      35.303 -18.378 -22.599  0.00  0.00    -0.002 C 
ATOM      3  C   UNL     1      35.250 -16.989 -22.730  0.00  0.00    -0.003 C 
ATOM      4  C   UNL     1      34.936 -19.194 -23.669  0.00  0.00    -0.003 C 
ATOM      5  C   UNL     1      34.829 -16.419 -23.932  0.00  0.00    -0.000 C 
ATOM      6  C   UNL     1      34.516 -18.622 -24.870  0.00  0.00    -0.000 C 
ATOM      7  C   UNL     1      34.463 -17.235 -25.001  0.00  0.00    -0.000 C 
ENDBRANCH   1   2
BRANCH   1   8
ATOM      8  N   UNL     1      34.705 -19.818 -20.709  0.00  0.00    -0.264 N 
ATOM      9  N   UNL     1      32.695 -20.506 -20.142  0.00  0.00    -0.225 NA
ATOM     10  C   UNL     1      34.915 -20.939 -19.981  0.00  0.00    +0.088 C 
ATOM     11  C   UNL     1      33.374 -19.584 -20.788  0.00  0.00    +0.168 C 
ATOM     12  C   UNL     1      33.650 -21.353 -19.636  0.00  0.00    +0.117 C 
ENDBRANCH   1   8
TORSDOF 2
ENDMDL
MODEL 7
REMARK VINA RESULT:      -6.6      2.060      4.757
REMARK  Name = 77918
REMARK  2 active torsions:
REMARK  status: ('A' for Active; 'I' for Inactive)
REMARK    1  A    between atoms: C_1  and  C_2
REMARK    2  A    between atoms: C_1  and  N_8
REMARK                            x       y       z     vdW  Elec       q    Type
REMARK                         _______ _______ _______ _____ _____    ______ ____
ROOT
ATOM      1  C   UNL     1      35.685 -18.740 -21.720  0.00  0.00    +0.124 C 
ENDROOT
BRANCH   1   2
ATOM      2  C   UNL     1      35.201 -17.338 -21.881  0.00  0.00    -0.002 C 
ATOM      3  C   UNL     1      34.891 -16.574 -20.755  0.00  0.00    -0.003 C 
ATOM      4  C   UNL     1      35.058 -16.791 -23.156  0.00  0.00    -0.003 C 
ATOM      5  C   UNL     1      34.437 -15.263 -20.906  0.00  0.00    -0.000 C 
ATOM      6  C   UNL     1      34.605 -15.480 -23.306  0.00  0.00    -0.000 C 
ATOM      7  C   UNL     1      34.295 -14.717 -22.181  0.00  0.00    -0.000 C 
ENDBRANCH   1   2
BRANCH   1   8
ATOM      8  N   UNL     1      34.695 -19.585 -21.045  0.00  0.00    -0.264 N 
ATOM      9  N   UNL     1      32.736 -20.396 -20.462  0.00  0.00    -0.225 NA
ATOM     10  C   UNL     1      34.976 -20.571 -20.163  0.00  0.00    +0.088 C 
ATOM     11  C   UNL     1      33.354 -19.503 -21.204  0.00  0.00    +0.168 C 
ATOM     12  C   UNL     1      33.742 -21.064 -19.811  0.00  0.00    +0.117 C 
ENDBRANCH   1   8
TORSDOF 2
ENDMDL
MODEL 8
REMARK VINA RESULT:      -6.6      1.982      4.746
REMARK  Name = 77918
REMARK  2 active torsions:
REMARK  status: ('A' for Active; 'I' for Inactive)
REMARK    1  A    between atoms: C_1  and  C_2
REMARK    2  A    between atoms: C_1  and  N_8
REMARK                            x       y       z     vdW  Elec       q    Type
REMARK                         _______ _______ _______ _____ _____    ______ ____
ROOT
ATOM      1  C   UNL     1      35.796 -19.072 -21.296  0.00  0.00    +0.124 C 
ENDROOT
BRANCH   1   2
ATOM      2  C   UNL     1      35.333 -17.723 -21.733  0.00  0.00    -0.002 C 
ATOM      3  C   UNL     1      35.301 -17.403 -23.091  0.00  0.00    -0.003 C 
ATOM      4  C   UNL     1      34.931 -16.782 -20.786  0.00  0.00    -0.003 C 
ATOM      5  C   UNL     1      34.868 -16.141 -23.500  0.00  0.00    -0.000 C 
ATOM      6  C   UNL     1      34.498 -15.521 -21.195  0.00  0.00    -0.000 C 
ATOM      7  C   UNL     1      34.466 -15.201 -22.552  0.00  0.00    -0.000 C 
ENDBRANCH   1   2
BRANCH   1   8
ATOM      8  N   UNL     1      34.698 -19.874 -20.746  0.00  0.00    -0.264 N 
ATOM      9  N   UNL     1      32.650 -20.590 -20.391  0.00  0.00    -0.225 NA
ATOM     10  C   UNL     1      34.834 -20.883 -19.856  0.00  0.00    +0.088 C 
ATOM     11  C   UNL     1      33.387 -19.722 -21.046  0.00  0.00    +0.168 C 
ATOM     12  C   UNL     1      33.545 -21.317 -19.647  0.00  0.00    +0.117 C 
ENDBRANCH   1   8
TORSDOF 2
ENDMDL
MODEL 9
REMARK VINA RESULT:      -6.6      2.336      4.920
REMARK  Name = 77918
REMARK  2 active torsions:
REMARK  status: ('A' for Active; 'I' for Inactive)
REMARK    1  A    between atoms: C_1  and  C_2
REMARK    2  A    between atoms: C_1  and  N_8
REMARK                            x       y       z     vdW  Elec       q    Type
REMARK                         _______ _______ _______ _____ _____    ______ ____
ROOT
ATOM      1  C   UNL     1      33.509 -20.094 -20.850  0.00  0.00    +0.124 C 
ENDROOT
BRANCH   1   2
ATOM      2  C   UNL     1      34.171 -19.020 -21.646  0.00  0.00    -0.002 C 
ATOM      3  C   UNL     1      34.705 -19.311 -22.902  0.00  0.00    -0.003 C 
ATOM      4  C   UNL     1      34.256 -17.725 -21.135  0.00  0.00    -0.003 C 
ATOM      5  C   UNL     1      35.325 -18.305 -23.645  0.00  0.00    -0.000 C 
ATOM      6  C   UNL     1      34.875 -16.721 -21.879  0.00  0.00    -0.000 C 
ATOM      7  C   UNL     1      35.409 -17.011 -23.134  0.00  0.00    -0.000 C 
ENDBRANCH   1   2
BRANCH   1   8
ATOM      8  N   UNL     1      34.473 -20.847 -20.041  0.00  0.00    -0.264 N 
ATOM      9  N   UNL     1      35.248 -22.327 -18.612  0.00  0.00    -0.225 NA
ATOM     10  C   UNL     1      35.810 -20.644 -20.023  0.00  0.00    +0.088 C 
ATOM     11  C   UNL     1      34.167 -21.855 -19.191  0.00  0.00    +0.168 C 
ATOM     12  C   UNL     1      36.276 -21.577 -19.126  0.00  0.00    +0.117 C 
ENDBRANCH   1   8
TORSDOF 2
ENDMDL
