MODEL 1
REMARK VINA RESULT:      -9.2      0.000      0.000
REMARK  Name = 35803
REMARK  4 active torsions:
REMARK  status: ('A' for Active; 'I' for Inactive)
REMARK    1  A    between atoms: N_4  and  C_11
REMARK    2  A    between atoms: C_5  and  C_17
REMARK    3  A    between atoms: C_12  and  O_21
REMARK    4  A    between atoms: C_17  and  C_18
REMARK                            x       y       z     vdW  Elec       q    Type
REMARK                         _______ _______ _______ _____ _____    ______ ____
ROOT
ATOM      1  N   UNL     1      32.626 -21.961 -18.739  0.00  0.00    -0.302 N 
ATOM      2  N   UNL     1      34.501 -22.716 -17.815  0.00  0.00    -0.302 N 
ATOM      3  C   UNL     1      34.901 -20.058 -20.978  0.00  0.00    +0.036 C 
ATOM      4  C   UNL     1      33.650 -20.467 -20.507  0.00  0.00    +0.018 C 
ATOM      5  C   UNL     1      36.082 -20.529 -20.401  0.00  0.00    +0.004 C 
ATOM      6  C   UNL     1      33.644 -21.364 -19.438  0.00  0.00    +0.060 C 
ATOM      7  C   UNL     1      34.804 -21.850 -18.842  0.00  0.00    +0.060 C 
ATOM      8  C   UNL     1      36.052 -21.429 -19.329  0.00  0.00    +0.016 C 
ATOM      9  C   UNL     1      33.188 -22.758 -17.781  0.00  0.00    +0.229 C 
ATOM     10  H   UNL     1      31.662 -21.838 -18.899  0.00  0.00    +0.150 HD
ATOM     11  H   UNL     1      35.131 -23.197 -17.232  0.00  0.00    +0.150 HD
ENDROOT
BRANCH   9  13
ATOM     12  O   UNL     1      30.339 -22.347 -17.036  0.00  0.00    -0.226 OA
ATOM     13  N   UNL     1      32.394 -23.483 -16.931  0.00  0.00    -0.240 N 
ATOM     14  C   UNL     1      31.055 -23.246 -16.615  0.00  0.00    +0.404 C 
ATOM     15  H   UNL     1      32.815 -24.258 -16.495  0.00  0.00    +0.156 HD
BRANCH  14  16
ATOM     16  O   UNL     1      30.625 -24.198 -15.729  0.00  0.00    -0.431 OA
ATOM     17  C   UNL     1      29.208 -24.399 -15.660  0.00  0.00    +0.257 C 
ENDBRANCH  14  16
ENDBRANCH   9  13
BRANCH   3  19
ATOM     18  O   UNL     1      34.528 -19.402 -23.215  0.00  0.00    -0.291 OA
ATOM     19  C   UNL     1      34.971 -19.123 -22.091  0.00  0.00    +0.173 C 
BRANCH  19  20
ATOM     20  C   UNL     1      35.618 -17.773 -21.919  0.00  0.00    +0.062 C 
ATOM     21  C   UNL     1      34.936 -16.782 -21.050  0.00  0.00    +0.008 C 
ATOM     22  C   UNL     1      34.955 -16.599 -22.539  0.00  0.00    +0.008 C 
ENDBRANCH  19  20
ENDBRANCH   3  19
TORSDOF 4
ENDMDL
MODEL 2
REMARK VINA RESULT:      -9.0      4.886      8.631
REMARK  Name = 35803
REMARK  4 active torsions:
REMARK  status: ('A' for Active; 'I' for Inactive)
REMARK    1  A    between atoms: N_4  and  C_11
REMARK    2  A    between atoms: C_5  and  C_17
REMARK    3  A    between atoms: C_12  and  O_21
REMARK    4  A    between atoms: C_17  and  C_18
REMARK                            x       y       z     vdW  Elec       q    Type
REMARK                         _______ _______ _______ _____ _____    ______ ____
ROOT
ATOM      1  N   UNL     1      34.585 -15.192 -22.111  0.00  0.00    -0.302 N 
ATOM      2  N   UNL     1      34.401 -15.724 -24.261  0.00  0.00    -0.302 N 
ATOM      3  C   UNL     1      35.208 -18.823 -21.619  0.00  0.00    +0.036 C 
ATOM      4  C   UNL     1      35.057 -17.501 -21.189  0.00  0.00    +0.018 C 
ATOM      5  C   UNL     1      35.094 -19.163 -22.970  0.00  0.00    +0.004 C 
ATOM      6  C   UNL     1      34.788 -16.547 -22.171  0.00  0.00    +0.060 C 
ATOM      7  C   UNL     1      34.667 -16.855 -23.523  0.00  0.00    +0.060 C 
ATOM      8  C   UNL     1      34.823 -18.188 -23.938  0.00  0.00    +0.016 C 
ATOM      9  C   UNL     1      34.358 -14.747 -23.383  0.00  0.00    +0.229 C 
ATOM     10  H   UNL     1      34.600 -14.639 -21.297  0.00  0.00    +0.150 HD
ATOM     11  H   UNL     1      34.270 -15.661 -25.235  0.00  0.00    +0.150 HD
ENDROOT
BRANCH   9  13
ATOM     12  O   UNL     1      32.093 -13.034 -22.503  0.00  0.00    -0.226 OA
ATOM     13  N   UNL     1      34.126 -13.418 -23.620  0.00  0.00    -0.240 N 
ATOM     14  C   UNL     1      33.040 -12.657 -23.181  0.00  0.00    +0.404 C 
ATOM     15  H   UNL     1      34.799 -12.945 -24.161  0.00  0.00    +0.156 HD
BRANCH  14  16
ATOM     16  O   UNL     1      33.179 -11.370 -23.629  0.00  0.00    -0.431 OA
ATOM     17  C   UNL     1      34.035 -11.187 -24.763  0.00  0.00    +0.257 C 
ENDBRANCH  14  16
ENDBRANCH   9  13
BRANCH   3  19
ATOM     18  O   UNL     1      36.480 -19.815 -19.896  0.00  0.00    -0.291 OA
ATOM     19  C   UNL     1      35.490 -19.862 -20.642  0.00  0.00    +0.173 C 
BRANCH  19  20
ATOM     20  C   UNL     1      34.588 -21.063 -20.517  0.00  0.00    +0.062 C 
ATOM     21  C   UNL     1      33.284 -20.884 -19.832  0.00  0.00    +0.008 C 
ATOM     22  C   UNL     1      34.391 -21.649 -19.168  0.00  0.00    +0.008 C 
ENDBRANCH  19  20
ENDBRANCH   3  19
TORSDOF 4
ENDMDL
MODEL 3
REMARK VINA RESULT:      -8.9      5.120      9.285
REMARK  Name = 35803
REMARK  4 active torsions:
REMARK  status: ('A' for Active; 'I' for Inactive)
REMARK    1  A    between atoms: N_4  and  C_11
REMARK    2  A    between atoms: C_5  and  C_17
REMARK    3  A    between atoms: C_12  and  O_21
REMARK    4  A    between atoms: C_17  and  C_18
REMARK                            x       y       z     vdW  Elec       q    Type
REMARK                         _______ _______ _______ _____ _____    ______ ____
ROOT
ATOM      1  N   UNL     1      34.449 -14.596 -22.037  0.00  0.00    -0.302 N 
ATOM      2  N   UNL     1      34.275 -14.951 -24.224  0.00  0.00    -0.302 N 
ATOM      3  C   UNL     1      35.074 -18.254 -21.841  0.00  0.00    +0.036 C 
ATOM      4  C   UNL     1      34.919 -16.973 -21.305  0.00  0.00    +0.018 C 
ATOM      5  C   UNL     1      34.966 -18.483 -23.215  0.00  0.00    +0.004 C 
ATOM      6  C   UNL     1      34.654 -15.942 -22.207  0.00  0.00    +0.060 C 
ATOM      7  C   UNL     1      34.539 -16.139 -23.580  0.00  0.00    +0.060 C 
ATOM      8  C   UNL     1      34.698 -17.433 -24.102  0.00  0.00    +0.016 C 
ATOM      9  C   UNL     1      34.227 -14.049 -23.270  0.00  0.00    +0.229 C 
ATOM     10  H   UNL     1      34.461 -14.111 -21.181  0.00  0.00    +0.150 HD
ATOM     11  H   UNL     1      34.148 -14.809 -25.190  0.00  0.00    +0.150 HD
ENDROOT
BRANCH   9  13
ATOM     12  O   UNL     1      33.685 -12.445 -25.714  0.00  0.00    -0.226 OA
ATOM     13  N   UNL     1      33.994 -12.705 -23.399  0.00  0.00    -0.240 N 
ATOM     14  C   UNL     1      33.743 -11.998 -24.577  0.00  0.00    +0.404 C 
ATOM     15  H   UNL     1      34.004 -12.177 -22.568  0.00  0.00    +0.156 HD
BRANCH  14  16
ATOM     16  O   UNL     1      33.561 -10.673 -24.279  0.00  0.00    -0.431 OA
ATOM     17  C   UNL     1      34.735  -9.853 -24.317  0.00  0.00    +0.257 C 
ENDBRANCH  14  16
ENDBRANCH   9  13
BRANCH   3  19
ATOM     18  O   UNL     1      36.356 -19.397 -20.222  0.00  0.00    -0.291 OA
ATOM     19  C   UNL     1      35.353 -19.370 -20.951  0.00  0.00    +0.173 C 
BRANCH  19  20
ATOM     20  C   UNL     1      34.431 -20.561 -20.901  0.00  0.00    +0.062 C 
ATOM     21  C   UNL     1      33.107 -20.387 -20.253  0.00  0.00    +0.008 C 
ATOM     22  C   UNL     1      34.180 -21.192 -19.581  0.00  0.00    +0.008 C 
ENDBRANCH  19  20
ENDBRANCH   3  19
TORSDOF 4
ENDMDL
MODEL 4
REMARK VINA RESULT:      -8.7      6.354      7.958
REMARK  Name = 35803
REMARK  4 active torsions:
REMARK  status: ('A' for Active; 'I' for Inactive)
REMARK    1  A    between atoms: N_4  and  C_11
REMARK    2  A    between atoms: C_5  and  C_17
REMARK    3  A    between atoms: C_12  and  O_21
REMARK    4  A    between atoms: C_17  and  C_18
REMARK                            x       y       z     vdW  Elec       q    Type
REMARK                         _______ _______ _______ _____ _____    ______ ____
ROOT
ATOM      1  N   UNL     1      32.867 -23.024 -14.806  0.00  0.00    -0.302 N 
ATOM      2  N   UNL     1      32.721 -24.867 -13.572  0.00  0.00    -0.302 N 
ATOM      3  C   UNL     1      29.414 -23.880 -15.879  0.00  0.00    +0.036 C 
ATOM      4  C   UNL     1      30.572 -23.098 -15.870  0.00  0.00    +0.018 C 
ATOM      5  C   UNL     1      29.316 -25.039 -15.105  0.00  0.00    +0.004 C 
ATOM      6  C   UNL     1      31.617 -23.531 -15.054  0.00  0.00    +0.060 C 
ATOM      7  C   UNL     1      31.550 -24.682 -14.273  0.00  0.00    +0.060 C 
ATOM      8  C   UNL     1      30.379 -25.456 -14.294  0.00  0.00    +0.016 C 
ATOM      9  C   UNL     1      33.487 -23.856 -13.916  0.00  0.00    +0.229 C 
ATOM     10  H   UNL     1      33.250 -22.206 -15.199  0.00  0.00    +0.150 HD
ATOM     11  H   UNL     1      32.937 -25.598 -12.950  0.00  0.00    +0.150 HD
ENDROOT
BRANCH   9  13
ATOM     12  O   UNL     1      34.933 -24.866 -11.522  0.00  0.00    -0.226 OA
ATOM     13  N   UNL     1      34.759 -23.585 -13.486  0.00  0.00    -0.240 N 
ATOM     14  C   UNL     1      35.393 -24.089 -12.348  0.00  0.00    +0.404 C 
ATOM     15  H   UNL     1      35.286 -22.966 -14.041  0.00  0.00    +0.156 HD
BRANCH  14  16
ATOM     16  O   UNL     1      36.661 -23.576 -12.273  0.00  0.00    -0.431 OA
ATOM     17  C   UNL     1      37.714 -24.526 -12.071  0.00  0.00    +0.257 C 
ENDBRANCH  14  16
ENDBRANCH   9  13
BRANCH   3  19
ATOM     18  O   UNL     1      27.793 -24.236 -17.557  0.00  0.00    -0.291 OA
ATOM     19  C   UNL     1      28.289 -23.479 -16.710  0.00  0.00    +0.173 C 
BRANCH  19  20
ATOM     20  C   UNL     1      27.697 -22.098 -16.585  0.00  0.00    +0.062 C 
ATOM     21  C   UNL     1      26.356 -21.973 -15.961  0.00  0.00    +0.008 C 
ATOM     22  C   UNL     1      26.529 -21.763 -17.437  0.00  0.00    +0.008 C 
ENDBRANCH  19  20
ENDBRANCH   3  19
TORSDOF 4
ENDMDL
MODEL 5
REMARK VINA RESULT:      -8.6      5.604      9.171
REMARK  Name = 35803
REMARK  4 active torsions:
REMARK  status: ('A' for Active; 'I' for Inactive)
REMARK    1  A    between atoms: N_4  and  C_11
REMARK    2  A    between atoms: C_5  and  C_17
REMARK    3  A    between atoms: C_12  and  O_21
REMARK    4  A    between atoms: C_17  and  C_18
REMARK                            x       y       z     vdW  Elec       q    Type
REMARK                         _______ _______ _______ _____ _____    ______ ____
ROOT
ATOM      1  N   UNL     1      33.597 -13.918 -22.074  0.00  0.00    -0.302 N 
ATOM      2  N   UNL     1      33.817 -14.037 -24.283  0.00  0.00    -0.302 N 
ATOM      3  C   UNL     1      34.752 -17.450 -22.112  0.00  0.00    +0.036 C 
ATOM      4  C   UNL     1      34.317 -16.273 -21.494  0.00  0.00    +0.018 C 
ATOM      5  C   UNL     1      34.892 -17.531 -23.500  0.00  0.00    +0.004 C 
ATOM      6  C   UNL     1      34.034 -15.192 -22.330  0.00  0.00    +0.060 C 
ATOM      7  C   UNL     1      34.163 -15.243 -23.715  0.00  0.00    +0.060 C 
ATOM      8  C   UNL     1      34.601 -16.432 -24.319  0.00  0.00    +0.016 C 
ATOM      9  C   UNL     1      33.483 -13.267 -23.271  0.00  0.00    +0.229 C 
ATOM     10  H   UNL     1      33.402 -13.538 -21.187  0.00  0.00    +0.150 HD
ATOM     11  H   UNL     1      33.819 -13.803 -25.239  0.00  0.00    +0.150 HD
ENDROOT
BRANCH   9  13
ATOM     12  O   UNL     1      31.400 -11.894 -21.655  0.00  0.00    -0.226 OA
ATOM     13  N   UNL     1      33.065 -11.963 -23.313  0.00  0.00    -0.240 N 
ATOM     14  C   UNL     1      32.077 -11.366 -22.527  0.00  0.00    +0.404 C 
ATOM     15  H   UNL     1      33.510 -11.382 -23.971  0.00  0.00    +0.156 HD
BRANCH  14  16
ATOM     16  O   UNL     1      31.958 -10.047 -22.877  0.00  0.00    -0.431 OA
ATOM     17  C   UNL     1      32.080  -9.099 -21.809  0.00  0.00    +0.257 C 
ENDBRANCH  14  16
ENDBRANCH   9  13
BRANCH   3  19
ATOM     18  O   UNL     1      36.060 -18.651 -20.557  0.00  0.00    -0.291 OA
ATOM     19  C   UNL     1      35.063 -18.611 -21.294  0.00  0.00    +0.173 C 
BRANCH  19  20
ATOM     20  C   UNL     1      34.184 -19.835 -21.332  0.00  0.00    +0.062 C 
ATOM     21  C   UNL     1      32.896 -19.788 -20.595  0.00  0.00    +0.008 C 
ATOM     22  C   UNL     1      34.033 -20.623 -20.083  0.00  0.00    +0.008 C 
ENDBRANCH  19  20
ENDBRANCH   3  19
TORSDOF 4
ENDMDL
MODEL 6
REMARK VINA RESULT:      -8.6      5.589      7.896
REMARK  Name = 35803
REMARK  4 active torsions:
REMARK  status: ('A' for Active; 'I' for Inactive)
REMARK    1  A    between atoms: N_4  and  C_11
REMARK    2  A    between atoms: C_5  and  C_17
REMARK    3  A    between atoms: C_12  and  O_21
REMARK    4  A    between atoms: C_17  and  C_18
REMARK                            x       y       z     vdW  Elec       q    Type
REMARK                         _______ _______ _______ _____ _____    ______ ____
ROOT
ATOM      1  N   UNL     1      33.802 -23.964 -13.071  0.00  0.00    -0.302 N 
ATOM      2  N   UNL     1      35.018 -23.505 -14.874  0.00  0.00    -0.302 N 
ATOM      3  C   UNL     1      30.894 -23.542 -15.347  0.00  0.00    +0.036 C 
ATOM      4  C   UNL     1      31.502 -23.804 -14.116  0.00  0.00    +0.018 C 
ATOM      5  C   UNL     1      31.654 -23.253 -16.484  0.00  0.00    +0.004 C 
ATOM      6  C   UNL     1      32.896 -23.763 -14.082  0.00  0.00    +0.060 C 
ATOM      7  C   UNL     1      33.680 -23.478 -15.196  0.00  0.00    +0.060 C 
ATOM      8  C   UNL     1      33.053 -23.217 -16.426  0.00  0.00    +0.016 C 
ATOM      9  C   UNL     1      35.054 -23.799 -13.594  0.00  0.00    +0.229 C 
ATOM     10  H   UNL     1      33.588 -24.188 -12.137  0.00  0.00    +0.150 HD
ATOM     11  H   UNL     1      35.782 -23.340 -15.472  0.00  0.00    +0.150 HD
ENDROOT
BRANCH   9  13
ATOM     12  O   UNL     1      35.289 -24.975 -10.873  0.00  0.00    -0.226 OA
ATOM     13  N   UNL     1      36.161 -23.946 -12.798  0.00  0.00    -0.240 N 
ATOM     14  C   UNL     1      36.216 -24.509 -11.522  0.00  0.00    +0.404 C 
ATOM     15  H   UNL     1      37.012 -23.619 -13.168  0.00  0.00    +0.156 HD
BRANCH  14  16
ATOM     16  O   UNL     1      37.508 -24.469 -11.066  0.00  0.00    -0.431 OA
ATOM     17  C   UNL     1      38.500 -24.077 -12.022  0.00  0.00    +0.257 C 
ENDBRANCH  14  16
ENDBRANCH   9  13
BRANCH   3  19
ATOM     18  O   UNL     1      28.775 -24.534 -15.045  0.00  0.00    -0.291 OA
ATOM     19  C   UNL     1      29.443 -23.570 -15.445  0.00  0.00    +0.173 C 
BRANCH  19  20
ATOM     20  C   UNL     1      28.694 -22.421 -16.069  0.00  0.00    +0.062 C 
ATOM     21  C   UNL     1      27.231 -22.336 -15.833  0.00  0.00    +0.008 C 
ATOM     22  C   UNL     1      27.761 -22.721 -17.184  0.00  0.00    +0.008 C 
ENDBRANCH  19  20
ENDBRANCH   3  19
TORSDOF 4
ENDMDL
MODEL 7
REMARK VINA RESULT:      -8.6      5.382      7.376
REMARK  Name = 35803
REMARK  4 active torsions:
REMARK  status: ('A' for Active; 'I' for Inactive)
REMARK    1  A    between atoms: N_4  and  C_11
REMARK    2  A    between atoms: C_5  and  C_17
REMARK    3  A    between atoms: C_12  and  O_21
REMARK    4  A    between atoms: C_17  and  C_18
REMARK                            x       y       z     vdW  Elec       q    Type
REMARK                         _______ _______ _______ _____ _____    ______ ____
ROOT
ATOM      1  N   UNL     1      30.229 -22.944 -14.583  0.00  0.00    -0.302 N 
ATOM      2  N   UNL     1      30.688 -22.742 -16.748  0.00  0.00    -0.302 N 
ATOM      3  C   UNL     1      33.807 -23.899 -14.264  0.00  0.00    +0.036 C 
ATOM      4  C   UNL     1      32.522 -23.646 -13.774  0.00  0.00    +0.018 C 
ATOM      5  C   UNL     1      34.101 -23.774 -15.624  0.00  0.00    +0.004 C 
ATOM      6  C   UNL     1      31.557 -23.263 -14.706  0.00  0.00    +0.060 C 
ATOM      7  C   UNL     1      31.820 -23.130 -16.067  0.00  0.00    +0.060 C 
ATOM      8  C   UNL     1      33.116 -23.389 -16.543  0.00  0.00    +0.016 C 
ATOM      9  C   UNL     1      29.755 -22.641 -15.829  0.00  0.00    +0.229 C 
ATOM     10  H   UNL     1      29.710 -22.935 -13.746  0.00  0.00    +0.150 HD
ATOM     11  H   UNL     1      30.598 -22.578 -17.714  0.00  0.00    +0.150 HD
ENDROOT
BRANCH   9  13
ATOM     12  O   UNL     1      27.827 -23.458 -17.939  0.00  0.00    -0.226 OA
ATOM     13  N   UNL     1      28.444 -22.280 -16.001  0.00  0.00    -0.240 N 
ATOM     14  C   UNL     1      27.579 -22.696 -17.015  0.00  0.00    +0.404 C 
ATOM     15  H   UNL     1      28.070 -21.658 -15.336  0.00  0.00    +0.156 HD
BRANCH  14  16
ATOM     16  O   UNL     1      26.354 -22.110 -16.832  0.00  0.00    -0.431 OA
ATOM     17  C   UNL     1      25.968 -21.139 -17.813  0.00  0.00    +0.257 C 
ENDBRANCH  14  16
ENDBRANCH   9  13
BRANCH   3  19
ATOM     18  O   UNL     1      34.691 -24.289 -12.111  0.00  0.00    -0.291 OA
ATOM     19  C   UNL     1      34.855 -24.302 -13.340  0.00  0.00    +0.173 C 
BRANCH  19  20
ATOM     20  C   UNL     1      36.206 -24.730 -13.852  0.00  0.00    +0.062 C 
ATOM     21  C   UNL     1      36.977 -25.707 -13.043  0.00  0.00    +0.008 C 
ATOM     22  C   UNL     1      37.409 -24.271 -13.113  0.00  0.00    +0.008 C 
ENDBRANCH  19  20
ENDBRANCH   3  19
TORSDOF 4
ENDMDL
MODEL 8
REMARK VINA RESULT:      -8.6      7.822     10.813
REMARK  Name = 35803
REMARK  4 active torsions:
REMARK  status: ('A' for Active; 'I' for Inactive)
REMARK    1  A    between atoms: N_4  and  C_11
REMARK    2  A    between atoms: C_5  and  C_17
REMARK    3  A    between atoms: C_12  and  O_21
REMARK    4  A    between atoms: C_17  and  C_18
REMARK                            x       y       z     vdW  Elec       q    Type
REMARK                         _______ _______ _______ _____ _____    ______ ____
ROOT
ATOM      1  N   UNL     1      33.713 -13.150 -24.238  0.00  0.00    -0.302 N 
ATOM      2  N   UNL     1      32.754 -14.343 -22.626  0.00  0.00    -0.302 N 
ATOM      3  C   UNL     1      32.132 -10.239 -22.554  0.00  0.00    +0.036 C 
ATOM      4  C   UNL     1      32.906 -10.855 -23.542  0.00  0.00    +0.018 C 
ATOM      5  C   UNL     1      31.527 -10.983 -21.539  0.00  0.00    +0.004 C 
ATOM      6  C   UNL     1      33.043 -12.241 -23.460  0.00  0.00    +0.060 C 
ATOM      7  C   UNL     1      32.453 -13.009 -22.461  0.00  0.00    +0.060 C 
ATOM      8  C   UNL     1      31.678 -12.374 -21.476  0.00  0.00    +0.016 C 
ATOM      9  C   UNL     1      33.510 -14.391 -23.700  0.00  0.00    +0.229 C 
ATOM     10  H   UNL     1      34.245 -12.947 -25.041  0.00  0.00    +0.150 HD
ATOM     11  H   UNL     1      32.466 -15.096 -22.062  0.00  0.00    +0.150 HD
ENDROOT
BRANCH   9  13
ATOM     12  O   UNL     1      33.421 -15.298 -26.529  0.00  0.00    -0.226 OA
ATOM     13  N   UNL     1      34.072 -15.497 -24.280  0.00  0.00    -0.240 N 
ATOM     14  C   UNL     1      34.000 -15.879 -25.621  0.00  0.00    +0.404 C 
ATOM     15  H   UNL     1      34.586 -16.090 -23.684  0.00  0.00    +0.156 HD
BRANCH  14  16
ATOM     16  O   UNL     1      34.696 -17.046 -25.797  0.00  0.00    -0.431 OA
ATOM     17  C   UNL     1      34.588 -18.008 -24.741  0.00  0.00    +0.257 C 
ENDBRANCH  14  16
ENDBRANCH   9  13
BRANCH   3  19
ATOM     18  O   UNL     1      31.097  -8.254 -23.302  0.00  0.00    -0.291 OA
ATOM     19  C   UNL     1      31.953  -8.796 -22.587  0.00  0.00    +0.173 C 
BRANCH  19  20
ATOM     20  C   UNL     1      32.832  -7.894 -21.759  0.00  0.00    +0.062 C 
ATOM     21  C   UNL     1      32.574  -7.824 -20.299  0.00  0.00    +0.008 C 
ATOM     22  C   UNL     1      32.227  -6.665 -21.188  0.00  0.00    +0.008 C 
ENDBRANCH  19  20
ENDBRANCH   3  19
TORSDOF 4
ENDMDL
MODEL 9
REMARK VINA RESULT:      -8.5      3.226      4.180
REMARK  Name = 35803
REMARK  4 active torsions:
REMARK  status: ('A' for Active; 'I' for Inactive)
REMARK    1  A    between atoms: N_4  and  C_11
REMARK    2  A    between atoms: C_5  and  C_17
REMARK    3  A    between atoms: C_12  and  O_21
REMARK    4  A    between atoms: C_17  and  C_18
REMARK                            x       y       z     vdW  Elec       q    Type
REMARK                         _______ _______ _______ _____ _____    ______ ____
ROOT
ATOM      1  N   UNL     1      37.021 -20.693 -19.122  0.00  0.00    -0.302 N 
ATOM      2  N   UNL     1      35.214 -21.882 -18.612  0.00  0.00    -0.302 N 
ATOM      3  C   UNL     1      34.790 -18.984 -21.554  0.00  0.00    +0.036 C 
ATOM      4  C   UNL     1      36.008 -19.212 -20.907  0.00  0.00    +0.018 C 
ATOM      5  C   UNL     1      33.651 -19.729 -21.237  0.00  0.00    +0.004 C 
ATOM      6  C   UNL     1      36.026 -20.213 -19.935  0.00  0.00    +0.060 C 
ATOM      7  C   UNL     1      34.908 -20.971 -19.598  0.00  0.00    +0.060 C 
ATOM      8  C   UNL     1      33.692 -20.729 -20.258  0.00  0.00    +0.016 C 
ATOM      9  C   UNL     1      36.487 -21.688 -18.351  0.00  0.00    +0.229 C 
ATOM     10  H   UNL     1      37.953 -20.377 -19.098  0.00  0.00    +0.150 HD
ATOM     11  H   UNL     1      34.610 -22.537 -18.193  0.00  0.00    +0.150 HD
ENDROOT
BRANCH   9  13
ATOM     12  O   UNL     1      35.914 -22.366 -15.514  0.00  0.00    -0.226 OA
ATOM     13  N   UNL     1      37.266 -22.348 -17.437  0.00  0.00    -0.240 N 
ATOM     14  C   UNL     1      36.947 -22.642 -16.110  0.00  0.00    +0.404 C 
ATOM     15  H   UNL     1      38.149 -22.649 -17.751  0.00  0.00    +0.156 HD
BRANCH  14  16
ATOM     16  O   UNL     1      37.992 -23.314 -15.532  0.00  0.00    -0.431 OA
ATOM     17  C   UNL     1      37.647 -24.246 -14.500  0.00  0.00    +0.257 C 
ENDBRANCH  14  16
ENDBRANCH   9  13
BRANCH   3  19
ATOM     18  O   UNL     1      34.214 -16.839 -22.352  0.00  0.00    -0.291 OA
ATOM     19  C   UNL     1      34.708 -17.954 -22.577  0.00  0.00    +0.173 C 
BRANCH  19  20
ATOM     20  C   UNL     1      35.208 -18.218 -23.974  0.00  0.00    +0.062 C 
ATOM     21  C   UNL     1      34.395 -17.715 -25.109  0.00  0.00    +0.008 C 
ATOM     22  C   UNL     1      34.456 -19.185 -24.811  0.00  0.00    +0.008 C 
ENDBRANCH  19  20
ENDBRANCH   3  19
TORSDOF 4
ENDMDL
