MODEL 1
REMARK VINA RESULT:      -8.1      0.000      0.000
REMARK  Name = 14670
REMARK  4 active torsions:
REMARK  status: ('A' for Active; 'I' for Inactive)
REMARK    1  A    between atoms: N_2  and  C_15
REMARK    2  A    between atoms: C_15  and  C_16
REMARK    3  A    between atoms: C_16  and  C_17
REMARK    4  A    between atoms: C_17  and  N_18
REMARK                            x       y       z     vdW  Elec       q    Type
REMARK                         _______ _______ _______ _____ _____    ______ ____
ROOT
ATOM      1  S   UNL     1      33.031 -23.149 -17.488  0.00  0.00    -0.083 S 
ATOM      2  N   UNL     1      34.550 -23.410 -14.778  0.00  0.00    -0.272 N 
ATOM      3  N   UNL     1      32.535 -23.821 -13.520  0.00  0.00    -0.228 NA
ATOM      4  C   UNL     1      35.288 -22.853 -15.851  0.00  0.00    +0.059 C 
ATOM      5  C   UNL     1      33.137 -23.564 -14.717  0.00  0.00    +0.141 C 
ATOM      6  C   UNL     1      34.706 -22.674 -17.121  0.00  0.00    +0.043 C 
ATOM      7  C   UNL     1      32.357 -23.441 -15.874  0.00  0.00    +0.061 C 
ATOM      8  C   UNL     1      36.628 -22.430 -15.700  0.00  0.00    +0.015 C 
ATOM      9  C   UNL     1      35.446 -22.119 -18.182  0.00  0.00    +0.008 C 
ATOM     10  C   UNL     1      30.965 -23.585 -15.778  0.00  0.00    +0.011 C 
ATOM     11  C   UNL     1      37.357 -21.876 -16.756  0.00  0.00    +0.001 C 
ATOM     12  C   UNL     1      36.766 -21.723 -18.000  0.00  0.00    +0.001 C 
ATOM     13  C   UNL     1      30.365 -23.842 -14.556  0.00  0.00    +0.021 C 
ATOM     14  C   UNL     1      31.192 -23.952 -13.462  0.00  0.00    +0.100 C 
ENDROOT
BRANCH   2  15
ATOM     15  C   UNL     1      35.268 -23.738 -13.539  0.00  0.00    +0.095 C 
BRANCH  15  16
ATOM     16  C   UNL     1      35.920 -25.116 -13.656  0.00  0.00    -0.001 C 
BRANCH  16  17
ATOM     17  C   UNL     1      37.190 -25.249 -12.813  0.00  0.00    -0.076 C 
BRANCH  17  18
ATOM     18  N   UNL     1      38.139 -26.187 -13.399  0.00  0.00    +0.384 N 
ATOM     19  C   UNL     1      39.415 -25.525 -13.676  0.00  0.00    -0.101 C 
ATOM     20  C   UNL     1      37.595 -26.774 -14.625  0.00  0.00    -0.101 C 
ATOM     21  H   UNL     1      38.303 -26.937 -12.726  0.00  0.00    -0.080 HD
ENDBRANCH  17  18
ENDBRANCH  16  17
ENDBRANCH  15  16
ENDBRANCH   2  15
TORSDOF 4
ENDMDL
MODEL 2
REMARK VINA RESULT:      -8.0     10.956     13.806
REMARK  Name = 14670
REMARK  4 active torsions:
REMARK  status: ('A' for Active; 'I' for Inactive)
REMARK    1  A    between atoms: N_2  and  C_15
REMARK    2  A    between atoms: C_15  and  C_16
REMARK    3  A    between atoms: C_16  and  C_17
REMARK    4  A    between atoms: C_17  and  N_18
REMARK                            x       y       z     vdW  Elec       q    Type
REMARK                         _______ _______ _______ _____ _____    ______ ____
ROOT
ATOM      1  S   UNL     1      34.264 -15.586 -21.076  0.00  0.00    -0.083 S 
ATOM      2  N   UNL     1      33.304 -14.329 -23.763  0.00  0.00    -0.272 N 
ATOM      3  N   UNL     1      31.987 -12.631 -22.668  0.00  0.00    -0.228 NA
ATOM      4  C   UNL     1      33.907 -15.607 -23.857  0.00  0.00    +0.059 C 
ATOM      5  C   UNL     1      32.815 -13.713 -22.577  0.00  0.00    +0.141 C 
ATOM      6  C   UNL     1      34.370 -16.282 -22.710  0.00  0.00    +0.043 C 
ATOM      7  C   UNL     1      33.165 -14.215 -21.318  0.00  0.00    +0.061 C 
ATOM      8  C   UNL     1      34.053 -16.277 -25.092  0.00  0.00    +0.015 C 
ATOM      9  C   UNL     1      34.967 -17.552 -22.813  0.00  0.00    +0.008 C 
ATOM     10  C   UNL     1      32.656 -13.593 -20.168  0.00  0.00    +0.011 C 
ATOM     11  C   UNL     1      34.643 -17.541 -25.188  0.00  0.00    +0.001 C 
ATOM     12  C   UNL     1      35.104 -18.179 -24.046  0.00  0.00    +0.001 C 
ATOM     13  C   UNL     1      31.814 -12.498 -20.273  0.00  0.00    +0.021 C 
ATOM     14  C   UNL     1      31.512 -12.058 -21.540  0.00  0.00    +0.100 C 
ENDROOT
BRANCH   2  15
ATOM     15  C   UNL     1      33.013 -13.606 -25.008  0.00  0.00    +0.095 C 
BRANCH  15  16
ATOM     16  C   UNL     1      34.154 -12.642 -25.337  0.00  0.00    -0.001 C 
BRANCH  16  17
ATOM     17  C   UNL     1      33.882 -11.212 -24.863  0.00  0.00    -0.076 C 
BRANCH  17  18
ATOM     18  N   UNL     1      35.103 -10.420 -24.791  0.00  0.00    +0.384 N 
ATOM     19  C   UNL     1      34.831  -9.104 -24.207  0.00  0.00    -0.101 C 
ATOM     20  C   UNL     1      35.702 -10.271 -26.118  0.00  0.00    -0.101 C 
ATOM     21  H   UNL     1      35.766 -10.910 -24.189  0.00  0.00    -0.080 HD
ENDBRANCH  17  18
ENDBRANCH  16  17
ENDBRANCH  15  16
ENDBRANCH   2  15
TORSDOF 4
ENDMDL
MODEL 3
REMARK VINA RESULT:      -8.0      1.910      5.261
REMARK  Name = 14670
REMARK  4 active torsions:
REMARK  status: ('A' for Active; 'I' for Inactive)
REMARK    1  A    between atoms: N_2  and  C_15
REMARK    2  A    between atoms: C_15  and  C_16
REMARK    3  A    between atoms: C_16  and  C_17
REMARK    4  A    between atoms: C_17  and  N_18
REMARK                            x       y       z     vdW  Elec       q    Type
REMARK                         _______ _______ _______ _____ _____    ______ ____
ROOT
ATOM      1  S   UNL     1      37.120 -22.177 -16.104  0.00  0.00    -0.083 S 
ATOM      2  N   UNL     1      34.301 -23.430 -15.656  0.00  0.00    -0.272 N 
ATOM      3  N   UNL     1      34.959 -24.550 -13.625  0.00  0.00    -0.228 NA
ATOM      4  C   UNL     1      34.538 -22.881 -16.940  0.00  0.00    +0.059 C 
ATOM      5  C   UNL     1      35.286 -23.749 -14.680  0.00  0.00    +0.141 C 
ATOM      6  C   UNL     1      35.778 -22.297 -17.266  0.00  0.00    +0.043 C 
ATOM      7  C   UNL     1      36.591 -23.257 -14.800  0.00  0.00    +0.061 C 
ATOM      8  C   UNL     1      33.561 -22.910 -17.960  0.00  0.00    +0.015 C 
ATOM      9  C   UNL     1      36.006 -21.755 -18.544  0.00  0.00    +0.008 C 
ATOM     10  C   UNL     1      37.543 -23.600 -13.828  0.00  0.00    +0.011 C 
ATOM     11  C   UNL     1      33.794 -22.374 -19.230  0.00  0.00    +0.001 C 
ATOM     12  C   UNL     1      35.018 -21.792 -19.521  0.00  0.00    +0.001 C 
ATOM     13  C   UNL     1      37.200 -24.417 -12.763  0.00  0.00    +0.021 C 
ATOM     14  C   UNL     1      35.900 -24.863 -12.707  0.00  0.00    +0.100 C 
ENDROOT
BRANCH   2  15
ATOM     15  C   UNL     1      32.934 -23.855 -15.325  0.00  0.00    +0.095 C 
BRANCH  15  16
ATOM     16  C   UNL     1      32.187 -22.723 -14.617  0.00  0.00    -0.001 C 
BRANCH  16  17
ATOM     17  C   UNL     1      30.691 -23.004 -14.457  0.00  0.00    -0.076 C 
BRANCH  17  18
ATOM     18  N   UNL     1      30.171 -23.827 -15.542  0.00  0.00    +0.384 N 
ATOM     19  C   UNL     1      29.427 -23.006 -16.500  0.00  0.00    -0.101 C 
ATOM     20  C   UNL     1      29.316 -24.893 -15.017  0.00  0.00    -0.101 C 
ATOM     21  H   UNL     1      30.962 -24.253 -16.026  0.00  0.00    -0.080 HD
ENDBRANCH  17  18
ENDBRANCH  16  17
ENDBRANCH  15  16
ENDBRANCH   2  15
TORSDOF 4
ENDMDL
MODEL 4
REMARK VINA RESULT:      -7.9      1.403      2.109
REMARK  Name = 14670
REMARK  4 active torsions:
REMARK  status: ('A' for Active; 'I' for Inactive)
REMARK    1  A    between atoms: N_2  and  C_15
REMARK    2  A    between atoms: C_15  and  C_16
REMARK    3  A    between atoms: C_16  and  C_17
REMARK    4  A    between atoms: C_17  and  N_18
REMARK                            x       y       z     vdW  Elec       q    Type
REMARK                         _______ _______ _______ _____ _____    ______ ____
ROOT
ATOM      1  S   UNL     1      33.080 -23.220 -17.531  0.00  0.00    -0.083 S 
ATOM      2  N   UNL     1      35.822 -22.878 -16.088  0.00  0.00    -0.272 N 
ATOM      3  N   UNL     1      34.946 -23.555 -13.946  0.00  0.00    -0.228 NA
ATOM      4  C   UNL     1      35.725 -22.300 -17.377  0.00  0.00    +0.059 C 
ATOM      5  C   UNL     1      34.739 -23.309 -15.272  0.00  0.00    +0.141 C 
ATOM      6  C   UNL     1      34.532 -22.379 -18.123  0.00  0.00    +0.043 C 
ATOM      7  C   UNL     1      33.459 -23.470 -15.816  0.00  0.00    +0.061 C 
ATOM      8  C   UNL     1      36.800 -21.600 -17.969  0.00  0.00    +0.015 C 
ATOM      9  C   UNL     1      34.442 -21.801 -19.403  0.00  0.00    +0.008 C 
ATOM     10  C   UNL     1      32.409 -23.883 -14.983  0.00  0.00    +0.011 C 
ATOM     11  C   UNL     1      36.704 -21.025 -19.239  0.00  0.00    +0.001 C 
ATOM     12  C   UNL     1      35.524 -21.127 -19.959  0.00  0.00    +0.001 C 
ATOM     13  C   UNL     1      32.631 -24.126 -13.637  0.00  0.00    +0.021 C 
ATOM     14  C   UNL     1      33.912 -23.948 -13.170  0.00  0.00    +0.100 C 
ENDROOT
BRANCH   2  15
ATOM     15  C   UNL     1      37.143 -22.920 -15.445  0.00  0.00    +0.095 C 
BRANCH  15  16
ATOM     16  C   UNL     1      37.679 -24.353 -15.437  0.00  0.00    -0.001 C 
BRANCH  16  17
ATOM     17  C   UNL     1      38.414 -24.706 -14.142  0.00  0.00    -0.076 C 
BRANCH  17  18
ATOM     18  N   UNL     1      37.517 -24.729 -12.993  0.00  0.00    +0.384 N 
ATOM     19  C   UNL     1      38.066 -23.931 -11.894  0.00  0.00    -0.101 C 
ATOM     20  C   UNL     1      37.279 -26.104 -12.551  0.00  0.00    -0.101 C 
ATOM     21  H   UNL     1      36.626 -24.320 -13.277  0.00  0.00    -0.080 HD
ENDBRANCH  17  18
ENDBRANCH  16  17
ENDBRANCH  15  16
ENDBRANCH   2  15
TORSDOF 4
ENDMDL
MODEL 5
REMARK VINA RESULT:      -7.7     11.111     13.559
REMARK  Name = 14670
REMARK  4 active torsions:
REMARK  status: ('A' for Active; 'I' for Inactive)
REMARK    1  A    between atoms: N_2  and  C_15
REMARK    2  A    between atoms: C_15  and  C_16
REMARK    3  A    between atoms: C_16  and  C_17
REMARK    4  A    between atoms: C_17  and  N_18
REMARK                            x       y       z     vdW  Elec       q    Type
REMARK                         _______ _______ _______ _____ _____    ______ ____
ROOT
ATOM      1  S   UNL     1      33.301 -10.678 -24.178  0.00  0.00    -0.083 S 
ATOM      2  N   UNL     1      32.732 -13.439 -22.847  0.00  0.00    -0.272 N 
ATOM      3  N   UNL     1      33.077 -14.663 -24.896  0.00  0.00    -0.228 NA
ATOM      4  C   UNL     1      32.358 -12.300 -22.094  0.00  0.00    +0.059 C 
ATOM      5  C   UNL     1      33.037 -13.469 -24.237  0.00  0.00    +0.141 C 
ATOM      6  C   UNL     1      32.554 -10.998 -22.595  0.00  0.00    +0.043 C 
ATOM      7  C   UNL     1      33.285 -12.281 -24.937  0.00  0.00    +0.061 C 
ATOM      8  C   UNL     1      31.752 -12.408 -20.822  0.00  0.00    +0.015 C 
ATOM      9  C   UNL     1      32.178  -9.871 -21.841  0.00  0.00    +0.008 C 
ATOM     10  C   UNL     1      33.570 -12.343 -26.309  0.00  0.00    +0.011 C 
ATOM     11  C   UNL     1      31.378 -11.285 -20.079  0.00  0.00    +0.001 C 
ATOM     12  C   UNL     1      31.594 -10.014 -20.588  0.00  0.00    +0.001 C 
ATOM     13  C   UNL     1      33.604 -13.561 -26.968  0.00  0.00    +0.021 C 
ATOM     14  C   UNL     1      33.352 -14.687 -26.219  0.00  0.00    +0.100 C 
ENDROOT
BRANCH   2  15
ATOM     15  C   UNL     1      32.671 -14.754 -22.194  0.00  0.00    +0.095 C 
BRANCH  15  16
ATOM     16  C   UNL     1      34.026 -15.098 -21.573  0.00  0.00    -0.001 C 
BRANCH  16  17
ATOM     17  C   UNL     1      34.184 -16.591 -21.277  0.00  0.00    -0.076 C 
BRANCH  17  18
ATOM     18  N   UNL     1      35.351 -17.159 -21.941  0.00  0.00    +0.384 N 
ATOM     19  C   UNL     1      35.080 -17.377 -23.364  0.00  0.00    -0.101 C 
ATOM     20  C   UNL     1      35.748 -18.415 -21.303  0.00  0.00    -0.101 C 
ATOM     21  H   UNL     1      36.120 -16.494 -21.856  0.00  0.00    -0.080 HD
ENDBRANCH  17  18
ENDBRANCH  16  17
ENDBRANCH  15  16
ENDBRANCH   2  15
TORSDOF 4
ENDMDL
MODEL 6
REMARK VINA RESULT:      -7.7     14.526     16.915
REMARK  Name = 14670
REMARK  4 active torsions:
REMARK  status: ('A' for Active; 'I' for Inactive)
REMARK    1  A    between atoms: N_2  and  C_15
REMARK    2  A    between atoms: C_15  and  C_16
REMARK    3  A    between atoms: C_16  and  C_17
REMARK    4  A    between atoms: C_17  and  N_18
REMARK                            x       y       z     vdW  Elec       q    Type
REMARK                         _______ _______ _______ _____ _____    ______ ____
ROOT
ATOM      1  S   UNL     1      32.183  -7.387 -20.250  0.00  0.00    -0.083 S 
ATOM      2  N   UNL     1      32.186  -9.189 -22.795  0.00  0.00    -0.272 N 
ATOM      3  N   UNL     1      31.992  -7.316 -24.301  0.00  0.00    -0.228 NA
ATOM      4  C   UNL     1      31.981  -9.857 -21.563  0.00  0.00    +0.059 C 
ATOM      5  C   UNL     1      32.076  -7.789 -23.024  0.00  0.00    +0.141 C 
ATOM      6  C   UNL     1      31.947  -9.148 -20.346  0.00  0.00    +0.043 C 
ATOM      7  C   UNL     1      32.040  -6.893 -21.948  0.00  0.00    +0.061 C 
ATOM      8  C   UNL     1      31.777 -11.253 -21.492  0.00  0.00    +0.015 C 
ATOM      9  C   UNL     1      31.741  -9.819 -19.126  0.00  0.00    +0.008 C 
ATOM     10  C   UNL     1      31.919  -5.519 -22.207  0.00  0.00    +0.011 C 
ATOM     11  C   UNL     1      31.569 -11.914 -20.278  0.00  0.00    +0.001 C 
ATOM     12  C   UNL     1      31.554 -11.196 -19.092  0.00  0.00    +0.001 C 
ATOM     13  C   UNL     1      31.831  -5.052 -23.508  0.00  0.00    +0.021 C 
ATOM     14  C   UNL     1      31.873  -5.988 -24.515  0.00  0.00    +0.100 C 
ENDROOT
BRANCH   2  15
ATOM     15  C   UNL     1      32.392 -10.004 -23.999  0.00  0.00    +0.095 C 
BRANCH  15  16
ATOM     16  C   UNL     1      33.856 -10.438 -24.098  0.00  0.00    -0.001 C 
BRANCH  16  17
ATOM     17  C   UNL     1      34.054 -11.675 -24.976  0.00  0.00    -0.076 C 
BRANCH  17  18
ATOM     18  N   UNL     1      33.294 -12.819 -24.488  0.00  0.00    +0.384 N 
ATOM     19  C   UNL     1      33.988 -13.459 -23.368  0.00  0.00    -0.101 C 
ATOM     20  C   UNL     1      33.069 -13.787 -25.563  0.00  0.00    -0.101 C 
ATOM     21  H   UNL     1      32.389 -12.483 -24.159  0.00  0.00    -0.080 HD
ENDBRANCH  17  18
ENDBRANCH  16  17
ENDBRANCH  15  16
ENDBRANCH   2  15
TORSDOF 4
ENDMDL
MODEL 7
REMARK VINA RESULT:      -7.7      2.702      5.950
REMARK  Name = 14670
REMARK  4 active torsions:
REMARK  status: ('A' for Active; 'I' for Inactive)
REMARK    1  A    between atoms: N_2  and  C_15
REMARK    2  A    between atoms: C_15  and  C_16
REMARK    3  A    between atoms: C_16  and  C_17
REMARK    4  A    between atoms: C_17  and  N_18
REMARK                            x       y       z     vdW  Elec       q    Type
REMARK                         _______ _______ _______ _____ _____    ______ ____
ROOT
ATOM      1  S   UNL     1      36.750 -21.276 -18.759  0.00  0.00    -0.083 S 
ATOM      2  N   UNL     1      34.091 -22.674 -17.926  0.00  0.00    -0.272 N 
ATOM      3  N   UNL     1      32.794 -21.537 -19.612  0.00  0.00    -0.228 NA
ATOM      4  C   UNL     1      35.163 -22.788 -17.009  0.00  0.00    +0.059 C 
ATOM      5  C   UNL     1      33.997 -21.751 -19.005  0.00  0.00    +0.141 C 
ATOM      6  C   UNL     1      36.412 -22.188 -17.269  0.00  0.00    +0.043 C 
ATOM      7  C   UNL     1      35.129 -21.051 -19.442  0.00  0.00    +0.061 C 
ATOM      8  C   UNL     1      35.034 -23.481 -15.785  0.00  0.00    +0.015 C 
ATOM      9  C   UNL     1      37.473 -22.305 -16.352  0.00  0.00    +0.008 C 
ATOM     10  C   UNL     1      35.002 -20.139 -20.501  0.00  0.00    +0.011 C 
ATOM     11  C   UNL     1      36.089 -23.590 -14.876  0.00  0.00    +0.001 C 
ATOM     12  C   UNL     1      37.313 -23.004 -15.161  0.00  0.00    +0.001 C 
ATOM     13  C   UNL     1      33.774 -19.927 -21.105  0.00  0.00    +0.021 C 
ATOM     14  C   UNL     1      32.706 -20.649 -20.626  0.00  0.00    +0.100 C 
ENDROOT
BRANCH   2  15
ATOM     15  C   UNL     1      32.881 -23.472 -17.681  0.00  0.00    +0.095 C 
BRANCH  15  16
ATOM     16  C   UNL     1      31.968 -22.754 -16.686  0.00  0.00    -0.001 C 
BRANCH  16  17
ATOM     17  C   UNL     1      31.384 -23.693 -15.628  0.00  0.00    -0.076 C 
BRANCH  17  18
ATOM     18  N   UNL     1      29.972 -23.429 -15.384  0.00  0.00    +0.384 N 
ATOM     19  C   UNL     1      29.263 -24.669 -15.061  0.00  0.00    -0.101 C 
ATOM     20  C   UNL     1      29.359 -22.784 -16.546  0.00  0.00    -0.101 C 
ATOM     21  H   UNL     1      29.899 -22.797 -14.586  0.00  0.00    -0.080 HD
ENDBRANCH  17  18
ENDBRANCH  16  17
ENDBRANCH  15  16
ENDBRANCH   2  15
TORSDOF 4
ENDMDL
MODEL 8
REMARK VINA RESULT:      -7.7     10.290     13.289
REMARK  Name = 14670
REMARK  4 active torsions:
REMARK  status: ('A' for Active; 'I' for Inactive)
REMARK    1  A    between atoms: N_2  and  C_15
REMARK    2  A    between atoms: C_15  and  C_16
REMARK    3  A    between atoms: C_16  and  C_17
REMARK    4  A    between atoms: C_17  and  N_18
REMARK                            x       y       z     vdW  Elec       q    Type
REMARK                         _______ _______ _______ _____ _____    ______ ____
ROOT
ATOM      1  S   UNL     1      33.828 -16.929 -25.466  0.00  0.00    -0.083 S 
ATOM      2  N   UNL     1      33.989 -14.928 -23.080  0.00  0.00    -0.272 N 
ATOM      3  N   UNL     1      33.604 -13.002 -24.479  0.00  0.00    -0.228 NA
ATOM      4  C   UNL     1      34.459 -16.239 -22.822  0.00  0.00    +0.059 C 
ATOM      5  C   UNL     1      33.754 -14.353 -24.361  0.00  0.00    +0.141 C 
ATOM      6  C   UNL     1      34.448 -17.228 -23.825  0.00  0.00    +0.043 C 
ATOM      7  C   UNL     1      33.688 -15.161 -25.502  0.00  0.00    +0.061 C 
ATOM      8  C   UNL     1      34.981 -16.614 -21.564  0.00  0.00    +0.015 C 
ATOM      9  C   UNL     1      34.918 -18.528 -23.561  0.00  0.00    +0.008 C 
ATOM     10  C   UNL     1      33.468 -14.562 -26.752  0.00  0.00    +0.011 C 
ATOM     11  C   UNL     1      35.451 -17.905 -21.309  0.00  0.00    +0.001 C 
ATOM     12  C   UNL     1      35.416 -18.866 -22.308  0.00  0.00    +0.001 C 
ATOM     13  C   UNL     1      33.321 -13.190 -26.859  0.00  0.00    +0.021 C 
ATOM     14  C   UNL     1      33.396 -12.457 -25.698  0.00  0.00    +0.100 C 
ENDROOT
BRANCH   2  15
ATOM     15  C   UNL     1      33.857 -14.003 -21.947  0.00  0.00    +0.095 C 
BRANCH  15  16
ATOM     16  C   UNL     1      32.382 -13.807 -21.595  0.00  0.00    -0.001 C 
BRANCH  16  17
ATOM     17  C   UNL     1      32.165 -12.767 -20.493  0.00  0.00    -0.076 C 
BRANCH  17  18
ATOM     18  N   UNL     1      31.168 -11.773 -20.869  0.00  0.00    +0.384 N 
ATOM     19  C   UNL     1      31.535 -11.126 -22.130  0.00  0.00    -0.101 C 
ATOM     20  C   UNL     1      31.013 -10.772 -19.812  0.00  0.00    -0.101 C 
ATOM     21  H   UNL     1      30.275 -12.250 -20.997  0.00  0.00    -0.080 HD
ENDBRANCH  17  18
ENDBRANCH  16  17
ENDBRANCH  15  16
ENDBRANCH   2  15
TORSDOF 4
ENDMDL
MODEL 9
REMARK VINA RESULT:      -7.6      2.423      6.458
REMARK  Name = 14670
REMARK  4 active torsions:
REMARK  status: ('A' for Active; 'I' for Inactive)
REMARK    1  A    between atoms: N_2  and  C_15
REMARK    2  A    between atoms: C_15  and  C_16
REMARK    3  A    between atoms: C_16  and  C_17
REMARK    4  A    between atoms: C_17  and  N_18
REMARK                            x       y       z     vdW  Elec       q    Type
REMARK                         _______ _______ _______ _____ _____    ______ ____
ROOT
ATOM      1  S   UNL     1      33.368 -23.863 -13.539  0.00  0.00    -0.083 S 
ATOM      2  N   UNL     1      33.519 -23.380 -16.615  0.00  0.00    -0.272 N 
ATOM      3  N   UNL     1      35.913 -23.095 -16.602  0.00  0.00    -0.228 NA
ATOM      4  C   UNL     1      32.227 -23.311 -16.040  0.00  0.00    +0.059 C 
ATOM      5  C   UNL     1      34.757 -23.331 -15.916  0.00  0.00    +0.141 C 
ATOM      6  C   UNL     1      32.033 -23.500 -14.657  0.00  0.00    +0.043 C 
ATOM      7  C   UNL     1      34.798 -23.510 -14.528  0.00  0.00    +0.061 C 
ATOM      8  C   UNL     1      31.077 -23.028 -16.811  0.00  0.00    +0.015 C 
ATOM      9  C   UNL     1      30.745 -23.429 -14.093  0.00  0.00    +0.008 C 
ATOM     10  C   UNL     1      36.033 -23.444 -13.866  0.00  0.00    +0.011 C 
ATOM     11  C   UNL     1      29.801 -22.955 -16.245  0.00  0.00    +0.001 C 
ATOM     12  C   UNL     1      29.634 -23.159 -14.884  0.00  0.00    +0.001 C 
ATOM     13  C   UNL     1      37.199 -23.200 -14.572  0.00  0.00    +0.021 C 
ATOM     14  C   UNL     1      37.086 -23.034 -15.933  0.00  0.00    +0.100 C 
ENDROOT
BRANCH   2  15
ATOM     15  C   UNL     1      33.628 -23.357 -18.080  0.00  0.00    +0.095 C 
BRANCH  15  16
ATOM     16  C   UNL     1      33.429 -21.933 -18.601  0.00  0.00    -0.001 C 
BRANCH  16  17
ATOM     17  C   UNL     1      34.523 -21.496 -19.578  0.00  0.00    -0.076 C 
BRANCH  17  18
ATOM     18  N   UNL     1      34.281 -20.161 -20.108  0.00  0.00    +0.384 N 
ATOM     19  C   UNL     1      32.913 -20.049 -20.620  0.00  0.00    -0.101 C 
ATOM     20  C   UNL     1      35.244 -19.841 -21.163  0.00  0.00    -0.101 C 
ATOM     21  H   UNL     1      34.398 -19.490 -19.348  0.00  0.00    -0.080 HD
ENDBRANCH  17  18
ENDBRANCH  16  17
ENDBRANCH  15  16
ENDBRANCH   2  15
TORSDOF 4
ENDMDL
