MODEL 1
REMARK VINA RESULT:      -9.9      0.000      0.000
REMARK  Name = 8582
REMARK  8 active torsions:
REMARK  status: ('A' for Active; 'I' for Inactive)
REMARK    1  A    between atoms: C_2  and  O_17
REMARK    2  A    between atoms: C_3  and  N_7
REMARK    3  A    between atoms: C_4  and  O_19
REMARK    4  A    between atoms: C_5  and  C_21
REMARK    5  A    between atoms: C_21  and  O_22
REMARK    6  A    between atoms: O_22  and  P_23
REMARK    7  A    between atoms: P_23  and  O_25
REMARK    8  A    between atoms: P_23  and  O_27
REMARK                            x       y       z     vdW  Elec       q    Type
REMARK                         _______ _______ _______ _____ _____    ______ ____
ROOT
ATOM      1  O   UNL     1      37.836 -23.457 -13.472  0.00  0.00    -0.336 OA
ATOM      2  C   UNL     1      35.768 -24.063 -12.491  0.00  0.00    +0.183 C 
ATOM      3  C   UNL     1      36.449 -23.073 -13.423  0.00  0.00    +0.209 C 
ATOM      4  C   UNL     1      36.867 -24.331 -11.481  0.00  0.00    +0.171 C 
ATOM      5  C   UNL     1      38.117 -24.331 -12.355  0.00  0.00    +0.176 C 
ENDROOT
BRANCH   3   7
ATOM      6  O   UNL     1      33.252 -23.085 -18.450  0.00  0.00    -0.221 OA
ATOM      7  N   UNL     1      35.896 -23.053 -14.776  0.00  0.00    -0.210 NA
ATOM      8  N   UNL     1      35.830 -22.959 -17.019  0.00  0.00    -0.242 NA
ATOM      9  N   UNL     1      33.498 -23.244 -14.396  0.00  0.00    -0.259 NA
ATOM     10  N   UNL     1      32.170 -23.253 -16.405  0.00  0.00    -0.183 NA
ATOM     11  C   UNL     1      34.597 -23.131 -15.149  0.00  0.00    +0.173 C 
ATOM     12  C   UNL     1      36.608 -22.949 -15.950  0.00  0.00    +0.205 C 
ATOM     13  C   UNL     1      34.565 -23.075 -16.514  0.00  0.00    +0.167 C 
ATOM     14  C   UNL     1      33.300 -23.136 -17.228  0.00  0.00    +0.168 C 
ATOM     15  C   UNL     1      32.315 -23.300 -15.107  0.00  0.00    +0.211 C 
ATOM     16  H   UNL     1      33.529 -23.284 -13.413  0.00  0.00    +0.127 HD
ENDBRANCH   3   7
BRANCH   2  17
ATOM     17  O   UNL     1      34.600 -23.520 -11.908  0.00  0.00    -0.378 OA
ATOM     18  H   UNL     1      34.779 -22.615 -11.611  0.00  0.00    +0.211 HD
ENDBRANCH   2  17
BRANCH   4  19
ATOM     19  O   UNL     1      36.946 -23.240 -10.564  0.00  0.00    -0.379 OA
ATOM     20  H   UNL     1      36.051 -22.955 -10.321  0.00  0.00    +0.211 HD
ENDBRANCH   4  19
BRANCH   5  21
ATOM     21  C   UNL     1      38.461 -25.711 -12.899  0.00  0.00    +0.186 C 
BRANCH  21  22
ATOM     22  O   UNL     1      38.861 -25.578 -14.250  0.00  0.00    -0.271 OA
BRANCH  22  23
ATOM     23  P   UNL     1      40.427 -25.771 -14.615  0.00  0.00    +0.473 P 
ATOM     24  O   UNL     1      41.111 -26.897 -13.897  0.00  0.00    -0.227 OA
BRANCH  23  25
ATOM     25  O   UNL     1      41.062 -24.305 -14.364  0.00  0.00    -0.303 OA
ATOM     26  H   UNL     1      41.965 -24.278 -14.718  0.00  0.00    +0.222 HD
ENDBRANCH  23  25
BRANCH  23  27
ATOM     27  O   UNL     1      40.410 -25.897 -16.226  0.00  0.00    -0.303 OA
ATOM     28  H   UNL     1      40.006 -26.741 -16.482  0.00  0.00    +0.222 HD
ENDBRANCH  23  27
ENDBRANCH  22  23
ENDBRANCH  21  22
ENDBRANCH   5  21
TORSDOF 8
ENDMDL
MODEL 2
REMARK VINA RESULT:      -9.8      1.421      2.431
REMARK  Name = 8582
REMARK  8 active torsions:
REMARK  status: ('A' for Active; 'I' for Inactive)
REMARK    1  A    between atoms: C_2  and  O_17
REMARK    2  A    between atoms: C_3  and  N_7
REMARK    3  A    between atoms: C_4  and  O_19
REMARK    4  A    between atoms: C_5  and  C_21
REMARK    5  A    between atoms: C_21  and  O_22
REMARK    6  A    between atoms: O_22  and  P_23
REMARK    7  A    between atoms: P_23  and  O_25
REMARK    8  A    between atoms: P_23  and  O_27
REMARK                            x       y       z     vdW  Elec       q    Type
REMARK                         _______ _______ _______ _____ _____    ______ ____
ROOT
ATOM      1  O   UNL     1      37.081 -23.608 -14.891  0.00  0.00    -0.336 OA
ATOM      2  C   UNL     1      35.310 -24.223 -13.444  0.00  0.00    +0.183 C 
ATOM      3  C   UNL     1      35.759 -23.207 -14.483  0.00  0.00    +0.209 C 
ATOM      4  C   UNL     1      36.620 -24.545 -12.751  0.00  0.00    +0.171 C 
ATOM      5  C   UNL     1      37.612 -24.528 -13.909  0.00  0.00    +0.176 C 
ENDROOT
BRANCH   3   7
ATOM      6  O   UNL     1      33.047 -22.448 -19.733  0.00  0.00    -0.221 OA
ATOM      7  N   UNL     1      34.886 -23.127 -15.653  0.00  0.00    -0.210 NA
ATOM      8  N   UNL     1      33.041 -23.332 -16.917  0.00  0.00    -0.242 NA
ATOM      9  N   UNL     1      36.322 -22.128 -17.346  0.00  0.00    -0.259 NA
ATOM     10  N   UNL     1      35.262 -21.804 -19.484  0.00  0.00    -0.183 NA
ATOM     11  C   UNL     1      35.180 -22.645 -16.883  0.00  0.00    +0.173 C 
ATOM     12  C   UNL     1      33.572 -23.533 -15.723  0.00  0.00    +0.205 C 
ATOM     13  C   UNL     1      34.053 -22.773 -17.646  0.00  0.00    +0.167 C 
ATOM     14  C   UNL     1      34.046 -22.341 -19.033  0.00  0.00    +0.168 C 
ATOM     15  C   UNL     1      36.279 -21.728 -18.668  0.00  0.00    +0.211 C 
ATOM     16  H   UNL     1      37.130 -22.040 -16.791  0.00  0.00    +0.127 HD
ENDBRANCH   3   7
BRANCH   2  17
ATOM     17  O   UNL     1      34.338 -23.687 -12.569  0.00  0.00    -0.378 OA
ATOM     18  H   UNL     1      33.519 -24.201 -12.641  0.00  0.00    +0.211 HD
ENDBRANCH   2  17
BRANCH   4  19
ATOM     19  O   UNL     1      36.950 -23.491 -11.847  0.00  0.00    -0.379 OA
ATOM     20  H   UNL     1      37.793 -23.091 -12.110  0.00  0.00    +0.211 HD
ENDBRANCH   4  19
BRANCH   5  21
ATOM     21  C   UNL     1      37.777 -25.891 -14.569  0.00  0.00    +0.186 C 
BRANCH  21  22
ATOM     22  O   UNL     1      38.947 -26.503 -14.056  0.00  0.00    -0.271 OA
BRANCH  22  23
ATOM     23  P   UNL     1      40.386 -25.894 -14.478  0.00  0.00    +0.473 P 
ATOM     24  O   UNL     1      40.714 -24.562 -13.870  0.00  0.00    -0.227 OA
BRANCH  23  25
ATOM     25  O   UNL     1      40.357 -25.926 -16.096  0.00  0.00    -0.303 OA
ATOM     26  H   UNL     1      41.264 -25.898 -16.436  0.00  0.00    +0.222 HD
ENDBRANCH  23  25
BRANCH  23  27
ATOM     27  O   UNL     1      41.409 -27.088 -14.102  0.00  0.00    -0.303 OA
ATOM     28  H   UNL     1      42.308 -26.733 -14.025  0.00  0.00    +0.222 HD
ENDBRANCH  23  27
ENDBRANCH  22  23
ENDBRANCH  21  22
ENDBRANCH   5  21
TORSDOF 8
ENDMDL
MODEL 3
REMARK VINA RESULT:      -9.8      4.053      7.433
REMARK  Name = 8582
REMARK  8 active torsions:
REMARK  status: ('A' for Active; 'I' for Inactive)
REMARK    1  A    between atoms: C_2  and  O_17
REMARK    2  A    between atoms: C_3  and  N_7
REMARK    3  A    between atoms: C_4  and  O_19
REMARK    4  A    between atoms: C_5  and  C_21
REMARK    5  A    between atoms: C_21  and  O_22
REMARK    6  A    between atoms: O_22  and  P_23
REMARK    7  A    between atoms: P_23  and  O_25
REMARK    8  A    between atoms: P_23  and  O_27
REMARK                            x       y       z     vdW  Elec       q    Type
REMARK                         _______ _______ _______ _____ _____    ______ ____
ROOT
ATOM      1  O   UNL     1      31.934 -25.437 -14.560  0.00  0.00    -0.336 OA
ATOM      2  C   UNL     1      31.715 -23.297 -13.571  0.00  0.00    +0.183 C 
ATOM      3  C   UNL     1      32.666 -24.462 -13.794  0.00  0.00    +0.209 C 
ATOM      4  C   UNL     1      30.384 -24.014 -13.446  0.00  0.00    +0.171 C 
ATOM      5  C   UNL     1      30.523 -25.136 -14.472  0.00  0.00    +0.176 C 
ENDROOT
BRANCH   3   7
ATOM      6  O   UNL     1      38.085 -22.887 -15.703  0.00  0.00    -0.221 OA
ATOM      7  N   UNL     1      33.893 -24.101 -14.501  0.00  0.00    -0.210 NA
ATOM      8  N   UNL     1      35.285 -23.669 -16.210  0.00  0.00    -0.242 NA
ATOM      9  N   UNL     1      35.473 -23.692 -12.694  0.00  0.00    -0.259 NA
ATOM     10  N   UNL     1      37.677 -23.052 -13.425  0.00  0.00    -0.183 NA
ATOM     11  C   UNL     1      35.095 -23.771 -13.974  0.00  0.00    +0.173 C 
ATOM     12  C   UNL     1      34.059 -24.025 -15.867  0.00  0.00    +0.205 C 
ATOM     13  C   UNL     1      35.937 -23.510 -15.020  0.00  0.00    +0.167 C 
ATOM     14  C   UNL     1      37.317 -23.123 -14.780  0.00  0.00    +0.168 C 
ATOM     15  C   UNL     1      36.791 -23.322 -12.504  0.00  0.00    +0.211 C 
ATOM     16  H   UNL     1      34.862 -23.882 -11.946  0.00  0.00    +0.127 HD
ENDBRANCH   3   7
BRANCH   2  17
ATOM     17  O   UNL     1      32.053 -22.553 -12.418  0.00  0.00    -0.378 OA
ATOM     18  H   UNL     1      32.933 -22.164 -12.532  0.00  0.00    +0.211 HD
ENDBRANCH   2  17
BRANCH   4  19
ATOM     19  O   UNL     1      30.276 -24.591 -12.145  0.00  0.00    -0.379 OA
ATOM     20  H   UNL     1      31.071 -24.383 -11.631  0.00  0.00    +0.211 HD
ENDBRANCH   4  19
BRANCH   5  21
ATOM     21  C   UNL     1      30.029 -24.738 -15.856  0.00  0.00    +0.186 C 
BRANCH  21  22
ATOM     22  O   UNL     1      28.696 -24.273 -15.746  0.00  0.00    -0.271 OA
BRANCH  22  23
ATOM     23  P   UNL     1      28.284 -22.915 -16.524  0.00  0.00    +0.473 P 
ATOM     24  O   UNL     1      27.535 -21.912 -15.697  0.00  0.00    -0.227 OA
BRANCH  23  25
ATOM     25  O   UNL     1      27.505 -23.446 -17.838  0.00  0.00    -0.303 OA
ATOM     26  H   UNL     1      27.048 -22.706 -18.265  0.00  0.00    +0.222 HD
ENDBRANCH  23  25
BRANCH  23  27
ATOM     27  O   UNL     1      29.696 -22.395 -17.115  0.00  0.00    -0.303 OA
ATOM     28  H   UNL     1      29.976 -21.599 -16.636  0.00  0.00    +0.222 HD
ENDBRANCH  23  27
ENDBRANCH  22  23
ENDBRANCH  21  22
ENDBRANCH   5  21
TORSDOF 8
ENDMDL
MODEL 4
REMARK VINA RESULT:      -9.7      0.885      1.903
REMARK  Name = 8582
REMARK  8 active torsions:
REMARK  status: ('A' for Active; 'I' for Inactive)
REMARK    1  A    between atoms: C_2  and  O_17
REMARK    2  A    between atoms: C_3  and  N_7
REMARK    3  A    between atoms: C_4  and  O_19
REMARK    4  A    between atoms: C_5  and  C_21
REMARK    5  A    between atoms: C_21  and  O_22
REMARK    6  A    between atoms: O_22  and  P_23
REMARK    7  A    between atoms: P_23  and  O_25
REMARK    8  A    between atoms: P_23  and  O_27
REMARK                            x       y       z     vdW  Elec       q    Type
REMARK                         _______ _______ _______ _____ _____    ______ ____
ROOT
ATOM      1  O   UNL     1      37.528 -23.533 -13.767  0.00  0.00    -0.336 OA
ATOM      2  C   UNL     1      35.717 -24.065 -12.337  0.00  0.00    +0.183 C 
ATOM      3  C   UNL     1      36.173 -23.150 -13.463  0.00  0.00    +0.209 C 
ATOM      4  C   UNL     1      37.005 -24.249 -11.558  0.00  0.00    +0.171 C 
ATOM      5  C   UNL     1      38.049 -24.315 -12.668  0.00  0.00    +0.176 C 
ENDROOT
BRANCH   3   7
ATOM      6  O   UNL     1      33.636 -22.989 -18.851  0.00  0.00    -0.221 OA
ATOM      7  N   UNL     1      35.354 -23.238 -14.670  0.00  0.00    -0.210 NA
ATOM      8  N   UNL     1      33.614 -23.743 -15.998  0.00  0.00    -0.242 NA
ATOM      9  N   UNL     1      36.725 -22.132 -16.351  0.00  0.00    -0.259 NA
ATOM     10  N   UNL     1      35.733 -22.045 -18.544  0.00  0.00    -0.183 NA
ATOM     11  C   UNL     1      35.640 -22.776 -15.910  0.00  0.00    +0.173 C 
ATOM     12  C   UNL     1      34.109 -23.819 -14.774  0.00  0.00    +0.205 C 
ATOM     13  C   UNL     1      34.577 -23.086 -16.711  0.00  0.00    +0.167 C 
ATOM     14  C   UNL     1      34.579 -22.719 -18.118  0.00  0.00    +0.168 C 
ATOM     15  C   UNL     1      36.692 -21.799 -17.692  0.00  0.00    +0.211 C 
ATOM     16  H   UNL     1      37.487 -21.912 -15.767  0.00  0.00    +0.127 HD
ENDBRANCH   3   7
BRANCH   2  17
ATOM     17  O   UNL     1      34.684 -23.481 -11.569  0.00  0.00    -0.378 OA
ATOM     18  H   UNL     1      35.047 -23.163 -10.729  0.00  0.00    +0.211 HD
ENDBRANCH   2  17
BRANCH   4  19
ATOM     19  O   UNL     1      37.250 -23.089 -10.764  0.00  0.00    -0.379 OA
ATOM     20  H   UNL     1      37.174 -22.296 -11.317  0.00  0.00    +0.211 HD
ENDBRANCH   4  19
BRANCH   5  21
ATOM     21  C   UNL     1      38.299 -25.733 -13.164  0.00  0.00    +0.186 C 
BRANCH  21  22
ATOM     22  O   UNL     1      38.809 -25.668 -14.483  0.00  0.00    -0.271 OA
BRANCH  22  23
ATOM     23  P   UNL     1      40.409 -25.797 -14.700  0.00  0.00    +0.473 P 
ATOM     24  O   UNL     1      41.072 -26.881 -13.902  0.00  0.00    -0.227 OA
BRANCH  23  25
ATOM     25  O   UNL     1      40.955 -24.301 -14.421  0.00  0.00    -0.303 OA
ATOM     26  H   UNL     1      40.843 -24.085 -13.483  0.00  0.00    +0.222 HD
ENDBRANCH  23  25
BRANCH  23  27
ATOM     27  O   UNL     1      40.545 -25.949 -16.304  0.00  0.00    -0.303 OA
ATOM     28  H   UNL     1      41.478 -25.877 -16.559  0.00  0.00    +0.222 HD
ENDBRANCH  23  27
ENDBRANCH  22  23
ENDBRANCH  21  22
ENDBRANCH   5  21
TORSDOF 8
ENDMDL
MODEL 5
REMARK VINA RESULT:      -9.5      2.444      3.959
REMARK  Name = 8582
REMARK  8 active torsions:
REMARK  status: ('A' for Active; 'I' for Inactive)
REMARK    1  A    between atoms: C_2  and  O_17
REMARK    2  A    between atoms: C_3  and  N_7
REMARK    3  A    between atoms: C_4  and  O_19
REMARK    4  A    between atoms: C_5  and  C_21
REMARK    5  A    between atoms: C_21  and  O_22
REMARK    6  A    between atoms: O_22  and  P_23
REMARK    7  A    between atoms: P_23  and  O_25
REMARK    8  A    between atoms: P_23  and  O_27
REMARK                            x       y       z     vdW  Elec       q    Type
REMARK                         _______ _______ _______ _____ _____    ______ ____
ROOT
ATOM      1  O   UNL     1      35.879 -24.927 -15.830  0.00  0.00    -0.336 OA
ATOM      2  C   UNL     1      36.421 -22.655 -15.437  0.00  0.00    +0.183 C 
ATOM      3  C   UNL     1      35.799 -23.621 -16.434  0.00  0.00    +0.209 C 
ATOM      4  C   UNL     1      37.510 -23.514 -14.824  0.00  0.00    +0.171 C 
ATOM      5  C   UNL     1      36.841 -24.884 -14.752  0.00  0.00    +0.176 C 
ENDROOT
BRANCH   3   7
ATOM      6  O   UNL     1      29.926 -22.695 -16.799  0.00  0.00    -0.221 OA
ATOM      7  N   UNL     1      34.409 -23.318 -16.768  0.00  0.00    -0.210 NA
ATOM      8  N   UNL     1      32.631 -22.672 -17.978  0.00  0.00    -0.242 NA
ATOM      9  N   UNL     1      33.219 -23.841 -14.709  0.00  0.00    -0.259 NA
ATOM     10  N   UNL     1      30.840 -23.480 -14.817  0.00  0.00    -0.183 NA
ATOM     11  C   UNL     1      33.316 -23.432 -15.978  0.00  0.00    +0.173 C 
ATOM     12  C   UNL     1      33.941 -22.851 -17.977  0.00  0.00    +0.205 C 
ATOM     13  C   UNL     1      32.238 -23.038 -16.722  0.00  0.00    +0.167 C 
ATOM     14  C   UNL     1      30.902 -23.045 -16.150  0.00  0.00    +0.168 C 
ATOM     15  C   UNL     1      31.934 -23.835 -14.199  0.00  0.00    +0.211 C 
ATOM     16  H   UNL     1      33.999 -24.123 -14.180  0.00  0.00    +0.127 HD
ENDBRANCH   3   7
BRANCH   2  17
ATOM     17  O   UNL     1      36.921 -21.495 -16.069  0.00  0.00    -0.378 OA
ATOM     18  H   UNL     1      37.747 -21.224 -15.641  0.00  0.00    +0.211 HD
ENDBRANCH   2  17
BRANCH   4  19
ATOM     19  O   UNL     1      38.617 -23.589 -15.721  0.00  0.00    -0.379 OA
ATOM     20  H   UNL     1      39.068 -24.440 -15.609  0.00  0.00    +0.211 HD
ENDBRANCH   4  19
BRANCH   5  21
ATOM     21  C   UNL     1      36.103 -25.115 -13.440  0.00  0.00    +0.186 C 
BRANCH  21  22
ATOM     22  O   UNL     1      36.912 -24.648 -12.376  0.00  0.00    -0.271 OA
BRANCH  22  23
ATOM     23  P   UNL     1      36.240 -23.690 -11.257  0.00  0.00    +0.473 P 
ATOM     24  O   UNL     1      36.153 -24.284  -9.883  0.00  0.00    -0.227 OA
BRANCH  23  25
ATOM     25  O   UNL     1      34.825 -23.265 -11.917  0.00  0.00    -0.303 OA
ATOM     26  H   UNL     1      34.769 -23.618 -12.818  0.00  0.00    +0.222 HD
ENDBRANCH  23  25
BRANCH  23  27
ATOM     27  O   UNL     1      37.119 -22.337 -11.363  0.00  0.00    -0.303 OA
ATOM     28  H   UNL     1      36.700 -21.636 -10.841  0.00  0.00    +0.222 HD
ENDBRANCH  23  27
ENDBRANCH  22  23
ENDBRANCH  21  22
ENDBRANCH   5  21
TORSDOF 8
ENDMDL
MODEL 6
REMARK VINA RESULT:      -9.4      2.747      4.594
REMARK  Name = 8582
REMARK  8 active torsions:
REMARK  status: ('A' for Active; 'I' for Inactive)
REMARK    1  A    between atoms: C_2  and  O_17
REMARK    2  A    between atoms: C_3  and  N_7
REMARK    3  A    between atoms: C_4  and  O_19
REMARK    4  A    between atoms: C_5  and  C_21
REMARK    5  A    between atoms: C_21  and  O_22
REMARK    6  A    between atoms: O_22  and  P_23
REMARK    7  A    between atoms: P_23  and  O_25
REMARK    8  A    between atoms: P_23  and  O_27
REMARK                            x       y       z     vdW  Elec       q    Type
REMARK                         _______ _______ _______ _____ _____    ______ ____
ROOT
ATOM      1  O   UNL     1      35.565 -24.378 -15.921  0.00  0.00    -0.336 OA
ATOM      2  C   UNL     1      36.508 -22.221 -15.666  0.00  0.00    +0.183 C 
ATOM      3  C   UNL     1      36.023 -23.244 -16.681  0.00  0.00    +0.209 C 
ATOM      4  C   UNL     1      37.080 -23.118 -14.585  0.00  0.00    +0.171 C 
ATOM      5  C   UNL     1      36.099 -24.286 -14.580  0.00  0.00    +0.176 C 
ENDROOT
BRANCH   3   7
ATOM      6  O   UNL     1      32.394 -20.715 -20.672  0.00  0.00    -0.221 OA
ATOM      7  N   UNL     1      34.944 -22.761 -17.542  0.00  0.00    -0.210 NA
ATOM      8  N   UNL     1      32.875 -22.506 -18.377  0.00  0.00    -0.242 NA
ATOM      9  N   UNL     1      36.093 -21.259 -19.076  0.00  0.00    -0.259 NA
ATOM     10  N   UNL     1      34.659 -20.215 -20.706  0.00  0.00    -0.183 NA
ATOM     11  C   UNL     1      35.027 -21.892 -18.576  0.00  0.00    +0.173 C 
ATOM     12  C   UNL     1      33.614 -23.108 -17.460  0.00  0.00    +0.205 C 
ATOM     13  C   UNL     1      33.764 -21.741 -19.078  0.00  0.00    +0.167 C 
ATOM     14  C   UNL     1      33.517 -20.862 -20.208  0.00  0.00    +0.168 C 
ATOM     15  C   UNL     1      35.821 -20.431 -20.149  0.00  0.00    +0.211 C 
ATOM     16  H   UNL     1      36.999 -21.372 -18.709  0.00  0.00    +0.127 HD
ENDBRANCH   3   7
BRANCH   2  17
ATOM     17  O   UNL     1      37.466 -21.342 -16.220  0.00  0.00    -0.378 OA
ATOM     18  H   UNL     1      37.186 -20.425 -16.073  0.00  0.00    +0.211 HD
ENDBRANCH   2  17
BRANCH   4  19
ATOM     19  O   UNL     1      38.362 -23.595 -14.992  0.00  0.00    -0.379 OA
ATOM     20  H   UNL     1      38.839 -23.938 -14.221  0.00  0.00    +0.211 HD
ENDBRANCH   4  19
BRANCH   5  21
ATOM     21  C   UNL     1      34.938 -24.083 -13.615  0.00  0.00    +0.186 C 
BRANCH  21  22
ATOM     22  O   UNL     1      35.435 -23.489 -12.429  0.00  0.00    -0.271 OA
BRANCH  22  23
ATOM     23  P   UNL     1      36.234 -24.421 -11.374  0.00  0.00    +0.473 P 
ATOM     24  O   UNL     1      36.560 -25.801 -11.866  0.00  0.00    -0.227 OA
BRANCH  23  25
ATOM     25  O   UNL     1      35.319 -24.363 -10.041  0.00  0.00    -0.303 OA
ATOM     26  H   UNL     1      34.395 -24.209 -10.289  0.00  0.00    +0.222 HD
ENDBRANCH  23  25
BRANCH  23  27
ATOM     27  O   UNL     1      37.514 -23.513 -10.986  0.00  0.00    -0.303 OA
ATOM     28  H   UNL     1      37.831 -23.046 -11.774  0.00  0.00    +0.222 HD
ENDBRANCH  23  27
ENDBRANCH  22  23
ENDBRANCH  21  22
ENDBRANCH   5  21
TORSDOF 8
ENDMDL
MODEL 7
REMARK VINA RESULT:      -9.3      1.696      2.113
REMARK  Name = 8582
REMARK  8 active torsions:
REMARK  status: ('A' for Active; 'I' for Inactive)
REMARK    1  A    between atoms: C_2  and  O_17
REMARK    2  A    between atoms: C_3  and  N_7
REMARK    3  A    between atoms: C_4  and  O_19
REMARK    4  A    between atoms: C_5  and  C_21
REMARK    5  A    between atoms: C_21  and  O_22
REMARK    6  A    between atoms: O_22  and  P_23
REMARK    7  A    between atoms: P_23  and  O_25
REMARK    8  A    between atoms: P_23  and  O_27
REMARK                            x       y       z     vdW  Elec       q    Type
REMARK                         _______ _______ _______ _____ _____    ______ ____
ROOT
ATOM      1  O   UNL     1      36.940 -22.976 -13.220  0.00  0.00    -0.336 OA
ATOM      2  C   UNL     1      35.941 -24.917 -14.137  0.00  0.00    +0.183 C 
ATOM      3  C   UNL     1      35.926 -23.397 -14.152  0.00  0.00    +0.209 C 
ATOM      4  C   UNL     1      36.282 -25.202 -12.687  0.00  0.00    +0.171 C 
ATOM      5  C   UNL     1      37.279 -24.092 -12.365  0.00  0.00    +0.176 C 
ENDROOT
BRANCH   3   7
ATOM      6  O   UNL     1      36.032 -21.362 -19.750  0.00  0.00    -0.221 OA
ATOM      7  N   UNL     1      36.191 -22.812 -15.465  0.00  0.00    -0.210 NA
ATOM      8  N   UNL     1      37.288 -21.742 -17.107  0.00  0.00    -0.242 NA
ATOM      9  N   UNL     1      34.147 -23.280 -16.701  0.00  0.00    -0.259 NA
ATOM     10  N   UNL     1      34.150 -22.473 -18.971  0.00  0.00    -0.183 NA
ATOM     11  C   UNL     1      35.380 -22.788 -16.548  0.00  0.00    +0.173 C 
ATOM     12  C   UNL     1      37.342 -22.162 -15.854  0.00  0.00    +0.205 C 
ATOM     13  C   UNL     1      36.054 -22.136 -17.543  0.00  0.00    +0.167 C 
ATOM     14  C   UNL     1      35.444 -21.944 -18.848  0.00  0.00    +0.168 C 
ATOM     15  C   UNL     1      33.598 -23.079 -17.954  0.00  0.00    +0.211 C 
ATOM     16  H   UNL     1      33.667 -23.748 -15.980  0.00  0.00    +0.127 HD
ENDBRANCH   3   7
BRANCH   2  17
ATOM     17  O   UNL     1      34.698 -25.461 -14.530  0.00  0.00    -0.378 OA
ATOM     18  H   UNL     1      34.812 -26.395 -14.763  0.00  0.00    +0.211 HD
ENDBRANCH   2  17
BRANCH   4  19
ATOM     19  O   UNL     1      35.118 -25.022 -11.882  0.00  0.00    -0.379 OA
ATOM     20  H   UNL     1      34.421 -25.627 -12.180  0.00  0.00    +0.211 HD
ENDBRANCH   4  19
BRANCH   5  21
ATOM     21  C   UNL     1      38.722 -24.491 -12.646  0.00  0.00    +0.186 C 
BRANCH  21  22
ATOM     22  O   UNL     1      38.883 -24.652 -14.043  0.00  0.00    -0.271 OA
BRANCH  22  23
ATOM     23  P   UNL     1      39.752 -25.908 -14.580  0.00  0.00    +0.473 P 
ATOM     24  O   UNL     1      40.894 -26.314 -13.696  0.00  0.00    -0.227 OA
BRANCH  23  25
ATOM     25  O   UNL     1      40.163 -25.475 -16.084  0.00  0.00    -0.303 OA
ATOM     26  H   UNL     1      39.472 -24.906 -16.457  0.00  0.00    +0.222 HD
ENDBRANCH  23  25
BRANCH  23  27
ATOM     27  O   UNL     1      38.631 -27.049 -14.816  0.00  0.00    -0.303 OA
ATOM     28  H   UNL     1      38.808 -27.804 -14.234  0.00  0.00    +0.222 HD
ENDBRANCH  23  27
ENDBRANCH  22  23
ENDBRANCH  21  22
ENDBRANCH   5  21
TORSDOF 8
ENDMDL
MODEL 8
REMARK VINA RESULT:      -9.2      3.283      5.563
REMARK  Name = 8582
REMARK  8 active torsions:
REMARK  status: ('A' for Active; 'I' for Inactive)
REMARK    1  A    between atoms: C_2  and  O_17
REMARK    2  A    between atoms: C_3  and  N_7
REMARK    3  A    between atoms: C_4  and  O_19
REMARK    4  A    between atoms: C_5  and  C_21
REMARK    5  A    between atoms: C_21  and  O_22
REMARK    6  A    between atoms: O_22  and  P_23
REMARK    7  A    between atoms: P_23  and  O_25
REMARK    8  A    between atoms: P_23  and  O_27
REMARK                            x       y       z     vdW  Elec       q    Type
REMARK                         _______ _______ _______ _____ _____    ______ ____
ROOT
ATOM      1  O   UNL     1      35.168 -24.519 -15.763  0.00  0.00    -0.336 OA
ATOM      2  C   UNL     1      36.180 -22.406 -15.416  0.00  0.00    +0.183 C 
ATOM      3  C   UNL     1      35.728 -23.399 -16.476  0.00  0.00    +0.209 C 
ATOM      4  C   UNL     1      36.632 -23.335 -14.305  0.00  0.00    +0.171 C 
ATOM      5  C   UNL     1      35.604 -24.460 -14.386  0.00  0.00    +0.176 C 
ENDROOT
BRANCH   3   7
ATOM      6  O   UNL     1      32.523 -20.722 -20.724  0.00  0.00    -0.221 OA
ATOM      7  N   UNL     1      34.738 -22.864 -17.408  0.00  0.00    -0.210 NA
ATOM      8  N   UNL     1      32.743 -22.487 -18.369  0.00  0.00    -0.242 NA
ATOM      9  N   UNL     1      36.076 -21.482 -18.901  0.00  0.00    -0.259 NA
ATOM     10  N   UNL     1      34.815 -20.381 -20.633  0.00  0.00    -0.183 NA
ATOM     11  C   UNL     1      34.941 -22.028 -18.453  0.00  0.00    +0.173 C 
ATOM     12  C   UNL     1      33.384 -23.115 -17.398  0.00  0.00    +0.205 C 
ATOM     13  C   UNL     1      33.723 -21.802 -19.031  0.00  0.00    +0.167 C 
ATOM     14  C   UNL     1      33.604 -20.935 -20.192  0.00  0.00    +0.168 C 
ATOM     15  C   UNL     1      35.925 -20.664 -20.005  0.00  0.00    +0.211 C 
ATOM     16  H   UNL     1      36.949 -21.649 -18.479  0.00  0.00    +0.127 HD
ENDBRANCH   3   7
BRANCH   2  17
ATOM     17  O   UNL     1      37.213 -21.565 -15.888  0.00  0.00    -0.378 OA
ATOM     18  H   UNL     1      37.427 -21.799 -16.804  0.00  0.00    +0.211 HD
ENDBRANCH   2  17
BRANCH   4  19
ATOM     19  O   UNL     1      37.919 -23.864 -14.622  0.00  0.00    -0.379 OA
ATOM     20  H   UNL     1      37.931 -24.816 -14.443  0.00  0.00    +0.211 HD
ENDBRANCH   4  19
BRANCH   5  21
ATOM     21  C   UNL     1      34.386 -24.214 -13.506  0.00  0.00    +0.186 C 
BRANCH  21  22
ATOM     22  O   UNL     1      33.223 -24.568 -14.234  0.00  0.00    -0.271 OA
BRANCH  22  23
ATOM     23  P   UNL     1      31.813 -23.892 -13.814  0.00  0.00    +0.473 P 
ATOM     24  O   UNL     1      31.021 -23.319 -14.952  0.00  0.00    -0.227 OA
BRANCH  23  25
ATOM     25  O   UNL     1      32.224 -22.836 -12.659  0.00  0.00    -0.303 OA
ATOM     26  H   UNL     1      31.952 -23.181 -11.794  0.00  0.00    +0.222 HD
ENDBRANCH  23  25
BRANCH  23  27
ATOM     27  O   UNL     1      31.076 -25.073 -12.993  0.00  0.00    -0.303 OA
ATOM     28  H   UNL     1      31.549 -25.235 -12.162  0.00  0.00    +0.222 HD
ENDBRANCH  23  27
ENDBRANCH  22  23
ENDBRANCH  21  22
ENDBRANCH   5  21
TORSDOF 8
ENDMDL
MODEL 9
REMARK VINA RESULT:      -9.2      4.772      7.537
REMARK  Name = 8582
REMARK  8 active torsions:
REMARK  status: ('A' for Active; 'I' for Inactive)
REMARK    1  A    between atoms: C_2  and  O_17
REMARK    2  A    between atoms: C_3  and  N_7
REMARK    3  A    between atoms: C_4  and  O_19
REMARK    4  A    between atoms: C_5  and  C_21
REMARK    5  A    between atoms: C_21  and  O_22
REMARK    6  A    between atoms: O_22  and  P_23
REMARK    7  A    between atoms: P_23  and  O_25
REMARK    8  A    between atoms: P_23  and  O_27
REMARK                            x       y       z     vdW  Elec       q    Type
REMARK                         _______ _______ _______ _____ _____    ______ ____
ROOT
ATOM      1  O   UNL     1      31.557 -24.029 -15.982  0.00  0.00    -0.336 OA
ATOM      2  C   UNL     1      32.424 -23.276 -13.911  0.00  0.00    +0.183 C 
ATOM      3  C   UNL     1      32.749 -24.058 -15.174  0.00  0.00    +0.209 C 
ATOM      4  C   UNL     1      30.959 -23.615 -13.715  0.00  0.00    +0.171 C 
ATOM      5  C   UNL     1      30.439 -23.646 -15.149  0.00  0.00    +0.176 C 
ENDROOT
BRANCH   3   7
ATOM      6  O   UNL     1      36.595 -21.605 -19.005  0.00  0.00    -0.221 OA
ATOM      7  N   UNL     1      33.873 -23.518 -15.936  0.00  0.00    -0.210 NA
ATOM      8  N   UNL     1      35.986 -22.959 -16.455  0.00  0.00    -0.242 NA
ATOM      9  N   UNL     1      32.814 -22.665 -17.955  0.00  0.00    -0.259 NA
ATOM     10  N   UNL     1      34.337 -21.664 -19.530  0.00  0.00    -0.183 NA
ATOM     11  C   UNL     1      33.850 -22.918 -17.149  0.00  0.00    +0.173 C 
ATOM     12  C   UNL     1      35.197 -23.519 -15.554  0.00  0.00    +0.205 C 
ATOM     13  C   UNL     1      35.138 -22.582 -17.458  0.00  0.00    +0.167 C 
ATOM     14  C   UNL     1      35.448 -21.915 -18.711  0.00  0.00    +0.168 C 
ATOM     15  C   UNL     1      33.146 -22.030 -19.137  0.00  0.00    +0.211 C 
ATOM     16  H   UNL     1      31.889 -22.910 -17.725  0.00  0.00    +0.127 HD
ENDBRANCH   3   7
BRANCH   2  17
ATOM     17  O   UNL     1      33.234 -23.673 -12.823  0.00  0.00    -0.378 OA
ATOM     18  H   UNL     1      33.720 -22.905 -12.485  0.00  0.00    +0.211 HD
ENDBRANCH   2  17
BRANCH   4  19
ATOM     19  O   UNL     1      30.844 -24.923 -13.156  0.00  0.00    -0.379 OA
ATOM     20  H   UNL     1      30.498 -24.860 -12.252  0.00  0.00    +0.211 HD
ENDBRANCH   4  19
BRANCH   5  21
ATOM     21  C   UNL     1      29.927 -22.293 -15.624  0.00  0.00    +0.186 C 
BRANCH  21  22
ATOM     22  O   UNL     1      29.323 -22.457 -16.894  0.00  0.00    -0.271 OA
BRANCH  22  23
ATOM     23  P   UNL     1      27.709 -22.563 -16.974  0.00  0.00    +0.473 P 
ATOM     24  O   UNL     1      27.030 -21.410 -17.652  0.00  0.00    -0.227 OA
BRANCH  23  25
ATOM     25  O   UNL     1      27.265 -22.820 -15.439  0.00  0.00    -0.303 OA
ATOM     26  H   UNL     1      27.941 -23.351 -14.991  0.00  0.00    +0.222 HD
ENDBRANCH  23  25
BRANCH  23  27
ATOM     27  O   UNL     1      27.475 -24.002 -17.672  0.00  0.00    -0.303 OA
ATOM     28  H   UNL     1      27.957 -24.684 -17.180  0.00  0.00    +0.222 HD
ENDBRANCH  23  27
ENDBRANCH  22  23
ENDBRANCH  21  22
ENDBRANCH   5  21
TORSDOF 8
ENDMDL
