MODEL 1
REMARK VINA RESULT:      -6.4      0.000      0.000
REMARK  Name = 26533
REMARK  3 active torsions:
REMARK  status: ('A' for Active; 'I' for Inactive)
REMARK    1  A    between atoms: C_2  and  C_9
REMARK    2  A    between atoms: C_2  and  N_13
REMARK    3  A    between atoms: N_13  and  C_16
REMARK                            x       y       z     vdW  Elec       q    Type
REMARK                         _______ _______ _______ _____ _____    ______ ____
ROOT
ATOM      1  O   UNL     1      35.634 -26.129 -15.615  0.00  0.00    -0.298 OA
ATOM      2  C   UNL     1      37.197 -24.425 -14.834  0.00  0.00    +0.033 C 
ATOM      3  C   UNL     1      37.695 -23.299 -15.769  0.00  0.00    -0.008 C 
ATOM      4  C   UNL     1      36.655 -22.198 -16.000  0.00  0.00    -0.001 C 
ATOM      5  C   UNL     1      35.372 -22.779 -16.586  0.00  0.00    +0.008 C 
ATOM      6  C   UNL     1      35.871 -24.934 -15.428  0.00  0.00    +0.137 C 
ATOM      7  C   UNL     1      34.809 -23.887 -15.713  0.00  0.00    +0.063 C 
ENDROOT
BRANCH   2   9
ATOM      8  S   UNL     1      36.039 -25.034 -12.349  0.00  0.00    -0.092 S 
ATOM      9  C   UNL     1      36.994 -24.035 -13.360  0.00  0.00    -0.005 C 
ATOM     10  C   UNL     1      37.490 -22.942 -12.686  0.00  0.00    +0.001 C 
ATOM     11  C   UNL     1      37.081 -22.923 -11.322  0.00  0.00    +0.007 C 
ATOM     12  C   UNL     1      36.287 -24.004 -11.005  0.00  0.00    +0.035 C 
ENDBRANCH   2   9
BRANCH   2  13
ATOM     13  N   UNL     1      38.173 -25.522 -14.920  0.00  0.00    +0.393 N 
ATOM     14  H   UNL     1      37.972 -26.084 -15.746  0.00  0.00    -0.083 HD
ATOM     15  H   UNL     1      38.101 -26.091 -14.077  0.00  0.00    -0.083 HD
BRANCH  13  16
ATOM     16  C   UNL     1      39.529 -25.000 -15.015  0.00  0.00    -0.081 C 
ATOM     17  C   UNL     1      40.514 -25.879 -14.273  0.00  0.00    -0.025 C 
ENDBRANCH  13  16
ENDBRANCH   2  13
TORSDOF 3
ENDMDL
MODEL 2
REMARK VINA RESULT:      -6.3      2.159      4.513
REMARK  Name = 26533
REMARK  3 active torsions:
REMARK  status: ('A' for Active; 'I' for Inactive)
REMARK    1  A    between atoms: C_2  and  C_9
REMARK    2  A    between atoms: C_2  and  N_13
REMARK    3  A    between atoms: N_13  and  C_16
REMARK                            x       y       z     vdW  Elec       q    Type
REMARK                         _______ _______ _______ _____ _____    ______ ____
ROOT
ATOM      1  O   UNL     1      36.153 -26.870 -15.561  0.00  0.00    -0.298 OA
ATOM      2  C   UNL     1      35.999 -24.659 -14.539  0.00  0.00    +0.033 C 
ATOM      3  C   UNL     1      36.373 -24.430 -13.057  0.00  0.00    -0.008 C 
ATOM      4  C   UNL     1      37.884 -24.407 -12.808  0.00  0.00    -0.001 C 
ATOM      5  C   UNL     1      38.529 -25.710 -13.271  0.00  0.00    +0.008 C 
ATOM      6  C   UNL     1      36.722 -25.945 -14.979  0.00  0.00    +0.137 C 
ATOM      7  C   UNL     1      38.219 -26.001 -14.730  0.00  0.00    +0.063 C 
ENDROOT
BRANCH   2   9
ATOM      8  S   UNL     1      35.184 -23.022 -16.670  0.00  0.00    -0.092 S 
ATOM      9  C   UNL     1      36.339 -23.511 -15.505  0.00  0.00    -0.005 C 
ATOM     10  C   UNL     1      37.498 -22.773 -15.584  0.00  0.00    +0.001 C 
ATOM     11  C   UNL     1      37.438 -21.791 -16.614  0.00  0.00    +0.007 C 
ATOM     12  C   UNL     1      36.234 -21.817 -17.284  0.00  0.00    +0.035 C 
ENDBRANCH   2   9
BRANCH   2  13
ATOM     13  N   UNL     1      34.552 -24.925 -14.585  0.00  0.00    +0.393 N 
ATOM     14  H   UNL     1      34.397 -25.931 -14.547  0.00  0.00    -0.083 HD
ATOM     15  H   UNL     1      34.176 -24.538 -15.449  0.00  0.00    -0.083 HD
BRANCH  13  16
ATOM     16  C   UNL     1      33.877 -24.295 -13.459  0.00  0.00    -0.081 C 
ATOM     17  C   UNL     1      32.552 -23.690 -13.877  0.00  0.00    -0.025 C 
ENDBRANCH  13  16
ENDBRANCH   2  13
TORSDOF 3
ENDMDL
MODEL 3
REMARK VINA RESULT:      -6.2      8.842     11.013
REMARK  Name = 26533
REMARK  3 active torsions:
REMARK  status: ('A' for Active; 'I' for Inactive)
REMARK    1  A    between atoms: C_2  and  C_9
REMARK    2  A    between atoms: C_2  and  N_13
REMARK    3  A    between atoms: N_13  and  C_16
REMARK                            x       y       z     vdW  Elec       q    Type
REMARK                         _______ _______ _______ _____ _____    ______ ____
ROOT
ATOM      1  O   UNL     1      37.675 -18.644 -22.298  0.00  0.00    -0.298 OA
ATOM      2  C   UNL     1      35.295 -18.152 -22.518  0.00  0.00    +0.033 C 
ATOM      3  C   UNL     1      34.232 -19.272 -22.453  0.00  0.00    -0.008 C 
ATOM      4  C   UNL     1      33.967 -19.776 -21.031  0.00  0.00    -0.001 C 
ATOM      5  C   UNL     1      35.251 -20.293 -20.392  0.00  0.00    +0.008 C 
ATOM      6  C   UNL     1      36.547 -18.694 -21.805  0.00  0.00    +0.137 C 
ATOM      7  C   UNL     1      36.347 -19.240 -20.403  0.00  0.00    +0.063 C 
ENDROOT
BRANCH   2   9
ATOM      8  S   UNL     1      34.615 -15.458 -22.930  0.00  0.00    -0.092 S 
ATOM      9  C   UNL     1      34.889 -16.801 -21.904  0.00  0.00    -0.005 C 
ATOM     10  C   UNL     1      34.700 -16.485 -20.577  0.00  0.00    +0.001 C 
ATOM     11  C   UNL     1      34.326 -15.122 -20.400  0.00  0.00    +0.007 C 
ATOM     12  C   UNL     1      34.243 -14.448 -21.599  0.00  0.00    +0.035 C 
ENDBRANCH   2   9
BRANCH   2  13
ATOM     13  N   UNL     1      35.638 -17.961 -23.936  0.00  0.00    +0.393 N 
ATOM     14  H   UNL     1      36.538 -18.401 -24.123  0.00  0.00    -0.083 HD
ATOM     15  H   UNL     1      35.683 -16.961 -24.130  0.00  0.00    -0.083 HD
BRANCH  13  16
ATOM     16  C   UNL     1      34.626 -18.558 -24.795  0.00  0.00    -0.081 C 
ATOM     17  C   UNL     1      33.930 -17.512 -25.641  0.00  0.00    -0.025 C 
ENDBRANCH  13  16
ENDBRANCH   2  13
TORSDOF 3
ENDMDL
MODEL 4
REMARK VINA RESULT:      -6.1      8.510     11.007
REMARK  Name = 26533
REMARK  3 active torsions:
REMARK  status: ('A' for Active; 'I' for Inactive)
REMARK    1  A    between atoms: C_2  and  C_9
REMARK    2  A    between atoms: C_2  and  N_13
REMARK    3  A    between atoms: N_13  and  C_16
REMARK                            x       y       z     vdW  Elec       q    Type
REMARK                         _______ _______ _______ _____ _____    ______ ____
ROOT
ATOM      1  O   UNL     1      32.628 -19.376 -20.505  0.00  0.00    -0.298 OA
ATOM      2  C   UNL     1      34.467 -18.102 -21.479  0.00  0.00    +0.033 C 
ATOM      3  C   UNL     1      35.828 -17.975 -20.759  0.00  0.00    -0.008 C 
ATOM      4  C   UNL     1      36.689 -19.238 -20.860  0.00  0.00    -0.001 C 
ATOM      5  C   UNL     1      35.951 -20.443 -20.286  0.00  0.00    +0.008 C 
ATOM      6  C   UNL     1      33.789 -19.364 -20.917  0.00  0.00    +0.137 C 
ATOM      7  C   UNL     1      34.602 -20.646 -20.956  0.00  0.00    +0.063 C 
ENDROOT
BRANCH   2   9
ATOM      8  S   UNL     1      34.610 -16.733 -23.928  0.00  0.00    -0.092 S 
ATOM      9  C   UNL     1      34.521 -18.179 -23.015  0.00  0.00    -0.005 C 
ATOM     10  C   UNL     1      34.508 -19.298 -23.817  0.00  0.00    +0.001 C 
ATOM     11  C   UNL     1      34.572 -18.964 -25.200  0.00  0.00    +0.007 C 
ATOM     12  C   UNL     1      34.631 -17.602 -25.402  0.00  0.00    +0.035 C 
ENDBRANCH   2   9
BRANCH   2  13
ATOM     13  N   UNL     1      33.654 -16.943 -21.076  0.00  0.00    +0.393 N 
ATOM     14  H   UNL     1      32.963 -17.243 -20.390  0.00  0.00    -0.083 HD
ATOM     15  H   UNL     1      33.194 -16.563 -21.903  0.00  0.00    -0.083 HD
BRANCH  13  16
ATOM     16  C   UNL     1      34.490 -15.906 -20.490  0.00  0.00    -0.081 C 
ATOM     17  C   UNL     1      33.999 -14.522 -20.862  0.00  0.00    -0.025 C 
ENDBRANCH  13  16
ENDBRANCH   2  13
TORSDOF 3
ENDMDL
MODEL 5
REMARK VINA RESULT:      -6.0     16.483     18.211
REMARK  Name = 26533
REMARK  3 active torsions:
REMARK  status: ('A' for Active; 'I' for Inactive)
REMARK    1  A    between atoms: C_2  and  C_9
REMARK    2  A    between atoms: C_2  and  N_13
REMARK    3  A    between atoms: N_13  and  C_16
REMARK                            x       y       z     vdW  Elec       q    Type
REMARK                         _______ _______ _______ _____ _____    ______ ____
ROOT
ATOM      1  O   UNL     1      30.907  -8.086 -24.411  0.00  0.00    -0.298 OA
ATOM      2  C   UNL     1      32.488  -8.577 -22.618  0.00  0.00    +0.033 C 
ATOM      3  C   UNL     1      33.522  -7.529 -22.146  0.00  0.00    -0.008 C 
ATOM      4  C   UNL     1      32.914  -6.430 -21.269  0.00  0.00    -0.001 C 
ATOM      5  C   UNL     1      31.795  -5.704 -22.009  0.00  0.00    +0.008 C 
ATOM      6  C   UNL     1      31.350  -7.795 -23.298  0.00  0.00    +0.137 C 
ATOM      7  C   UNL     1      30.726  -6.668 -22.495  0.00  0.00    +0.063 C 
ENDROOT
BRANCH   2   9
ATOM      8  S   UNL     1      31.084 -10.924 -21.977  0.00  0.00    -0.092 S 
ATOM      9  C   UNL     1      31.911  -9.495 -21.526  0.00  0.00    -0.005 C 
ATOM     10  C   UNL     1      31.960  -9.334 -20.159  0.00  0.00    +0.001 C 
ATOM     11  C   UNL     1      31.309 -10.399 -19.473  0.00  0.00    +0.007 C 
ATOM     12  C   UNL     1      30.788 -11.333 -20.342  0.00  0.00    +0.035 C 
ENDBRANCH   2   9
BRANCH   2  13
ATOM     13  N   UNL     1      33.143  -9.397 -23.649  0.00  0.00    +0.393 N 
ATOM     14  H   UNL     1      32.591  -9.360 -24.505  0.00  0.00    -0.083 HD
ATOM     15  H   UNL     1      33.211 -10.357 -23.311  0.00  0.00    -0.083 HD
BRANCH  13  16
ATOM     16  C   UNL     1      34.485  -8.904 -23.924  0.00  0.00    -0.081 C 
ATOM     17  C   UNL     1      35.237  -9.834 -24.854  0.00  0.00    -0.025 C 
ENDBRANCH  13  16
ENDBRANCH   2  13
TORSDOF 3
ENDMDL
MODEL 6
REMARK VINA RESULT:      -5.9     16.254     18.275
REMARK  Name = 26533
REMARK  3 active torsions:
REMARK  status: ('A' for Active; 'I' for Inactive)
REMARK    1  A    between atoms: C_2  and  C_9
REMARK    2  A    between atoms: C_2  and  N_13
REMARK    3  A    between atoms: N_13  and  C_16
REMARK                            x       y       z     vdW  Elec       q    Type
REMARK                         _______ _______ _______ _____ _____    ______ ____
ROOT
ATOM      1  O   UNL     1      33.320  -7.794 -20.621  0.00  0.00    -0.298 OA
ATOM      2  C   UNL     1      32.437  -9.209 -22.403  0.00  0.00    +0.033 C 
ATOM      3  C   UNL     1      30.989  -9.046 -22.917  0.00  0.00    -0.008 C 
ATOM      4  C   UNL     1      30.802  -7.830 -23.830  0.00  0.00    -0.001 C 
ATOM      5  C   UNL     1      31.205  -6.547 -23.111  0.00  0.00    +0.008 C 
ATOM      6  C   UNL     1      32.822  -7.871 -21.746  0.00  0.00    +0.137 C 
ATOM      7  C   UNL     1      32.629  -6.622 -22.585  0.00  0.00    +0.063 C 
ENDROOT
BRANCH   2   9
ATOM      8  S   UNL     1      33.445 -11.153 -24.162  0.00  0.00    -0.092 S 
ATOM      9  C   UNL     1      33.489  -9.593 -23.459  0.00  0.00    -0.005 C 
ATOM     10  C   UNL     1      34.523  -8.831 -23.955  0.00  0.00    +0.001 C 
ATOM     11  C   UNL     1      35.289  -9.536 -24.926  0.00  0.00    +0.007 C 
ATOM     12  C   UNL     1      34.812 -10.812 -25.135  0.00  0.00    +0.035 C 
ENDBRANCH   2   9
BRANCH   2  13
ATOM     13  N   UNL     1      32.409 -10.232 -21.346  0.00  0.00    +0.393 N 
ATOM     14  H   UNL     1      32.949  -9.902 -20.547  0.00  0.00    -0.083 HD
ATOM     15  H   UNL     1      32.810 -11.094 -21.715  0.00  0.00    -0.083 HD
BRANCH  13  16
ATOM     16  C   UNL     1      31.043 -10.498 -20.922  0.00  0.00    -0.081 C 
ATOM     17  C   UNL     1      30.945 -10.624 -19.416  0.00  0.00    -0.025 C 
ENDBRANCH  13  16
ENDBRANCH   2  13
TORSDOF 3
ENDMDL
MODEL 7
REMARK VINA RESULT:      -5.8      1.876      3.401
REMARK  Name = 26533
REMARK  3 active torsions:
REMARK  status: ('A' for Active; 'I' for Inactive)
REMARK    1  A    between atoms: C_2  and  C_9
REMARK    2  A    between atoms: C_2  and  N_13
REMARK    3  A    between atoms: N_13  and  C_16
REMARK                            x       y       z     vdW  Elec       q    Type
REMARK                         _______ _______ _______ _____ _____    ______ ____
ROOT
ATOM      1  O   UNL     1      39.368 -24.249 -14.918  0.00  0.00    -0.298 OA
ATOM      2  C   UNL     1      36.973 -24.046 -14.494  0.00  0.00    +0.033 C 
ATOM      3  C   UNL     1      35.933 -24.741 -15.401  0.00  0.00    -0.008 C 
ATOM      4  C   UNL     1      35.820 -26.248 -15.150  0.00  0.00    -0.001 C 
ATOM      5  C   UNL     1      37.168 -26.933 -15.351  0.00  0.00    +0.008 C 
ATOM      6  C   UNL     1      38.297 -24.809 -14.679  0.00  0.00    +0.137 C 
ATOM      7  C   UNL     1      38.247 -26.313 -14.478  0.00  0.00    +0.063 C 
ENDROOT
BRANCH   2   9
ATOM      8  S   UNL     1      37.566 -22.993 -11.958  0.00  0.00    -0.092 S 
ATOM      9  C   UNL     1      36.620 -23.969 -12.998  0.00  0.00    -0.005 C 
ATOM     10  C   UNL     1      35.599 -24.603 -12.326  0.00  0.00    +0.001 C 
ATOM     11  C   UNL     1      35.593 -24.283 -10.938  0.00  0.00    +0.007 C 
ATOM     12  C   UNL     1      36.610 -23.417 -10.603  0.00  0.00    +0.035 C 
ENDBRANCH   2   9
BRANCH   2  13
ATOM     13  N   UNL     1      37.167 -22.685 -15.020  0.00  0.00    +0.393 N 
ATOM     14  H   UNL     1      38.135 -22.579 -15.321  0.00  0.00    -0.083 HD
ATOM     15  H   UNL     1      36.947 -22.015 -14.284  0.00  0.00    -0.083 HD
BRANCH  13  16
ATOM     16  C   UNL     1      36.285 -22.441 -16.152  0.00  0.00    -0.081 C 
ATOM     17  C   UNL     1      37.001 -21.696 -17.261  0.00  0.00    -0.025 C 
ENDBRANCH  13  16
ENDBRANCH   2  13
TORSDOF 3
ENDMDL
MODEL 8
REMARK VINA RESULT:      -5.7      2.219      4.104
REMARK  Name = 26533
REMARK  3 active torsions:
REMARK  status: ('A' for Active; 'I' for Inactive)
REMARK    1  A    between atoms: C_2  and  C_9
REMARK    2  A    between atoms: C_2  and  N_13
REMARK    3  A    between atoms: N_13  and  C_16
REMARK                            x       y       z     vdW  Elec       q    Type
REMARK                         _______ _______ _______ _____ _____    ______ ____
ROOT
ATOM      1  O   UNL     1      37.191 -22.955 -12.216  0.00  0.00    -0.298 OA
ATOM      2  C   UNL     1      36.453 -23.746 -14.404  0.00  0.00    +0.033 C 
ATOM      3  C   UNL     1      37.212 -24.865 -15.153  0.00  0.00    -0.008 C 
ATOM      4  C   UNL     1      36.943 -26.264 -14.590  0.00  0.00    -0.001 C 
ATOM      5  C   UNL     1      37.318 -26.333 -13.113  0.00  0.00    +0.008 C 
ATOM      6  C   UNL     1      36.809 -23.897 -12.914  0.00  0.00    +0.137 C 
ATOM      7  C   UNL     1      36.598 -25.269 -12.301  0.00  0.00    +0.063 C 
ENDROOT
BRANCH   2   9
ATOM      8  S   UNL     1      33.924 -24.123 -13.243  0.00  0.00    -0.092 S 
ATOM      9  C   UNL     1      34.924 -23.736 -14.577  0.00  0.00    -0.005 C 
ATOM     10  C   UNL     1      34.192 -23.447 -15.706  0.00  0.00    +0.001 C 
ATOM     11  C   UNL     1      32.790 -23.544 -15.474  0.00  0.00    +0.007 C 
ATOM     12  C   UNL     1      32.505 -23.904 -14.175  0.00  0.00    +0.035 C 
ENDBRANCH   2   9
BRANCH   2  13
ATOM     13  N   UNL     1      37.006 -22.463 -14.866  0.00  0.00    +0.393 N 
ATOM     14  H   UNL     1      37.698 -22.136 -14.193  0.00  0.00    -0.083 HD
ATOM     15  H   UNL     1      36.245 -21.790 -14.950  0.00  0.00    -0.083 HD
BRANCH  13  16
ATOM     16  C   UNL     1      37.639 -22.614 -16.168  0.00  0.00    -0.081 C 
ATOM     17  C   UNL     1      37.036 -21.673 -17.190  0.00  0.00    -0.025 C 
ENDBRANCH  13  16
ENDBRANCH   2  13
TORSDOF 3
ENDMDL
MODEL 9
REMARK VINA RESULT:      -5.6     16.623     18.669
REMARK  Name = 26533
REMARK  3 active torsions:
REMARK  status: ('A' for Active; 'I' for Inactive)
REMARK    1  A    between atoms: C_2  and  C_9
REMARK    2  A    between atoms: C_2  and  N_13
REMARK    3  A    between atoms: N_13  and  C_16
REMARK                            x       y       z     vdW  Elec       q    Type
REMARK                         _______ _______ _______ _____ _____    ______ ____
ROOT
ATOM      1  O   UNL     1      30.341 -10.525 -22.471  0.00  0.00    -0.298 OA
ATOM      2  C   UNL     1      31.783  -8.556 -22.463  0.00  0.00    +0.033 C 
ATOM      3  C   UNL     1      31.818  -7.589 -21.258  0.00  0.00    -0.008 C 
ATOM      4  C   UNL     1      32.607  -8.135 -20.064  0.00  0.00    -0.001 C 
ATOM      5  C   UNL     1      32.028  -9.466 -19.596  0.00  0.00    +0.008 C 
ATOM      6  C   UNL     1      31.256  -9.901 -21.930  0.00  0.00    +0.137 C 
ATOM      7  C   UNL     1      31.973 -10.482 -20.725  0.00  0.00    +0.063 C 
ENDROOT
BRANCH   2   9
ATOM      8  S   UNL     1      33.444 -10.284 -23.927  0.00  0.00    -0.092 S 
ATOM      9  C   UNL     1      33.120  -8.771 -23.194  0.00  0.00    -0.005 C 
ATOM     10  C   UNL     1      34.158  -7.883 -23.359  0.00  0.00    +0.001 C 
ATOM     11  C   UNL     1      35.235  -8.451 -24.098  0.00  0.00    +0.007 C 
ATOM     12  C   UNL     1      34.978  -9.753 -24.469  0.00  0.00    +0.035 C 
ENDBRANCH   2   9
BRANCH   2  13
ATOM     13  N   UNL     1      30.787  -8.031 -23.410  0.00  0.00    +0.393 N 
ATOM     14  H   UNL     1      29.887  -8.475 -23.229  0.00  0.00    -0.083 HD
ATOM     15  H   UNL     1      31.099  -8.235 -24.359  0.00  0.00    -0.083 HD
BRANCH  13  16
ATOM     16  C   UNL     1      30.646  -6.590 -23.265  0.00  0.00    -0.081 C 
ATOM     17  C   UNL     1      31.163  -5.857 -24.486  0.00  0.00    -0.025 C 
ENDBRANCH  13  16
ENDBRANCH   2  13
TORSDOF 3
ENDMDL
