MODEL 1
REMARK VINA RESULT:      -9.4      0.000      0.000
REMARK  Name = 6635
REMARK  3 active torsions:
REMARK  status: ('A' for Active; 'I' for Inactive)
REMARK    1  A    between atoms: S_1  and  C_5
REMARK    2  A    between atoms: S_1  and  O_11
REMARK    3  A    between atoms: O_11  and  C_13
REMARK                            x       y       z     vdW  Elec       q    Type
REMARK                         _______ _______ _______ _____ _____    ______ ____
ROOT
ATOM      1  S   UNL     1      35.606 -18.132 -21.817  0.00  0.00    +0.051 S 
ATOM      2  O   UNL     1      36.984 -18.366 -22.206  0.00  0.00    -0.057 OA
ATOM      3  O   UNL     1      35.266 -17.468 -20.574  0.00  0.00    -0.057 OA
ENDROOT
BRANCH   1   5
ATOM      4 CL   UNL     1      33.125 -14.688 -26.414  0.00  0.00    -0.082 Cl
ATOM      5  C   UNL     1      34.907 -17.159 -23.116  0.00  0.00    +0.120 C 
ATOM      6  C   UNL     1      34.510 -15.860 -22.849  0.00  0.00    +0.021 C 
ATOM      7  C   UNL     1      34.766 -17.714 -24.377  0.00  0.00    +0.021 C 
ATOM      8  C   UNL     1      33.957 -15.092 -23.874  0.00  0.00    +0.013 C 
ATOM      9  C   UNL     1      34.214 -16.946 -25.402  0.00  0.00    +0.013 C 
ATOM     10  C   UNL     1      33.808 -15.635 -25.150  0.00  0.00    +0.058 C 
ENDBRANCH   1   5
BRANCH   1  11
ATOM     11  O   UNL     1      34.779 -19.547 -21.883  0.00  0.00    -0.357 OA
BRANCH  11  13
ATOM     12 CL   UNL     1      34.100 -23.103 -17.261  0.00  0.00    -0.082 Cl
ATOM     13  C   UNL     1      34.622 -20.371 -20.811  0.00  0.00    +0.172 C 
ATOM     14  C   UNL     1      35.738 -20.936 -20.196  0.00  0.00    +0.041 C 
ATOM     15  C   UNL     1      33.344 -20.650 -20.328  0.00  0.00    +0.041 C 
ATOM     16  C   UNL     1      35.577 -21.782 -19.098  0.00  0.00    +0.015 C 
ATOM     17  C   UNL     1      33.182 -21.496 -19.231  0.00  0.00    +0.015 C 
ATOM     18  C   UNL     1      34.299 -22.061 -18.615  0.00  0.00    +0.058 C 
ENDBRANCH  11  13
ENDBRANCH   1  11
TORSDOF 3
ENDMDL
MODEL 2
REMARK VINA RESULT:      -9.2      1.885      6.878
REMARK  Name = 6635
REMARK  3 active torsions:
REMARK  status: ('A' for Active; 'I' for Inactive)
REMARK    1  A    between atoms: S_1  and  C_5
REMARK    2  A    between atoms: S_1  and  O_11
REMARK    3  A    between atoms: O_11  and  C_13
REMARK                            x       y       z     vdW  Elec       q    Type
REMARK                         _______ _______ _______ _____ _____    ______ ____
ROOT
ATOM      1  S   UNL     1      35.442 -18.424 -21.750  0.00  0.00    +0.051 S 
ATOM      2  O   UNL     1      36.872 -18.603 -21.914  0.00  0.00    -0.057 OA
ATOM      3  O   UNL     1      34.545 -18.365 -22.888  0.00  0.00    -0.057 OA
ENDROOT
BRANCH   1   5
ATOM      4 CL   UNL     1      33.547 -23.232 -18.224  0.00  0.00    -0.082 Cl
ATOM      5  C   UNL     1      34.906 -19.783 -20.755  0.00  0.00    +0.120 C 
ATOM      6  C   UNL     1      33.552 -19.982 -20.556  0.00  0.00    +0.021 C 
ATOM      7  C   UNL     1      35.852 -20.623 -20.192  0.00  0.00    +0.021 C 
ATOM      8  C   UNL     1      33.129 -21.054 -19.770  0.00  0.00    +0.013 C 
ATOM      9  C   UNL     1      35.430 -21.695 -19.407  0.00  0.00    +0.013 C 
ATOM     10  C   UNL     1      34.068 -21.911 -19.194  0.00  0.00    +0.058 C 
ENDBRANCH   1   5
BRANCH   1  11
ATOM     11  O   UNL     1      35.167 -17.106 -20.815  0.00  0.00    -0.357 OA
BRANCH  11  13
ATOM     12 CL   UNL     1      32.016 -12.485 -22.601  0.00  0.00    -0.082 Cl
ATOM     13  C   UNL     1      34.436 -16.035 -21.229  0.00  0.00    +0.172 C 
ATOM     14  C   UNL     1      33.278 -15.672 -20.542  0.00  0.00    +0.041 C 
ATOM     15  C   UNL     1      34.847 -15.298 -22.340  0.00  0.00    +0.041 C 
ATOM     16  C   UNL     1      32.529 -14.575 -20.966  0.00  0.00    +0.015 C 
ATOM     17  C   UNL     1      34.098 -14.200 -22.765  0.00  0.00    +0.015 C 
ATOM     18  C   UNL     1      32.940 -13.838 -22.078  0.00  0.00    +0.058 C 
ENDBRANCH  11  13
ENDBRANCH   1  11
TORSDOF 3
ENDMDL
MODEL 3
REMARK VINA RESULT:      -8.9      4.186      5.746
REMARK  Name = 6635
REMARK  3 active torsions:
REMARK  status: ('A' for Active; 'I' for Inactive)
REMARK    1  A    between atoms: S_1  and  C_5
REMARK    2  A    between atoms: S_1  and  O_11
REMARK    3  A    between atoms: O_11  and  C_13
REMARK                            x       y       z     vdW  Elec       q    Type
REMARK                         _______ _______ _______ _____ _____    ______ ____
ROOT
ATOM      1  S   UNL     1      33.944 -22.716 -18.665  0.00  0.00    +0.051 S 
ATOM      2  O   UNL     1      33.911 -23.851 -19.568  0.00  0.00    -0.057 OA
ATOM      3  O   UNL     1      34.870 -22.654 -17.550  0.00  0.00    -0.057 OA
ENDROOT
BRANCH   1   5
ATOM      4 CL   UNL     1      35.153 -17.741 -22.262  0.00  0.00    -0.082 Cl
ATOM      5  C   UNL     1      34.286 -21.312 -19.682  0.00  0.00    +0.120 C 
ATOM      6  C   UNL     1      35.601 -20.974 -19.950  0.00  0.00    +0.021 C 
ATOM      7  C   UNL     1      33.231 -20.573 -20.192  0.00  0.00    +0.021 C 
ATOM      8  C   UNL     1      35.871 -19.865 -20.752  0.00  0.00    +0.013 C 
ATOM      9  C   UNL     1      33.500 -19.464 -20.994  0.00  0.00    +0.013 C 
ATOM     10  C   UNL     1      34.821 -19.110 -21.274  0.00  0.00    +0.058 C 
ENDBRANCH   1   5
BRANCH   1  11
ATOM     11  O   UNL     1      32.435 -22.440 -18.089  0.00  0.00    -0.357 OA
BRANCH  11  13
ATOM     12 CL   UNL     1      30.537 -24.463 -12.914  0.00  0.00    -0.082 Cl
ATOM     13  C   UNL     1      31.994 -22.909 -16.890  0.00  0.00    +0.172 C 
ATOM     14  C   UNL     1      30.639 -22.846 -16.571  0.00  0.00    +0.041 C 
ATOM     15  C   UNL     1      32.900 -23.453 -15.979  0.00  0.00    +0.041 C 
ATOM     16  C   UNL     1      30.188 -23.326 -15.341  0.00  0.00    +0.015 C 
ATOM     17  C   UNL     1      32.450 -23.934 -14.749  0.00  0.00    +0.015 C 
ATOM     18  C   UNL     1      31.093 -23.871 -14.431  0.00  0.00    +0.058 C 
ENDBRANCH  11  13
ENDBRANCH   1  11
TORSDOF 3
ENDMDL
MODEL 4
REMARK VINA RESULT:      -8.9      1.778      2.264
REMARK  Name = 6635
REMARK  3 active torsions:
REMARK  status: ('A' for Active; 'I' for Inactive)
REMARK    1  A    between atoms: S_1  and  C_5
REMARK    2  A    between atoms: S_1  and  O_11
REMARK    3  A    between atoms: O_11  and  C_13
REMARK                            x       y       z     vdW  Elec       q    Type
REMARK                         _______ _______ _______ _____ _____    ______ ____
ROOT
ATOM      1  S   UNL     1      35.241 -17.558 -21.721  0.00  0.00    +0.051 S 
ATOM      2  O   UNL     1      36.121 -17.618 -22.873  0.00  0.00    -0.057 OA
ATOM      3  O   UNL     1      35.757 -17.541 -20.366  0.00  0.00    -0.057 OA
ENDROOT
BRANCH   1   5
ATOM      4 CL   UNL     1      31.916 -12.305 -22.423  0.00  0.00    -0.082 Cl
ATOM      5  C   UNL     1      34.301 -16.075 -21.920  0.00  0.00    +0.120 C 
ATOM      6  C   UNL     1      34.560 -15.251 -23.001  0.00  0.00    +0.021 C 
ATOM      7  C   UNL     1      33.323 -15.764 -20.990  0.00  0.00    +0.021 C 
ATOM      8  C   UNL     1      33.818 -14.079 -23.158  0.00  0.00    +0.013 C 
ATOM      9  C   UNL     1      32.581 -14.593 -21.147  0.00  0.00    +0.013 C 
ATOM     10  C   UNL     1      32.830 -13.750 -22.231  0.00  0.00    +0.058 C 
ENDBRANCH   1   5
BRANCH   1  11
ATOM     11  O   UNL     1      34.130 -18.759 -21.828  0.00  0.00    -0.357 OA
BRANCH  11  13
ATOM     12 CL   UNL     1      33.729 -23.141 -17.941  0.00  0.00    -0.082 Cl
ATOM     13  C   UNL     1      34.037 -19.774 -20.927  0.00  0.00    +0.172 C 
ATOM     14  C   UNL     1      35.176 -20.494 -20.567  0.00  0.00    +0.041 C 
ATOM     15  C   UNL     1      32.802 -20.095 -20.362  0.00  0.00    +0.041 C 
ATOM     16  C   UNL     1      35.080 -21.536 -19.644  0.00  0.00    +0.015 C 
ATOM     17  C   UNL     1      32.706 -21.136 -19.439  0.00  0.00    +0.015 C 
ATOM     18  C   UNL     1      33.846 -21.856 -19.079  0.00  0.00    +0.058 C 
ENDBRANCH  11  13
ENDBRANCH   1  11
TORSDOF 3
ENDMDL
MODEL 5
REMARK VINA RESULT:      -8.7      4.030      8.616
REMARK  Name = 6635
REMARK  3 active torsions:
REMARK  status: ('A' for Active; 'I' for Inactive)
REMARK    1  A    between atoms: S_1  and  C_5
REMARK    2  A    between atoms: S_1  and  O_11
REMARK    3  A    between atoms: O_11  and  C_13
REMARK                            x       y       z     vdW  Elec       q    Type
REMARK                         _______ _______ _______ _____ _____    ______ ____
ROOT
ATOM      1  S   UNL     1      33.876 -22.981 -18.138  0.00  0.00    +0.051 S 
ATOM      2  O   UNL     1      35.172 -22.524 -17.674  0.00  0.00    -0.057 OA
ATOM      3  O   UNL     1      33.733 -24.173 -18.952  0.00  0.00    -0.057 OA
ENDROOT
BRANCH   1   5
ATOM      4 CL   UNL     1      30.489 -23.943 -12.966  0.00  0.00    -0.082 Cl
ATOM      5  C   UNL     1      32.919 -23.251 -16.677  0.00  0.00    +0.120 C 
ATOM      6  C   UNL     1      33.557 -23.654 -15.516  0.00  0.00    +0.021 C 
ATOM      7  C   UNL     1      31.549 -23.057 -16.720  0.00  0.00    +0.021 C 
ATOM      8  C   UNL     1      32.802 -23.868 -14.363  0.00  0.00    +0.013 C 
ATOM      9  C   UNL     1      30.794 -23.271 -15.567  0.00  0.00    +0.013 C 
ATOM     10  C   UNL     1      31.420 -23.677 -14.388  0.00  0.00    +0.058 C 
ENDBRANCH   1   5
BRANCH   1  11
ATOM     11  O   UNL     1      33.110 -21.749 -18.900  0.00  0.00    -0.357 OA
BRANCH  11  13
ATOM     12 CL   UNL     1      35.737 -18.248 -22.813  0.00  0.00    -0.082 Cl
ATOM     13  C   UNL     1      33.719 -20.937 -19.807  0.00  0.00    +0.172 C 
ATOM     14  C   UNL     1      32.956 -20.084 -20.604  0.00  0.00    +0.041 C 
ATOM     15  C   UNL     1      35.107 -20.957 -19.939  0.00  0.00    +0.041 C 
ATOM     16  C   UNL     1      33.580 -19.253 -21.534  0.00  0.00    +0.015 C 
ATOM     17  C   UNL     1      35.732 -20.126 -20.869  0.00  0.00    +0.015 C 
ATOM     18  C   UNL     1      34.968 -19.273 -21.666  0.00  0.00    +0.058 C 
ENDBRANCH  11  13
ENDBRANCH   1  11
TORSDOF 3
ENDMDL
MODEL 6
REMARK VINA RESULT:      -8.6      1.714      2.163
REMARK  Name = 6635
REMARK  3 active torsions:
REMARK  status: ('A' for Active; 'I' for Inactive)
REMARK    1  A    between atoms: S_1  and  C_5
REMARK    2  A    between atoms: S_1  and  O_11
REMARK    3  A    between atoms: O_11  and  C_13
REMARK                            x       y       z     vdW  Elec       q    Type
REMARK                         _______ _______ _______ _____ _____    ______ ____
ROOT
ATOM      1  S   UNL     1      33.840 -16.222 -21.383  0.00  0.00    +0.051 S 
ATOM      2  O   UNL     1      35.014 -15.782 -20.652  0.00  0.00    -0.057 OA
ATOM      3  O   UNL     1      32.523 -16.237 -20.776  0.00  0.00    -0.057 OA
ENDROOT
BRANCH   1   5
ATOM      4 CL   UNL     1      33.457 -12.458 -26.366  0.00  0.00    -0.082 Cl
ATOM      5  C   UNL     1      33.734 -15.159 -22.790  0.00  0.00    +0.120 C 
ATOM      6  C   UNL     1      33.647 -13.791 -22.600  0.00  0.00    +0.021 C 
ATOM      7  C   UNL     1      33.738 -15.714 -24.059  0.00  0.00    +0.021 C 
ATOM      8  C   UNL     1      33.562 -12.951 -23.711  0.00  0.00    +0.013 C 
ATOM      9  C   UNL     1      33.653 -14.875 -25.170  0.00  0.00    +0.013 C 
ATOM     10  C   UNL     1      33.564 -13.493 -24.996  0.00  0.00    +0.058 C 
ENDBRANCH   1   5
BRANCH   1  11
ATOM     11  O   UNL     1      34.126 -17.706 -22.018  0.00  0.00    -0.357 OA
BRANCH  11  13
ATOM     12 CL   UNL     1      34.300 -22.614 -18.800  0.00  0.00    -0.082 Cl
ATOM     13  C   UNL     1      34.167 -18.844 -21.272  0.00  0.00    +0.172 C 
ATOM     14  C   UNL     1      35.392 -19.434 -20.966  0.00  0.00    +0.041 C 
ATOM     15  C   UNL     1      32.982 -19.419 -20.814  0.00  0.00    +0.041 C 
ATOM     16  C   UNL     1      35.434 -20.600 -20.201  0.00  0.00    +0.015 C 
ATOM     17  C   UNL     1      33.022 -20.585 -20.049  0.00  0.00    +0.015 C 
ATOM     18  C   UNL     1      34.249 -21.176 -19.743  0.00  0.00    +0.058 C 
ENDBRANCH  11  13
ENDBRANCH   1  11
TORSDOF 3
ENDMDL
MODEL 7
REMARK VINA RESULT:      -8.6      4.145      5.658
REMARK  Name = 6635
REMARK  3 active torsions:
REMARK  status: ('A' for Active; 'I' for Inactive)
REMARK    1  A    between atoms: S_1  and  C_5
REMARK    2  A    between atoms: S_1  and  O_11
REMARK    3  A    between atoms: O_11  and  C_13
REMARK                            x       y       z     vdW  Elec       q    Type
REMARK                         _______ _______ _______ _____ _____    ______ ____
ROOT
ATOM      1  S   UNL     1      33.815 -22.704 -18.546  0.00  0.00    +0.051 S 
ATOM      2  O   UNL     1      32.611 -22.413 -17.790  0.00  0.00    -0.057 OA
ATOM      3  O   UNL     1      33.934 -23.898 -19.362  0.00  0.00    -0.057 OA
ENDROOT
BRANCH   1   5
ATOM      4 CL   UNL     1      34.597 -17.835 -22.395  0.00  0.00    -0.082 Cl
ATOM      5  C   UNL     1      34.036 -21.328 -19.632  0.00  0.00    +0.120 C 
ATOM      6  C   UNL     1      32.926 -20.626 -20.068  0.00  0.00    +0.021 C 
ATOM      7  C   UNL     1      35.315 -20.978 -20.029  0.00  0.00    +0.021 C 
ATOM      8  C   UNL     1      33.100 -19.540 -20.926  0.00  0.00    +0.013 C 
ATOM      9  C   UNL     1      35.490 -19.892 -20.886  0.00  0.00    +0.013 C 
ATOM     10  C   UNL     1      34.382 -19.173 -21.336  0.00  0.00    +0.058 C 
ENDBRANCH   1   5
BRANCH   1  11
ATOM     11  O   UNL     1      35.110 -22.641 -17.544  0.00  0.00    -0.357 OA
BRANCH  11  13
ATOM     12 CL   UNL     1      34.999 -24.577 -12.002  0.00  0.00    -0.082 Cl
ATOM     13  C   UNL     1      35.085 -23.089 -16.259  0.00  0.00    +0.172 C 
ATOM     14  C   UNL     1      36.134 -22.786 -15.393  0.00  0.00    +0.041 C 
ATOM     15  C   UNL     1      34.007 -23.852 -15.809  0.00  0.00    +0.041 C 
ATOM     16  C   UNL     1      36.108 -23.246 -14.076  0.00  0.00    +0.015 C 
ATOM     17  C   UNL     1      33.980 -24.313 -14.492  0.00  0.00    +0.015 C 
ATOM     18  C   UNL     1      35.031 -24.009 -13.626  0.00  0.00    +0.058 C 
ENDBRANCH  11  13
ENDBRANCH   1  11
TORSDOF 3
ENDMDL
MODEL 8
REMARK VINA RESULT:      -8.5      4.157      5.791
REMARK  Name = 6635
REMARK  3 active torsions:
REMARK  status: ('A' for Active; 'I' for Inactive)
REMARK    1  A    between atoms: S_1  and  C_5
REMARK    2  A    between atoms: S_1  and  O_11
REMARK    3  A    between atoms: O_11  and  C_13
REMARK                            x       y       z     vdW  Elec       q    Type
REMARK                         _______ _______ _______ _____ _____    ______ ____
ROOT
ATOM      1  S   UNL     1      33.813 -22.727 -18.544  0.00  0.00    +0.051 S 
ATOM      2  O   UNL     1      32.597 -22.444 -17.805  0.00  0.00    -0.057 OA
ATOM      3  O   UNL     1      33.954 -23.922 -19.353  0.00  0.00    -0.057 OA
ENDROOT
BRANCH   1   5
ATOM      4 CL   UNL     1      34.598 -17.858 -22.394  0.00  0.00    -0.082 Cl
ATOM      5  C   UNL     1      34.035 -21.353 -19.633  0.00  0.00    +0.120 C 
ATOM      6  C   UNL     1      35.314 -21.007 -20.034  0.00  0.00    +0.021 C 
ATOM      7  C   UNL     1      32.926 -20.646 -20.064  0.00  0.00    +0.021 C 
ATOM      8  C   UNL     1      35.489 -19.921 -20.892  0.00  0.00    +0.013 C 
ATOM      9  C   UNL     1      33.100 -19.560 -20.923  0.00  0.00    +0.013 C 
ATOM     10  C   UNL     1      34.382 -19.198 -21.337  0.00  0.00    +0.058 C 
ENDBRANCH   1   5
BRANCH   1  11
ATOM     11  O   UNL     1      35.095 -22.647 -17.526  0.00  0.00    -0.357 OA
BRANCH  11  13
ATOM     12 CL   UNL     1      34.951 -24.614 -11.996  0.00  0.00    -0.082 Cl
ATOM     13  C   UNL     1      35.062 -23.103 -16.244  0.00  0.00    +0.172 C 
ATOM     14  C   UNL     1      33.999 -23.895 -15.813  0.00  0.00    +0.041 C 
ATOM     15  C   UNL     1      36.092 -22.778 -15.361  0.00  0.00    +0.041 C 
ATOM     16  C   UNL     1      33.964 -24.363 -14.499  0.00  0.00    +0.015 C 
ATOM     17  C   UNL     1      36.058 -23.245 -14.047  0.00  0.00    +0.015 C 
ATOM     18  C   UNL     1      34.994 -24.038 -13.616  0.00  0.00    +0.058 C 
ENDBRANCH  11  13
ENDBRANCH   1  11
TORSDOF 3
ENDMDL
MODEL 9
REMARK VINA RESULT:      -8.5      4.644      6.232
REMARK  Name = 6635
REMARK  3 active torsions:
REMARK  status: ('A' for Active; 'I' for Inactive)
REMARK    1  A    between atoms: S_1  and  C_5
REMARK    2  A    between atoms: S_1  and  O_11
REMARK    3  A    between atoms: O_11  and  C_13
REMARK                            x       y       z     vdW  Elec       q    Type
REMARK                         _______ _______ _______ _____ _____    ______ ____
ROOT
ATOM      1  S   UNL     1      33.215 -13.272 -23.909  0.00  0.00    +0.051 S 
ATOM      2  O   UNL     1      32.140 -13.411 -22.945  0.00  0.00    -0.057 OA
ATOM      3  O   UNL     1      33.057 -13.675 -25.293  0.00  0.00    -0.057 OA
ENDROOT
BRANCH   1   5
ATOM      4 CL   UNL     1      34.623  -7.176 -23.973  0.00  0.00    -0.082 Cl
ATOM      5  C   UNL     1      33.612 -11.550 -23.929  0.00  0.00    +0.120 C 
ATOM      6  C   UNL     1      34.662 -11.106 -24.714  0.00  0.00    +0.021 C 
ATOM      7  C   UNL     1      32.867 -10.675 -23.156  0.00  0.00    +0.021 C 
ATOM      8  C   UNL     1      34.976  -9.747 -24.729  0.00  0.00    +0.013 C 
ATOM      9  C   UNL     1      33.180  -9.316 -23.170  0.00  0.00    +0.013 C 
ATOM     10  C   UNL     1      34.235  -8.852 -23.956  0.00  0.00    +0.058 C 
ENDBRANCH   1   5
BRANCH   1  11
ATOM     11  O   UNL     1      34.565 -13.991 -23.320  0.00  0.00    -0.357 OA
BRANCH  11  13
ATOM     12 CL   UNL     1      34.791 -19.650 -21.772  0.00  0.00    -0.082 Cl
ATOM     13  C   UNL     1      34.618 -15.303 -22.961  0.00  0.00    +0.172 C 
ATOM     14  C   UNL     1      34.807 -16.285 -23.933  0.00  0.00    +0.041 C 
ATOM     15  C   UNL     1      34.482 -15.665 -21.621  0.00  0.00    +0.041 C 
ATOM     16  C   UNL     1      34.861 -17.630 -23.565  0.00  0.00    +0.015 C 
ATOM     17  C   UNL     1      34.536 -17.010 -21.253  0.00  0.00    +0.015 C 
ATOM     18  C   UNL     1      34.725 -17.992 -22.225  0.00  0.00    +0.058 C 
ENDBRANCH  11  13
ENDBRANCH   1  11
TORSDOF 3
ENDMDL
