MODEL 1
REMARK VINA RESULT:     -10.9      0.000      0.000
REMARK  Name = 12148754
REMARK  5 active torsions:
REMARK  status: ('A' for Active; 'I' for Inactive)
REMARK    1  A    between atoms: N_3  and  C_20
REMARK    2  A    between atoms: C_6  and  C_12
REMARK    3  A    between atoms: C_19  and  N_25
REMARK    4  A    between atoms: C_26  and  C_32
REMARK    5  A    between atoms: C_32  and  O_33
REMARK                            x       y       z     vdW  Elec       q    Type
REMARK                         _______ _______ _______ _____ _____    ______ ____
ROOT
ATOM      1  O   UNL     1      33.643 -24.285 -18.174  0.00  0.00    -0.252 OA
ATOM      2  O   UNL     1      34.995 -23.098 -20.295  0.00  0.00    -0.270 OA
ATOM      3  N   UNL     1      32.724 -22.711 -16.685  0.00  0.00    -0.267 N 
ATOM      4  N   UNL     1      33.906 -22.006 -18.550  0.00  0.00    -0.236 N 
ATOM      5  C   UNL     1      33.438 -23.124 -17.828  0.00  0.00    +0.310 C 
ATOM      6  C   UNL     1      34.649 -22.065 -19.728  0.00  0.00    +0.254 C 
ATOM      7  H   UNL     1      32.653 -21.738 -16.553  0.00  0.00    +0.156 HD
ATOM      8  H   UNL     1      33.691 -21.114 -18.194  0.00  0.00    +0.159 HD
ENDROOT
BRANCH   6  12
ATOM      9 CL   UNL     1      32.336 -20.222 -20.581  0.00  0.00    -0.082 Cl
ATOM     10  F   UNL     1      38.021 -18.948 -21.169  0.00  0.00    -0.202 F 
ATOM     11  F   UNL     1      36.112 -17.171 -21.991  0.00  0.00    -0.202 F 
ATOM     12  C   UNL     1      35.002 -20.755 -20.332  0.00  0.00    +0.067 C 
ATOM     13  C   UNL     1      34.020 -19.873 -20.740  0.00  0.00    +0.064 C 
ATOM     14  C   UNL     1      36.347 -20.466 -20.466  0.00  0.00    +0.037 C 
ATOM     15  C   UNL     1      34.398 -18.654 -21.304  0.00  0.00    +0.043 C 
ATOM     16  C   UNL     1      36.724 -19.248 -21.029  0.00  0.00    +0.168 C 
ATOM     17  C   UNL     1      35.750 -18.341 -21.448  0.00  0.00    +0.168 C 
ENDBRANCH   6  12
BRANCH   3  20
ATOM     18  F   UNL     1      28.735 -24.453 -14.726  0.00  0.00    -0.204 F 
ATOM     19  C   UNL     1      32.885 -24.210 -14.777  0.00  0.00    +0.062 C 
ATOM     20  C   UNL     1      32.105 -23.506 -15.717  0.00  0.00    +0.067 C 
ATOM     21  C   UNL     1      32.216 -24.997 -13.819  0.00  0.00    +0.018 C 
ATOM     22  C   UNL     1      30.712 -23.588 -15.700  0.00  0.00    +0.046 C 
ATOM     23  C   UNL     1      30.823 -25.080 -13.802  0.00  0.00    +0.031 C 
ATOM     24  C   UNL     1      30.072 -24.374 -14.743  0.00  0.00    +0.141 C 
BRANCH  19  25
ATOM     25  N   UNL     1      34.284 -24.140 -14.774  0.00  0.00    -0.307 N 
ATOM     26  C   UNL     1      37.185 -24.060 -14.758  0.00  0.00    +0.102 C 
ATOM     27  C   UNL     1      36.345 -22.801 -14.951  0.00  0.00    +0.033 C 
ATOM     28  C   UNL     1      36.412 -25.311 -15.170  0.00  0.00    +0.033 C 
ATOM     29  C   UNL     1      34.943 -22.903 -14.345  0.00  0.00    +0.091 C 
ATOM     30  C   UNL     1      35.022 -25.386 -14.538  0.00  0.00    +0.091 C 
BRANCH  26  32
ATOM     31  O   UNL     1      37.831 -25.238 -12.746  0.00  0.00    -0.250 OA
ATOM     32  C   UNL     1      37.673 -24.184 -13.345  0.00  0.00    +0.313 C 
BRANCH  32  33
ATOM     33  O   UNL     1      37.918 -22.961 -12.814  0.00  0.00    -0.480 OA
ATOM     34  H   UNL     1      37.338 -22.248 -12.993  0.00  0.00    +0.295 HD
ENDBRANCH  32  33
ENDBRANCH  26  32
ENDBRANCH  19  25
ENDBRANCH   3  20
TORSDOF 5
ENDMDL
MODEL 2
REMARK VINA RESULT:     -10.5      2.790      4.856
REMARK  Name = 12148754
REMARK  5 active torsions:
REMARK  status: ('A' for Active; 'I' for Inactive)
REMARK    1  A    between atoms: N_3  and  C_20
REMARK    2  A    between atoms: C_6  and  C_12
REMARK    3  A    between atoms: C_19  and  N_25
REMARK    4  A    between atoms: C_26  and  C_32
REMARK    5  A    between atoms: C_32  and  O_33
REMARK                            x       y       z     vdW  Elec       q    Type
REMARK                         _______ _______ _______ _____ _____    ______ ____
ROOT
ATOM      1  O   UNL     1      34.574 -24.557 -16.519  0.00  0.00    -0.252 OA
ATOM      2  O   UNL     1      33.997 -23.710 -19.105  0.00  0.00    -0.270 OA
ATOM      3  N   UNL     1      35.291 -22.803 -15.125  0.00  0.00    -0.267 N 
ATOM      4  N   UNL     1      34.738 -22.388 -17.337  0.00  0.00    -0.236 N 
ATOM      5  C   UNL     1      34.843 -23.373 -16.333  0.00  0.00    +0.310 C 
ATOM      6  C   UNL     1      34.326 -22.618 -18.648  0.00  0.00    +0.254 C 
ATOM      7  H   UNL     1      35.463 -21.834 -15.146  0.00  0.00    +0.156 HD
ATOM      8  H   UNL     1      34.976 -21.465 -17.092  0.00  0.00    +0.159 HD
ENDROOT
BRANCH   6  12
ATOM      9 CL   UNL     1      36.966 -21.577 -19.838  0.00  0.00    -0.082 Cl
ATOM     10  F   UNL     1      31.705 -19.177 -20.760  0.00  0.00    -0.202 F 
ATOM     11  F   UNL     1      33.939 -18.100 -21.911  0.00  0.00    -0.202 F 
ATOM     12  C   UNL     1      34.259 -21.419 -19.522  0.00  0.00    +0.067 C 
ATOM     13  C   UNL     1      35.401 -20.892 -20.092  0.00  0.00    +0.064 C 
ATOM     14  C   UNL     1      33.012 -20.862 -19.732  0.00  0.00    +0.037 C 
ATOM     15  C   UNL     1      35.292 -19.764 -20.906  0.00  0.00    +0.043 C 
ATOM     16  C   UNL     1      32.903 -19.734 -20.544  0.00  0.00    +0.168 C 
ATOM     17  C   UNL     1      34.043 -19.185 -21.132  0.00  0.00    +0.168 C 
ENDBRANCH   6  12
BRANCH   3  20
ATOM     18  F   UNL     1      38.352 -24.335 -11.797  0.00  0.00    -0.204 F 
ATOM     19  C   UNL     1      34.439 -23.923 -13.142  0.00  0.00    +0.062 C 
ATOM     20  C   UNL     1      35.523 -23.436 -13.901  0.00  0.00    +0.067 C 
ATOM     21  C   UNL     1      34.722 -24.555 -11.915  0.00  0.00    +0.018 C 
ATOM     22  C   UNL     1      36.835 -23.574 -13.449  0.00  0.00    +0.046 C 
ATOM     23  C   UNL     1      36.035 -24.692 -11.463  0.00  0.00    +0.031 C 
ATOM     24  C   UNL     1      37.092 -24.202 -12.231  0.00  0.00    +0.141 C 
BRANCH  19  25
ATOM     25  N   UNL     1      33.114 -23.797 -13.577  0.00  0.00    -0.307 N 
ATOM     26  C   UNL     1      30.365 -23.602 -14.489  0.00  0.00    +0.102 C 
ATOM     27  C   UNL     1      31.172 -22.369 -14.091  0.00  0.00    +0.033 C 
ATOM     28  C   UNL     1      30.907 -24.861 -13.815  0.00  0.00    +0.033 C 
ATOM     29  C   UNL     1      32.685 -22.559 -14.232  0.00  0.00    +0.091 C 
ATOM     30  C   UNL     1      32.417 -25.023 -13.985  0.00  0.00    +0.091 C 
BRANCH  26  32
ATOM     31  O   UNL     1      30.782 -22.985 -16.790  0.00  0.00    -0.250 OA
ATOM     32  C   UNL     1      30.327 -23.777 -15.978  0.00  0.00    +0.313 C 
BRANCH  32  33
ATOM     33  O   UNL     1      29.713 -24.939 -16.309  0.00  0.00    -0.480 OA
ATOM     34  H   UNL     1      30.114 -25.524 -16.920  0.00  0.00    +0.295 HD
ENDBRANCH  32  33
ENDBRANCH  26  32
ENDBRANCH  19  25
ENDBRANCH   3  20
TORSDOF 5
ENDMDL
MODEL 3
REMARK VINA RESULT:     -10.4      1.347      1.822
REMARK  Name = 12148754
REMARK  5 active torsions:
REMARK  status: ('A' for Active; 'I' for Inactive)
REMARK    1  A    between atoms: N_3  and  C_20
REMARK    2  A    between atoms: C_6  and  C_12
REMARK    3  A    between atoms: C_19  and  N_25
REMARK    4  A    between atoms: C_26  and  C_32
REMARK    5  A    between atoms: C_32  and  O_33
REMARK                            x       y       z     vdW  Elec       q    Type
REMARK                         _______ _______ _______ _____ _____    ______ ____
ROOT
ATOM      1  O   UNL     1      33.321 -24.378 -18.076  0.00  0.00    -0.252 OA
ATOM      2  O   UNL     1      34.562 -23.167 -20.251  0.00  0.00    -0.270 OA
ATOM      3  N   UNL     1      32.708 -22.838 -16.405  0.00  0.00    -0.267 N 
ATOM      4  N   UNL     1      33.760 -22.110 -18.337  0.00  0.00    -0.236 N 
ATOM      5  C   UNL     1      33.263 -23.230 -17.640  0.00  0.00    +0.310 C 
ATOM      6  C   UNL     1      34.374 -22.151 -19.588  0.00  0.00    +0.254 C 
ATOM      7  H   UNL     1      32.743 -21.875 -16.206  0.00  0.00    +0.156 HD
ATOM      8  H   UNL     1      33.668 -21.230 -17.906  0.00  0.00    +0.159 HD
ENDROOT
BRANCH   6  12
ATOM      9 CL   UNL     1      37.392 -21.586 -19.804  0.00  0.00    -0.082 Cl
ATOM     10  F   UNL     1      33.168 -17.865 -21.418  0.00  0.00    -0.202 F 
ATOM     11  F   UNL     1      35.800 -17.175 -21.690  0.00  0.00    -0.202 F 
ATOM     12  C   UNL     1      34.789 -20.837 -20.144  0.00  0.00    +0.067 C 
ATOM     13  C   UNL     1      36.124 -20.511 -20.272  0.00  0.00    +0.064 C 
ATOM     14  C   UNL     1      33.783 -19.968 -20.521  0.00  0.00    +0.037 C 
ATOM     15  C   UNL     1      36.468 -19.265 -20.799  0.00  0.00    +0.043 C 
ATOM     16  C   UNL     1      34.126 -18.724 -21.047  0.00  0.00    +0.168 C 
ATOM     17  C   UNL     1      35.469 -18.371 -21.187  0.00  0.00    +0.168 C 
ENDBRANCH   6  12
BRANCH   3  20
ATOM     18  F   UNL     1      28.801 -24.865 -14.556  0.00  0.00    -0.204 F 
ATOM     19  C   UNL     1      32.906 -24.219 -14.413  0.00  0.00    +0.062 C 
ATOM     20  C   UNL     1      32.115 -23.641 -15.427  0.00  0.00    +0.067 C 
ATOM     21  C   UNL     1      32.263 -25.020 -13.449  0.00  0.00    +0.018 C 
ATOM     22  C   UNL     1      30.738 -23.859 -15.475  0.00  0.00    +0.046 C 
ATOM     23  C   UNL     1      30.886 -25.238 -13.497  0.00  0.00    +0.031 C 
ATOM     24  C   UNL     1      30.124 -24.657 -14.511  0.00  0.00    +0.141 C 
BRANCH  19  25
ATOM     25  N   UNL     1      34.289 -24.012 -14.344  0.00  0.00    -0.307 N 
ATOM     26  C   UNL     1      37.163 -23.613 -14.262  0.00  0.00    +0.102 C 
ATOM     27  C   UNL     1      36.255 -23.173 -13.117  0.00  0.00    +0.033 C 
ATOM     28  C   UNL     1      36.395 -23.695 -15.579  0.00  0.00    +0.033 C 
ATOM     29  C   UNL     1      34.948 -23.966 -13.036  0.00  0.00    +0.091 C 
ATOM     30  C   UNL     1      35.102 -24.502 -15.464  0.00  0.00    +0.091 C 
BRANCH  26  32
ATOM     31  O   UNL     1      37.955 -25.407 -12.846  0.00  0.00    -0.250 OA
ATOM     32  C   UNL     1      37.834 -24.920 -13.960  0.00  0.00    +0.313 C 
BRANCH  32  33
ATOM     33  O   UNL     1      38.294 -25.496 -15.098  0.00  0.00    -0.480 OA
ATOM     34  H   UNL     1      38.767 -26.303 -15.057  0.00  0.00    +0.295 HD
ENDBRANCH  32  33
ENDBRANCH  26  32
ENDBRANCH  19  25
ENDBRANCH   3  20
TORSDOF 5
ENDMDL
MODEL 4
REMARK VINA RESULT:      -9.7      2.697      4.692
REMARK  Name = 12148754
REMARK  5 active torsions:
REMARK  status: ('A' for Active; 'I' for Inactive)
REMARK    1  A    between atoms: N_3  and  C_20
REMARK    2  A    between atoms: C_6  and  C_12
REMARK    3  A    between atoms: C_19  and  N_25
REMARK    4  A    between atoms: C_26  and  C_32
REMARK    5  A    between atoms: C_32  and  O_33
REMARK                            x       y       z     vdW  Elec       q    Type
REMARK                         _______ _______ _______ _____ _____    ______ ____
ROOT
ATOM      1  O   UNL     1      37.390 -22.931 -16.928  0.00  0.00    -0.252 OA
ATOM      2  O   UNL     1      37.565 -21.728 -19.429  0.00  0.00    -0.270 OA
ATOM      3  N   UNL     1      35.388 -22.410 -15.806  0.00  0.00    -0.267 N 
ATOM      4  N   UNL     1      35.805 -21.547 -17.916  0.00  0.00    -0.236 N 
ATOM      5  C   UNL     1      36.303 -22.360 -16.876  0.00  0.00    +0.310 C 
ATOM      6  C   UNL     1      36.463 -21.286 -19.116  0.00  0.00    +0.254 C 
ATOM      7  H   UNL     1      34.560 -21.892 -15.925  0.00  0.00    +0.156 HD
ATOM      8  H   UNL     1      34.923 -21.132 -17.782  0.00  0.00    +0.159 HD
ENDROOT
BRANCH   6  12
ATOM      9 CL   UNL     1      33.426 -21.712 -19.372  0.00  0.00    -0.082 Cl
ATOM     10  F   UNL     1      36.518 -17.772 -22.406  0.00  0.00    -0.202 F 
ATOM     11  F   UNL     1      33.819 -17.997 -22.777  0.00  0.00    -0.202 F 
ATOM     12  C   UNL     1      35.728 -20.427 -20.079  0.00  0.00    +0.067 C 
ATOM     13  C   UNL     1      34.364 -20.559 -20.251  0.00  0.00    +0.064 C 
ATOM     14  C   UNL     1      36.469 -19.501 -20.789  0.00  0.00    +0.037 C 
ATOM     15  C   UNL     1      33.715 -19.732 -21.167  0.00  0.00    +0.043 C 
ATOM     16  C   UNL     1      35.820 -18.675 -21.705  0.00  0.00    +0.168 C 
ATOM     17  C   UNL     1      34.442 -18.789 -21.895  0.00  0.00    +0.168 C 
ENDBRANCH   6  12
BRANCH   3  20
ATOM     18  F   UNL     1      38.126 -24.094 -12.276  0.00  0.00    -0.204 F 
ATOM     19  C   UNL     1      34.358 -23.627 -13.969  0.00  0.00    +0.062 C 
ATOM     20  C   UNL     1      35.506 -23.102 -14.597  0.00  0.00    +0.067 C 
ATOM     21  C   UNL     1      34.526 -24.316 -12.752  0.00  0.00    +0.018 C 
ATOM     22  C   UNL     1      36.770 -23.258 -14.028  0.00  0.00    +0.046 C 
ATOM     23  C   UNL     1      35.790 -24.473 -12.183  0.00  0.00    +0.031 C 
ATOM     24  C   UNL     1      36.913 -23.943 -12.822  0.00  0.00    +0.141 C 
BRANCH  19  25
ATOM     25  N   UNL     1      33.080 -23.483 -14.524  0.00  0.00    -0.307 N 
ATOM     26  C   UNL     1      30.405 -23.194 -15.612  0.00  0.00    +0.102 C 
ATOM     27  C   UNL     1      31.645 -23.161 -16.501  0.00  0.00    +0.033 C 
ATOM     28  C   UNL     1      30.741 -22.799 -14.176  0.00  0.00    +0.033 C 
ATOM     29  C   UNL     1      32.841 -23.907 -15.906  0.00  0.00    +0.091 C 
ATOM     30  C   UNL     1      31.934 -23.571 -13.611  0.00  0.00    +0.091 C 
BRANCH  26  32
ATOM     31  O   UNL     1      30.090 -25.512 -14.999  0.00  0.00    -0.250 OA
ATOM     32  C   UNL     1      29.739 -24.537 -15.647  0.00  0.00    +0.313 C 
BRANCH  32  33
ATOM     33  O   UNL     1      28.686 -24.528 -16.501  0.00  0.00    -0.480 OA
ATOM     34  H   UNL     1      28.607 -23.849 -17.141  0.00  0.00    +0.295 HD
ENDBRANCH  32  33
ENDBRANCH  26  32
ENDBRANCH  19  25
ENDBRANCH   3  20
TORSDOF 5
ENDMDL
MODEL 5
REMARK VINA RESULT:      -9.1      9.335     13.915
REMARK  Name = 12148754
REMARK  5 active torsions:
REMARK  status: ('A' for Active; 'I' for Inactive)
REMARK    1  A    between atoms: N_3  and  C_20
REMARK    2  A    between atoms: C_6  and  C_12
REMARK    3  A    between atoms: C_19  and  N_25
REMARK    4  A    between atoms: C_26  and  C_32
REMARK    5  A    between atoms: C_32  and  O_33
REMARK                            x       y       z     vdW  Elec       q    Type
REMARK                         _______ _______ _______ _____ _____    ______ ____
ROOT
ATOM      1  O   UNL     1      33.317 -11.715 -25.389  0.00  0.00    -0.252 OA
ATOM      2  O   UNL     1      33.499 -14.488 -25.276  0.00  0.00    -0.270 OA
ATOM      3  N   UNL     1      34.116 -10.671 -23.437  0.00  0.00    -0.267 N 
ATOM      4  N   UNL     1      34.148 -12.980 -23.624  0.00  0.00    -0.236 N 
ATOM      5  C   UNL     1      33.810 -11.770 -24.265  0.00  0.00    +0.310 C 
ATOM      6  C   UNL     1      33.972 -14.252 -24.168  0.00  0.00    +0.254 C 
ATOM      7  H   UNL     1      34.507 -10.890 -22.561  0.00  0.00    +0.156 HD
ATOM      8  H   UNL     1      34.539 -12.922 -22.723  0.00  0.00    +0.159 HD
ENDROOT
BRANCH   6  12
ATOM      9 CL   UNL     1      34.823 -16.841 -25.597  0.00  0.00    -0.082 Cl
ATOM     10  F   UNL     1      34.887 -16.046 -19.796  0.00  0.00    -0.202 F 
ATOM     11  F   UNL     1      35.684 -18.428 -20.877  0.00  0.00    -0.202 F 
ATOM     12  C   UNL     1      34.434 -15.382 -23.323  0.00  0.00    +0.067 C 
ATOM     13  C   UNL     1      34.832 -16.577 -23.891  0.00  0.00    +0.064 C 
ATOM     14  C   UNL     1      34.445 -15.183 -21.955  0.00  0.00    +0.037 C 
ATOM     15  C   UNL     1      35.258 -17.612 -23.059  0.00  0.00    +0.043 C 
ATOM     16  C   UNL     1      34.870 -16.217 -21.124  0.00  0.00    +0.168 C 
ATOM     17  C   UNL     1      35.277 -17.433 -21.675  0.00  0.00    +0.168 C 
ENDBRANCH   6  12
BRANCH   3  20
ATOM     18  F   UNL     1      35.243  -6.781 -25.965  0.00  0.00    -0.204 F 
ATOM     19  C   UNL     1      33.003  -8.564 -22.950  0.00  0.00    +0.062 C 
ATOM     20  C   UNL     1      33.934  -9.310 -23.701  0.00  0.00    +0.067 C 
ATOM     21  C   UNL     1      32.855  -7.196 -23.252  0.00  0.00    +0.018 C 
ATOM     22  C   UNL     1      34.685  -8.712 -24.713  0.00  0.00    +0.046 C 
ATOM     23  C   UNL     1      33.606  -6.597 -24.264  0.00  0.00    +0.031 C 
ATOM     24  C   UNL     1      34.522  -7.356 -24.994  0.00  0.00    +0.141 C 
BRANCH  19  25
ATOM     25  N   UNL     1      32.240  -9.144 -21.929  0.00  0.00    -0.307 N 
ATOM     26  C   UNL     1      30.696 -10.313 -19.767  0.00  0.00    +0.102 C 
ATOM     27  C   UNL     1      30.431 -10.664 -21.229  0.00  0.00    +0.033 C 
ATOM     28  C   UNL     1      31.364  -8.946 -19.637  0.00  0.00    +0.033 C 
ATOM     29  C   UNL     1      31.651 -10.470 -22.133  0.00  0.00    +0.091 C 
ATOM     30  C   UNL     1      32.583  -8.792 -20.546  0.00  0.00    +0.091 C 
BRANCH  26  32
ATOM     31  O   UNL     1      32.068 -12.302 -19.655  0.00  0.00    -0.250 OA
ATOM     32  C   UNL     1      31.518 -11.368 -19.089  0.00  0.00    +0.313 C 
BRANCH  32  33
ATOM     33  O   UNL     1      31.570 -11.149 -17.752  0.00  0.00    -0.480 OA
ATOM     34  H   UNL     1      32.355 -10.819 -17.361  0.00  0.00    +0.295 HD
ENDBRANCH  32  33
ENDBRANCH  26  32
ENDBRANCH  19  25
ENDBRANCH   3  20
TORSDOF 5
ENDMDL
MODEL 6
REMARK VINA RESULT:      -8.7      9.193     13.813
REMARK  Name = 12148754
REMARK  5 active torsions:
REMARK  status: ('A' for Active; 'I' for Inactive)
REMARK    1  A    between atoms: N_3  and  C_20
REMARK    2  A    between atoms: C_6  and  C_12
REMARK    3  A    between atoms: C_19  and  N_25
REMARK    4  A    between atoms: C_26  and  C_32
REMARK    5  A    between atoms: C_32  and  O_33
REMARK                            x       y       z     vdW  Elec       q    Type
REMARK                         _______ _______ _______ _____ _____    ______ ____
ROOT
ATOM      1  O   UNL     1      33.454 -11.827 -25.476  0.00  0.00    -0.252 OA
ATOM      2  O   UNL     1      33.541 -14.605 -25.387  0.00  0.00    -0.270 OA
ATOM      3  N   UNL     1      34.043 -10.832 -23.427  0.00  0.00    -0.267 N 
ATOM      4  N   UNL     1      34.031 -13.139 -23.645  0.00  0.00    -0.236 N 
ATOM      5  C   UNL     1      33.807 -11.911 -24.302  0.00  0.00    +0.310 C 
ATOM      6  C   UNL     1      33.884 -14.397 -24.226  0.00  0.00    +0.254 C 
ATOM      7  H   UNL     1      34.321 -11.074 -22.513  0.00  0.00    +0.156 HD
ATOM      8  H   UNL     1      34.312 -13.104 -22.703  0.00  0.00    +0.159 HD
ENDROOT
BRANCH   6  12
ATOM      9 CL   UNL     1      32.436 -14.579 -21.517  0.00  0.00    -0.082 Cl
ATOM     10  F   UNL     1      36.380 -18.443 -23.468  0.00  0.00    -0.202 F 
ATOM     11  F   UNL     1      35.201 -18.782 -21.025  0.00  0.00    -0.202 F 
ATOM     12  C   UNL     1      34.209 -15.552 -23.350  0.00  0.00    +0.067 C 
ATOM     13  C   UNL     1      33.601 -15.703 -22.119  0.00  0.00    +0.064 C 
ATOM     14  C   UNL     1      35.141 -16.457 -23.821  0.00  0.00    +0.037 C 
ATOM     15  C   UNL     1      33.938 -16.802 -21.329  0.00  0.00    +0.043 C 
ATOM     16  C   UNL     1      35.478 -17.555 -23.032  0.00  0.00    +0.168 C 
ATOM     17  C   UNL     1      34.876 -17.728 -21.785  0.00  0.00    +0.168 C 
ENDBRANCH   6  12
BRANCH   3  20
ATOM     18  F   UNL     1      35.352  -7.010 -25.971  0.00  0.00    -0.204 F 
ATOM     19  C   UNL     1      33.056  -8.667 -22.926  0.00  0.00    +0.062 C 
ATOM     20  C   UNL     1      33.934  -9.463 -23.688  0.00  0.00    +0.067 C 
ATOM     21  C   UNL     1      32.981  -7.292 -23.226  0.00  0.00    +0.018 C 
ATOM     22  C   UNL     1      34.704  -8.907 -24.711  0.00  0.00    +0.046 C 
ATOM     23  C   UNL     1      33.750  -6.736 -24.248  0.00  0.00    +0.031 C 
ATOM     24  C   UNL     1      34.612  -7.544 -24.990  0.00  0.00    +0.141 C 
BRANCH  19  25
ATOM     25  N   UNL     1      32.276  -9.203 -21.894  0.00  0.00    -0.307 N 
ATOM     26  C   UNL     1      30.695 -10.282 -19.712  0.00  0.00    +0.102 C 
ATOM     27  C   UNL     1      30.453 -10.692 -21.162  0.00  0.00    +0.033 C 
ATOM     28  C   UNL     1      31.363  -8.912 -19.627  0.00  0.00    +0.033 C 
ATOM     29  C   UNL     1      31.687 -10.536 -22.054  0.00  0.00    +0.091 C 
ATOM     30  C   UNL     1      32.597  -8.796 -20.521  0.00  0.00    +0.091 C 
BRANCH  26  32
ATOM     31  O   UNL     1      32.048 -12.275 -19.494  0.00  0.00    -0.250 OA
ATOM     32  C   UNL     1      31.504 -11.310 -18.978  0.00  0.00    +0.313 C 
BRANCH  32  33
ATOM     33  O   UNL     1      31.553 -11.025 -17.654  0.00  0.00    -0.480 OA
ATOM     34  H   UNL     1      32.315 -11.241 -17.155  0.00  0.00    +0.295 HD
ENDBRANCH  32  33
ENDBRANCH  26  32
ENDBRANCH  19  25
ENDBRANCH   3  20
TORSDOF 5
ENDMDL
MODEL 7
REMARK VINA RESULT:      -8.4      8.842     12.787
REMARK  Name = 12148754
REMARK  5 active torsions:
REMARK  status: ('A' for Active; 'I' for Inactive)
REMARK    1  A    between atoms: N_3  and  C_20
REMARK    2  A    between atoms: C_6  and  C_12
REMARK    3  A    between atoms: C_19  and  N_25
REMARK    4  A    between atoms: C_26  and  C_32
REMARK    5  A    between atoms: C_32  and  O_33
REMARK                            x       y       z     vdW  Elec       q    Type
REMARK                         _______ _______ _______ _____ _____    ______ ____
ROOT
ATOM      1  O   UNL     1      31.669 -14.454 -21.583  0.00  0.00    -0.252 OA
ATOM      2  O   UNL     1      30.418 -12.031 -21.038  0.00  0.00    -0.270 OA
ATOM      3  N   UNL     1      34.009 -14.259 -21.728  0.00  0.00    -0.267 N 
ATOM      4  N   UNL     1      32.706 -12.396 -21.281  0.00  0.00    -0.236 N 
ATOM      5  C   UNL     1      32.697 -13.783 -21.537  0.00  0.00    +0.310 C 
ATOM      6  C   UNL     1      31.574 -11.615 -21.050  0.00  0.00    +0.254 C 
ATOM      7  H   UNL     1      34.724 -13.584 -21.660  0.00  0.00    +0.156 HD
ATOM      8  H   UNL     1      33.579 -11.944 -21.264  0.00  0.00    +0.159 HD
ENDROOT
BRANCH   6  12
ATOM      9 CL   UNL     1      31.463 -10.702 -18.113  0.00  0.00    -0.082 Cl
ATOM     10  F   UNL     1      32.600  -7.198 -22.665  0.00  0.00    -0.202 F 
ATOM     11  F   UNL     1      32.546  -6.193 -20.123  0.00  0.00    -0.202 F 
ATOM     12  C   UNL     1      31.829 -10.180 -20.767  0.00  0.00    +0.067 C 
ATOM     13  C   UNL     1      31.797  -9.694 -19.474  0.00  0.00    +0.064 C 
ATOM     14  C   UNL     1      32.096  -9.363 -21.849  0.00  0.00    +0.037 C 
ATOM     15  C   UNL     1      32.041  -8.338 -19.255  0.00  0.00    +0.043 C 
ATOM     16  C   UNL     1      32.340  -8.008 -21.630  0.00  0.00    +0.168 C 
ATOM     17  C   UNL     1      32.313  -7.495 -20.333  0.00  0.00    +0.168 C 
ENDBRANCH   6  12
BRANCH   3  20
ATOM     18  F   UNL     1      35.906 -18.375 -20.229  0.00  0.00    -0.204 F 
ATOM     19  C   UNL     1      34.300 -16.086 -23.306  0.00  0.00    +0.062 C 
ATOM     20  C   UNL     1      34.427 -15.564 -22.003  0.00  0.00    +0.067 C 
ATOM     21  C   UNL     1      34.735 -17.406 -23.535  0.00  0.00    +0.018 C 
ATOM     22  C   UNL     1      34.965 -16.332 -20.971  0.00  0.00    +0.046 C 
ATOM     23  C   UNL     1      35.274 -18.175 -22.502  0.00  0.00    +0.031 C 
ATOM     24  C   UNL     1      35.389 -17.637 -21.220  0.00  0.00    +0.141 C 
BRANCH  19  25
ATOM     25  N   UNL     1      33.765 -15.332 -24.358  0.00  0.00    -0.307 N 
ATOM     26  C   UNL     1      32.672 -13.816 -26.579  0.00  0.00    +0.102 C 
ATOM     27  C   UNL     1      32.665 -13.274 -25.152  0.00  0.00    +0.033 C 
ATOM     28  C   UNL     1      32.733 -15.342 -26.592  0.00  0.00    +0.033 C 
ATOM     29  C   UNL     1      33.764 -13.869 -24.269  0.00  0.00    +0.091 C 
ATOM     30  C   UNL     1      33.848 -15.900 -25.708  0.00  0.00    +0.091 C 
BRANCH  26  32
ATOM     31  O   UNL     1      34.384 -13.812 -28.288  0.00  0.00    -0.250 OA
ATOM     32  C   UNL     1      33.799 -13.237 -27.382  0.00  0.00    +0.313 C 
BRANCH  32  33
ATOM     33  O   UNL     1      34.088 -11.980 -26.965  0.00  0.00    -0.480 OA
ATOM     34  H   UNL     1      34.118 -11.785 -26.049  0.00  0.00    +0.295 HD
ENDBRANCH  32  33
ENDBRANCH  26  32
ENDBRANCH  19  25
ENDBRANCH   3  20
TORSDOF 5
ENDMDL
MODEL 8
REMARK VINA RESULT:      -8.3      3.028      4.957
REMARK  Name = 12148754
REMARK  5 active torsions:
REMARK  status: ('A' for Active; 'I' for Inactive)
REMARK    1  A    between atoms: N_3  and  C_20
REMARK    2  A    between atoms: C_6  and  C_12
REMARK    3  A    between atoms: C_19  and  N_25
REMARK    4  A    between atoms: C_26  and  C_32
REMARK    5  A    between atoms: C_32  and  O_33
REMARK                            x       y       z     vdW  Elec       q    Type
REMARK                         _______ _______ _______ _____ _____    ______ ____
ROOT
ATOM      1  O   UNL     1      37.342 -22.929 -16.928  0.00  0.00    -0.252 OA
ATOM      2  O   UNL     1      37.433 -21.748 -19.444  0.00  0.00    -0.270 OA
ATOM      3  N   UNL     1      35.339 -22.474 -15.780  0.00  0.00    -0.267 N 
ATOM      4  N   UNL     1      35.690 -21.618 -17.905  0.00  0.00    -0.236 N 
ATOM      5  C   UNL     1      36.235 -22.400 -16.865  0.00  0.00    +0.310 C 
ATOM      6  C   UNL     1      36.320 -21.344 -19.118  0.00  0.00    +0.254 C 
ATOM      7  H   UNL     1      34.490 -21.988 -15.892  0.00  0.00    +0.156 HD
ATOM      8  H   UNL     1      34.795 -21.235 -17.762  0.00  0.00    +0.159 HD
ENDROOT
BRANCH   6  12
ATOM      9 CL   UNL     1      37.858 -19.290 -20.817  0.00  0.00    -0.082 Cl
ATOM     10  F   UNL     1      32.079 -20.198 -21.086  0.00  0.00    -0.202 F 
ATOM     11  F   UNL     1      33.262 -18.322 -22.684  0.00  0.00    -0.202 F 
ATOM     12  C   UNL     1      35.538 -20.524 -20.078  0.00  0.00    +0.067 C 
ATOM     13  C   UNL     1      36.157 -19.581 -20.875  0.00  0.00    +0.064 C 
ATOM     14  C   UNL     1      34.175 -20.748 -20.132  0.00  0.00    +0.037 C 
ATOM     15  C   UNL     1      35.383 -18.833 -21.762  0.00  0.00    +0.043 C 
ATOM     16  C   UNL     1      33.402 -20.000 -21.018  0.00  0.00    +0.168 C 
ATOM     17  C   UNL     1      34.005 -19.042 -21.834  0.00  0.00    +0.168 C 
ENDBRANCH   6  12
BRANCH   3  20
ATOM     18  F   UNL     1      38.209 -24.133 -12.345  0.00  0.00    -0.204 F 
ATOM     19  C   UNL     1      34.376 -23.649 -13.881  0.00  0.00    +0.062 C 
ATOM     20  C   UNL     1      35.501 -23.147 -14.566  0.00  0.00    +0.067 C 
ATOM     21  C   UNL     1      34.589 -24.321 -12.662  0.00  0.00    +0.018 C 
ATOM     22  C   UNL     1      36.787 -23.309 -14.050  0.00  0.00    +0.046 C 
ATOM     23  C   UNL     1      35.875 -24.483 -12.145  0.00  0.00    +0.031 C 
ATOM     24  C   UNL     1      36.975 -23.977 -12.840  0.00  0.00    +0.141 C 
BRANCH  19  25
ATOM     25  N   UNL     1      33.077 -23.499 -14.382  0.00  0.00    -0.307 N 
ATOM     26  C   UNL     1      30.360 -23.195 -15.358  0.00  0.00    +0.102 C 
ATOM     27  C   UNL     1      31.559 -23.210 -16.303  0.00  0.00    +0.033 C 
ATOM     28  C   UNL     1      30.768 -22.764 -13.951  0.00  0.00    +0.033 C 
ATOM     29  C   UNL     1      32.769 -23.959 -15.740  0.00  0.00    +0.091 C 
ATOM     30  C   UNL     1      31.972 -23.539 -13.417  0.00  0.00    +0.091 C 
BRANCH  26  32
ATOM     31  O   UNL     1      29.025 -24.958 -14.379  0.00  0.00    -0.250 OA
ATOM     32  C   UNL     1      29.672 -24.527 -15.323  0.00  0.00    +0.313 C 
BRANCH  32  33
ATOM     33  O   UNL     1      29.864 -25.197 -16.485  0.00  0.00    -0.480 OA
ATOM     34  H   UNL     1      30.706 -25.554 -16.687  0.00  0.00    +0.295 HD
ENDBRANCH  32  33
ENDBRANCH  26  32
ENDBRANCH  19  25
ENDBRANCH   3  20
TORSDOF 5
ENDMDL
