MODEL 1
REMARK VINA RESULT:      -6.2      0.000      0.000
REMARK  Name = 440717
REMARK  4 active torsions:
REMARK  status: ('A' for Active; 'I' for Inactive)
REMARK    1  A    between atoms: C_2  and  C_4
REMARK    2  A    between atoms: C_2  and  C_7
REMARK    3  A    between atoms: C_4  and  O_5
REMARK    4  A    between atoms: C_7  and  S_8
REMARK                            x       y       z     vdW  Elec       q    Type
REMARK                         _______ _______ _______ _____ _____    ______ ____
ROOT
ATOM      1  O   UNL     1      38.423 -26.903 -14.647  0.00  0.00    -0.283 OA
ATOM      2  C   UNL     1      38.767 -25.735 -14.546  0.00  0.00    +0.272 C 
ENDROOT
BRANCH   2   4
ATOM      3  O   UNL     1      40.902 -24.744 -14.192  0.00  0.00    -0.242 OA
ATOM      4  C   UNL     1      40.185 -25.404 -14.915  0.00  0.00    +0.375 C 
BRANCH   4   5
ATOM      5  O   UNL     1      40.501 -25.982 -16.081  0.00  0.00    -0.475 OA
ATOM      6  H   UNL     1      40.783 -25.457 -16.803  0.00  0.00    +0.295 HD
ENDBRANCH   4   5
ENDBRANCH   2   4
BRANCH   2   7
ATOM      7  C   UNL     1      37.909 -24.593 -14.080  0.00  0.00    +0.233 C 
BRANCH   7   8
ATOM      8  S   UNL     1      37.804 -24.523 -12.324  0.00  0.00    +0.030 S 
ATOM      9  O   UNL     1      36.351 -23.786 -12.224  0.00  0.00    -0.069 OA
ATOM     10  O   UNL     1      38.822 -23.614 -11.824  0.00  0.00    -0.069 OA
ATOM     11  O   UNL     1      37.676 -25.873 -11.805  0.00  0.00    -0.069 OA
ENDBRANCH   7   8
ENDBRANCH   2   7
TORSDOF 4
ENDMDL
MODEL 2
REMARK VINA RESULT:      -6.1      1.791      4.059
REMARK  Name = 440717
REMARK  4 active torsions:
REMARK  status: ('A' for Active; 'I' for Inactive)
REMARK    1  A    between atoms: C_2  and  C_4
REMARK    2  A    between atoms: C_2  and  C_7
REMARK    3  A    between atoms: C_4  and  O_5
REMARK    4  A    between atoms: C_7  and  S_8
REMARK                            x       y       z     vdW  Elec       q    Type
REMARK                         _______ _______ _______ _____ _____    ______ ____
ROOT
ATOM      1  O   UNL     1      37.925 -23.614 -14.278  0.00  0.00    -0.283 OA
ATOM      2  C   UNL     1      38.310 -24.498 -13.528  0.00  0.00    +0.272 C 
ENDROOT
BRANCH   2   4
ATOM      3  O   UNL     1      37.624 -24.984 -11.301  0.00  0.00    -0.242 OA
ATOM      4  C   UNL     1      38.213 -24.235 -12.052  0.00  0.00    +0.375 C 
BRANCH   4   5
ATOM      5  O   UNL     1      38.901 -23.130 -11.739  0.00  0.00    -0.475 OA
ATOM      6  H   UNL     1      38.653 -22.304 -12.104  0.00  0.00    +0.295 HD
ENDBRANCH   4   5
ENDBRANCH   2   4
BRANCH   2   7
ATOM      7  C   UNL     1      38.881 -25.826 -13.937  0.00  0.00    +0.233 C 
BRANCH   7   8
ATOM      8  S   UNL     1      40.501 -25.667 -14.609  0.00  0.00    +0.030 S 
ATOM      9  O   UNL     1      41.191 -26.909 -13.805  0.00  0.00    -0.069 OA
ATOM     10  O   UNL     1      41.089 -24.424 -14.139  0.00  0.00    -0.069 OA
ATOM     11  O   UNL     1      40.459 -25.997 -16.022  0.00  0.00    -0.069 OA
ENDBRANCH   7   8
ENDBRANCH   2   7
TORSDOF 4
ENDMDL
MODEL 3
REMARK VINA RESULT:      -6.0      0.938      1.616
REMARK  Name = 440717
REMARK  4 active torsions:
REMARK  status: ('A' for Active; 'I' for Inactive)
REMARK    1  A    between atoms: C_2  and  C_4
REMARK    2  A    between atoms: C_2  and  C_7
REMARK    3  A    between atoms: C_4  and  O_5
REMARK    4  A    between atoms: C_7  and  S_8
REMARK                            x       y       z     vdW  Elec       q    Type
REMARK                         _______ _______ _______ _____ _____    ______ ____
ROOT
ATOM      1  O   UNL     1      38.128 -26.403 -15.063  0.00  0.00    -0.283 OA
ATOM      2  C   UNL     1      38.925 -25.870 -14.305  0.00  0.00    +0.272 C 
ENDROOT
BRANCH   2   4
ATOM      3  O   UNL     1      40.965 -24.645 -14.296  0.00  0.00    -0.242 OA
ATOM      4  C   UNL     1      40.216 -25.384 -14.899  0.00  0.00    +0.375 C 
BRANCH   4   5
ATOM      5  O   UNL     1      40.397 -25.931 -16.108  0.00  0.00    -0.475 OA
ATOM      6  H   UNL     1      40.682 -26.820 -16.183  0.00  0.00    +0.295 HD
ENDBRANCH   4   5
ENDBRANCH   2   4
BRANCH   2   7
ATOM      7  C   UNL     1      38.742 -25.656 -12.829  0.00  0.00    +0.233 C 
BRANCH   7   8
ATOM      8  S   UNL     1      37.825 -24.193 -12.485  0.00  0.00    +0.030 S 
ATOM      9  O   UNL     1      38.999 -23.384 -11.690  0.00  0.00    -0.069 OA
ATOM     10  O   UNL     1      36.761 -24.510 -11.546  0.00  0.00    -0.069 OA
ATOM     11  O   UNL     1      37.550 -23.504 -13.733  0.00  0.00    -0.069 OA
ENDBRANCH   7   8
ENDBRANCH   2   7
TORSDOF 4
ENDMDL
MODEL 4
REMARK VINA RESULT:      -6.0      1.663      2.300
REMARK  Name = 440717
REMARK  4 active torsions:
REMARK  status: ('A' for Active; 'I' for Inactive)
REMARK    1  A    between atoms: C_2  and  C_4
REMARK    2  A    between atoms: C_2  and  C_7
REMARK    3  A    between atoms: C_4  and  O_5
REMARK    4  A    between atoms: C_7  and  S_8
REMARK                            x       y       z     vdW  Elec       q    Type
REMARK                         _______ _______ _______ _____ _____    ______ ____
ROOT
ATOM      1  O   UNL     1      39.041 -24.081 -15.211  0.00  0.00    -0.283 OA
ATOM      2  C   UNL     1      39.335 -24.963 -14.418  0.00  0.00    +0.272 C 
ENDROOT
BRANCH   2   4
ATOM      3  O   UNL     1      41.100 -26.500 -13.989  0.00  0.00    -0.242 OA
ATOM      4  C   UNL     1      40.445 -25.895 -14.812  0.00  0.00    +0.375 C 
BRANCH   4   5
ATOM      5  O   UNL     1      40.529 -25.969 -16.146  0.00  0.00    -0.475 OA
ATOM      6  H   UNL     1      41.354 -25.844 -16.572  0.00  0.00    +0.295 HD
ENDBRANCH   4   5
ENDBRANCH   2   4
BRANCH   2   7
ATOM      7  C   UNL     1      38.687 -25.215 -13.086  0.00  0.00    +0.233 C 
BRANCH   7   8
ATOM      8  S   UNL     1      37.132 -26.024 -13.254  0.00  0.00    +0.030 S 
ATOM      9  O   UNL     1      36.930 -26.431 -11.686  0.00  0.00    -0.069 OA
ATOM     10  O   UNL     1      37.310 -27.239 -14.030  0.00  0.00    -0.069 OA
ATOM     11  O   UNL     1      36.125 -25.040 -13.610  0.00  0.00    -0.069 OA
ENDBRANCH   7   8
ENDBRANCH   2   7
TORSDOF 4
ENDMDL
MODEL 5
REMARK VINA RESULT:      -6.0      1.853      2.357
REMARK  Name = 440717
REMARK  4 active torsions:
REMARK  status: ('A' for Active; 'I' for Inactive)
REMARK    1  A    between atoms: C_2  and  C_4
REMARK    2  A    between atoms: C_2  and  C_7
REMARK    3  A    between atoms: C_4  and  O_5
REMARK    4  A    between atoms: C_7  and  S_8
REMARK                            x       y       z     vdW  Elec       q    Type
REMARK                         _______ _______ _______ _____ _____    ______ ____
ROOT
ATOM      1  O   UNL     1      38.540 -27.020 -14.649  0.00  0.00    -0.283 OA
ATOM      2  C   UNL     1      38.858 -25.860 -14.432  0.00  0.00    +0.272 C 
ENDROOT
BRANCH   2   4
ATOM      3  O   UNL     1      40.938 -24.719 -14.236  0.00  0.00    -0.242 OA
ATOM      4  C   UNL     1      40.213 -25.421 -14.910  0.00  0.00    +0.375 C 
BRANCH   4   5
ATOM      5  O   UNL     1      40.472 -25.960 -16.108  0.00  0.00    -0.475 OA
ATOM      6  H   UNL     1      40.793 -25.423 -16.805  0.00  0.00    +0.295 HD
ENDBRANCH   4   5
ENDBRANCH   2   4
BRANCH   2   7
ATOM      7  C   UNL     1      38.027 -24.827 -13.726  0.00  0.00    +0.233 C 
BRANCH   7   8
ATOM      8  S   UNL     1      37.045 -23.893 -14.849  0.00  0.00    +0.030 S 
ATOM      9  O   UNL     1      36.092 -23.160 -13.745  0.00  0.00    -0.069 OA
ATOM     10  O   UNL     1      36.230 -24.803 -15.637  0.00  0.00    -0.069 OA
ATOM     11  O   UNL     1      37.880 -22.887 -15.481  0.00  0.00    -0.069 OA
ENDBRANCH   7   8
ENDBRANCH   2   7
TORSDOF 4
ENDMDL
MODEL 6
REMARK VINA RESULT:      -5.9      1.488      2.560
REMARK  Name = 440717
REMARK  4 active torsions:
REMARK  status: ('A' for Active; 'I' for Inactive)
REMARK    1  A    between atoms: C_2  and  C_4
REMARK    2  A    between atoms: C_2  and  C_7
REMARK    3  A    between atoms: C_4  and  O_5
REMARK    4  A    between atoms: C_7  and  S_8
REMARK                            x       y       z     vdW  Elec       q    Type
REMARK                         _______ _______ _______ _____ _____    ______ ____
ROOT
ATOM      1  O   UNL     1      39.737 -24.634 -14.116  0.00  0.00    -0.283 OA
ATOM      2  C   UNL     1      38.730 -25.207 -13.726  0.00  0.00    +0.272 C 
ENDROOT
BRANCH   2   4
ATOM      3  O   UNL     1      38.107 -27.229 -14.816  0.00  0.00    -0.242 OA
ATOM      4  C   UNL     1      37.975 -26.026 -14.734  0.00  0.00    +0.375 C 
BRANCH   4   5
ATOM      5  O   UNL     1      37.146 -25.239 -15.432  0.00  0.00    -0.475 OA
ATOM      6  H   UNL     1      36.825 -25.520 -16.267  0.00  0.00    +0.295 HD
ENDBRANCH   4   5
ENDBRANCH   2   4
BRANCH   2   7
ATOM      7  C   UNL     1      38.167 -25.168 -12.334  0.00  0.00    +0.233 C 
BRANCH   7   8
ATOM      8  S   UNL     1      37.406 -23.620 -11.976  0.00  0.00    +0.030 S 
ATOM      9  O   UNL     1      36.635 -24.070 -10.609  0.00  0.00    -0.069 OA
ATOM     10  O   UNL     1      36.413 -23.333 -12.997  0.00  0.00    -0.069 OA
ATOM     11  O   UNL     1      38.437 -22.657 -11.632  0.00  0.00    -0.069 OA
ENDBRANCH   7   8
ENDBRANCH   2   7
TORSDOF 4
ENDMDL
MODEL 7
REMARK VINA RESULT:      -5.8      2.713      4.688
REMARK  Name = 440717
REMARK  4 active torsions:
REMARK  status: ('A' for Active; 'I' for Inactive)
REMARK    1  A    between atoms: C_2  and  C_4
REMARK    2  A    between atoms: C_2  and  C_7
REMARK    3  A    between atoms: C_4  and  O_5
REMARK    4  A    between atoms: C_7  and  S_8
REMARK                            x       y       z     vdW  Elec       q    Type
REMARK                         _______ _______ _______ _____ _____    ______ ____
ROOT
ATOM      1  O   UNL     1      37.657 -22.859 -11.390  0.00  0.00    -0.283 OA
ATOM      2  C   UNL     1      36.701 -23.442 -11.880  0.00  0.00    +0.272 C 
ENDROOT
BRANCH   2   4
ATOM      3  O   UNL     1      35.994 -24.237  -9.751  0.00  0.00    -0.242 OA
ATOM      4  C   UNL     1      35.861 -24.277 -10.957  0.00  0.00    +0.375 C 
BRANCH   4   5
ATOM      5  O   UNL     1      34.965 -24.978 -11.663  0.00  0.00    -0.475 OA
ATOM      6  H   UNL     1      35.066 -25.069 -12.589  0.00  0.00    +0.295 HD
ENDBRANCH   4   5
ENDBRANCH   2   4
BRANCH   2   7
ATOM      7  C   UNL     1      36.285 -23.411 -13.323  0.00  0.00    +0.233 C 
BRANCH   7   8
ATOM      8  S   UNL     1      37.235 -24.522 -14.305  0.00  0.00    +0.030 S 
ATOM      9  O   UNL     1      36.253 -24.552 -15.608  0.00  0.00    -0.069 OA
ATOM     10  O   UNL     1      37.222 -25.835 -13.683  0.00  0.00    -0.069 OA
ATOM     11  O   UNL     1      38.480 -23.874 -14.678  0.00  0.00    -0.069 OA
ENDBRANCH   7   8
ENDBRANCH   2   7
TORSDOF 4
ENDMDL
MODEL 8
REMARK VINA RESULT:      -5.8      2.066      4.411
REMARK  Name = 440717
REMARK  4 active torsions:
REMARK  status: ('A' for Active; 'I' for Inactive)
REMARK    1  A    between atoms: C_2  and  C_4
REMARK    2  A    between atoms: C_2  and  C_7
REMARK    3  A    between atoms: C_4  and  O_5
REMARK    4  A    between atoms: C_7  and  S_8
REMARK                            x       y       z     vdW  Elec       q    Type
REMARK                         _______ _______ _______ _____ _____    ______ ____
ROOT
ATOM      1  O   UNL     1      38.591 -23.102 -11.715  0.00  0.00    -0.283 OA
ATOM      2  C   UNL     1      37.815 -24.040 -11.825  0.00  0.00    +0.272 C 
ENDROOT
BRANCH   2   4
ATOM      3  O   UNL     1      36.216 -24.092 -10.063  0.00  0.00    -0.242 OA
ATOM      4  C   UNL     1      36.445 -23.867 -11.233  0.00  0.00    +0.375 C 
BRANCH   4   5
ATOM      5  O   UNL     1      35.602 -23.397 -12.161  0.00  0.00    -0.475 OA
ATOM      6  H   UNL     1      35.643 -23.720 -13.039  0.00  0.00    +0.295 HD
ENDBRANCH   4   5
ENDBRANCH   2   4
BRANCH   2   7
ATOM      7  C   UNL     1      38.098 -25.356 -12.490  0.00  0.00    +0.233 C 
BRANCH   7   8
ATOM      8  S   UNL     1      37.952 -25.253 -14.242  0.00  0.00    +0.030 S 
ATOM      9  O   UNL     1      38.375 -26.792 -14.586  0.00  0.00    -0.069 OA
ATOM     10  O   UNL     1      38.982 -24.363 -14.752  0.00  0.00    -0.069 OA
ATOM     11  O   UNL     1      36.554 -25.068 -14.589  0.00  0.00    -0.069 OA
ENDBRANCH   7   8
ENDBRANCH   2   7
TORSDOF 4
ENDMDL
MODEL 9
REMARK VINA RESULT:      -5.7      1.811      2.746
REMARK  Name = 440717
REMARK  4 active torsions:
REMARK  status: ('A' for Active; 'I' for Inactive)
REMARK    1  A    between atoms: C_2  and  C_4
REMARK    2  A    between atoms: C_2  and  C_7
REMARK    3  A    between atoms: C_4  and  O_5
REMARK    4  A    between atoms: C_7  and  S_8
REMARK                            x       y       z     vdW  Elec       q    Type
REMARK                         _______ _______ _______ _____ _____    ______ ____
ROOT
ATOM      1  O   UNL     1      39.083 -24.304 -13.709  0.00  0.00    -0.283 OA
ATOM      2  C   UNL     1      38.259 -25.182 -13.506  0.00  0.00    +0.272 C 
ENDROOT
BRANCH   2   4
ATOM      3  O   UNL     1      38.211 -27.161 -14.828  0.00  0.00    -0.242 OA
ATOM      4  C   UNL     1      37.840 -26.014 -14.684  0.00  0.00    +0.375 C 
BRANCH   4   5
ATOM      5  O   UNL     1      36.995 -25.320 -15.457  0.00  0.00    -0.475 OA
ATOM      6  H   UNL     1      37.288 -24.545 -15.893  0.00  0.00    +0.295 HD
ENDBRANCH   4   5
ENDBRANCH   2   4
BRANCH   2   7
ATOM      7  C   UNL     1      37.613 -25.509 -12.189  0.00  0.00    +0.233 C 
BRANCH   7   8
ATOM      8  S   UNL     1      36.348 -24.357 -11.773  0.00  0.00    +0.030 S 
ATOM      9  O   UNL     1      37.288 -23.279 -10.986  0.00  0.00    -0.069 OA
ATOM     10  O   UNL     1      35.444 -24.972 -10.816  0.00  0.00    -0.069 OA
ATOM     11  O   UNL     1      35.854 -23.740 -12.991  0.00  0.00    -0.069 OA
ENDBRANCH   7   8
ENDBRANCH   2   7
TORSDOF 4
ENDMDL
