MODEL 1
REMARK VINA RESULT:      -5.5      0.000      0.000
REMARK  Name = 5311110
REMARK  8 active torsions:
REMARK  status: ('A' for Active; 'I' for Inactive)
REMARK    1  A    between atoms: C_1  and  O_2
REMARK    2  A    between atoms: C_1  and  C_4
REMARK    3  A    between atoms: C_1  and  C_10
REMARK    4  A    between atoms: C_4  and  O_5
REMARK    5  A    between atoms: C_4  and  C_7
REMARK    6  A    between atoms: C_7  and  O_8
REMARK    7  A    between atoms: C_10  and  O_11
REMARK    8  A    between atoms: C_10  and  C_14
REMARK                            x       y       z     vdW  Elec       q    Type
REMARK                         _______ _______ _______ _____ _____    ______ ____
ROOT
ATOM      1  C   UNL     1      37.824 -25.756 -14.565  0.00  0.00    +0.174 C 
ENDROOT
BRANCH   1   2
ATOM      2  O   UNL     1      38.213 -27.128 -14.634  0.00  0.00    -0.379 OA
ATOM      3  H   UNL     1      37.752 -27.558 -15.372  0.00  0.00    +0.211 HD
ENDBRANCH   1   2
BRANCH   1   4
ATOM      4  C   UNL     1      39.083 -24.877 -14.581  0.00  0.00    +0.169 C 
BRANCH   4   5
ATOM      5  O   UNL     1      39.018 -23.957 -15.670  0.00  0.00    -0.379 OA
ATOM      6  H   UNL     1      39.230 -23.065 -15.353  0.00  0.00    +0.211 HD
ENDBRANCH   4   5
BRANCH   4   7
ATOM      7  C   UNL     1      40.362 -25.705 -14.718  0.00  0.00    +0.169 C 
BRANCH   7   8
ATOM      8  O   UNL     1      40.569 -26.008 -16.095  0.00  0.00    -0.379 OA
ATOM      9  H   UNL     1      40.266 -26.912 -16.276  0.00  0.00    +0.211 HD
ENDBRANCH   7   8
ENDBRANCH   4   7
ENDBRANCH   1   4
BRANCH   1  10
ATOM     10  C   UNL     1      36.919 -25.538 -13.345  0.00  0.00    +0.205 C 
BRANCH  10  11
ATOM     11  O   UNL     1      36.841 -26.756 -12.618  0.00  0.00    -0.375 OA
ATOM     12  H   UNL     1      37.732 -27.116 -12.494  0.00  0.00    +0.211 HD
ENDBRANCH  10  11
BRANCH  10  14
ATOM     13  O   UNL     1      37.677 -24.623 -11.226  0.00  0.00    -0.286 OA
ATOM     14  C   UNL     1      37.444 -24.457 -12.420  0.00  0.00    +0.239 C 
ENDBRANCH  10  14
ENDBRANCH   1  10
TORSDOF 8
ENDMDL
MODEL 2
REMARK VINA RESULT:      -5.4      1.635      4.375
REMARK  Name = 5311110
REMARK  8 active torsions:
REMARK  status: ('A' for Active; 'I' for Inactive)
REMARK    1  A    between atoms: C_1  and  O_2
REMARK    2  A    between atoms: C_1  and  C_4
REMARK    3  A    between atoms: C_1  and  C_10
REMARK    4  A    between atoms: C_4  and  O_5
REMARK    5  A    between atoms: C_4  and  C_7
REMARK    6  A    between atoms: C_7  and  O_8
REMARK    7  A    between atoms: C_10  and  O_11
REMARK    8  A    between atoms: C_10  and  C_14
REMARK                            x       y       z     vdW  Elec       q    Type
REMARK                         _______ _______ _______ _____ _____    ______ ____
ROOT
ATOM      1  C   UNL     1      37.849 -25.038 -12.280  0.00  0.00    +0.174 C 
ENDROOT
BRANCH   1   2
ATOM      2  O   UNL     1      37.098 -26.215 -11.980  0.00  0.00    -0.379 OA
ATOM      3  H   UNL     1      36.921 -26.252 -11.027  0.00  0.00    +0.211 HD
ENDBRANCH   1   2
BRANCH   1   4
ATOM      4  C   UNL     1      36.980 -23.804 -11.996  0.00  0.00    +0.169 C 
BRANCH   4   5
ATOM      5  O   UNL     1      37.749 -22.818 -11.309  0.00  0.00    -0.379 OA
ATOM      6  H   UNL     1      37.480 -22.788 -10.378  0.00  0.00    +0.211 HD
ENDBRANCH   4   5
BRANCH   4   7
ATOM      7  C   UNL     1      35.755 -24.145 -11.147  0.00  0.00    +0.169 C 
BRANCH   7   8
ATOM      8  O   UNL     1      36.151 -24.237  -9.782  0.00  0.00    -0.379 OA
ATOM      9  H   UNL     1      37.011 -24.684  -9.724  0.00  0.00    +0.211 HD
ENDBRANCH   7   8
ENDBRANCH   4   7
ENDBRANCH   1   4
BRANCH   1  10
ATOM     10  C   UNL     1      38.380 -25.118 -13.718  0.00  0.00    +0.205 C 
BRANCH  10  11
ATOM     11  O   UNL     1      38.254 -23.836 -14.317  0.00  0.00    -0.375 OA
ATOM     12  H   UNL     1      38.960 -23.715 -14.971  0.00  0.00    +0.211 HD
ENDBRANCH  10  11
BRANCH  10  14
ATOM     13  O   UNL     1      40.722 -24.881 -14.314  0.00  0.00    -0.286 OA
ATOM     14  C   UNL     1      39.835 -25.537 -13.776  0.00  0.00    +0.239 C 
ENDBRANCH  10  14
ENDBRANCH   1  10
TORSDOF 8
ENDMDL
MODEL 3
REMARK VINA RESULT:      -5.3      1.688      2.577
REMARK  Name = 5311110
REMARK  8 active torsions:
REMARK  status: ('A' for Active; 'I' for Inactive)
REMARK    1  A    between atoms: C_1  and  O_2
REMARK    2  A    between atoms: C_1  and  C_4
REMARK    3  A    between atoms: C_1  and  C_10
REMARK    4  A    between atoms: C_4  and  O_5
REMARK    5  A    between atoms: C_4  and  C_7
REMARK    6  A    between atoms: C_7  and  O_8
REMARK    7  A    between atoms: C_10  and  O_11
REMARK    8  A    between atoms: C_10  and  C_14
REMARK                            x       y       z     vdW  Elec       q    Type
REMARK                         _______ _______ _______ _____ _____    ______ ____
ROOT
ATOM      1  C   UNL     1      37.999 -25.270 -13.253  0.00  0.00    +0.174 C 
ENDROOT
BRANCH   1   2
ATOM      2  O   UNL     1      38.612 -24.328 -14.134  0.00  0.00    -0.379 OA
ATOM      3  H   UNL     1      39.179 -23.729 -13.622  0.00  0.00    +0.211 HD
ENDBRANCH   1   2
BRANCH   1   4
ATOM      4  C   UNL     1      37.630 -26.531 -14.048  0.00  0.00    +0.169 C 
BRANCH   4   5
ATOM      5  O   UNL     1      38.794 -27.066 -14.675  0.00  0.00    -0.379 OA
ATOM      6  H   UNL     1      38.798 -28.032 -14.582  0.00  0.00    +0.211 HD
ENDBRANCH   4   5
BRANCH   4   7
ATOM      7  C   UNL     1      36.583 -26.246 -15.126  0.00  0.00    +0.169 C 
BRANCH   7   8
ATOM      8  O   UNL     1      36.769 -27.161 -16.202  0.00  0.00    -0.379 OA
ATOM      9  H   UNL     1      36.006 -27.759 -16.253  0.00  0.00    +0.211 HD
ENDBRANCH   7   8
ENDBRANCH   4   7
ENDBRANCH   1   4
BRANCH   1  10
ATOM     10  C   UNL     1      36.814 -24.608 -12.535  0.00  0.00    +0.205 C 
BRANCH  10  11
ATOM     11  O   UNL     1      36.378 -25.472 -11.495  0.00  0.00    -0.375 OA
ATOM     12  H   UNL     1      35.690 -25.029 -10.975  0.00  0.00    +0.211 HD
ENDBRANCH  10  11
BRANCH  10  14
ATOM     13  O   UNL     1      38.322 -22.938 -11.622  0.00  0.00    -0.286 OA
ATOM     14  C   UNL     1      37.180 -23.269 -11.927  0.00  0.00    +0.239 C 
ENDBRANCH  10  14
ENDBRANCH   1  10
TORSDOF 8
ENDMDL
MODEL 4
REMARK VINA RESULT:      -5.3      1.425      3.731
REMARK  Name = 5311110
REMARK  8 active torsions:
REMARK  status: ('A' for Active; 'I' for Inactive)
REMARK    1  A    between atoms: C_1  and  O_2
REMARK    2  A    between atoms: C_1  and  C_4
REMARK    3  A    between atoms: C_1  and  C_10
REMARK    4  A    between atoms: C_4  and  O_5
REMARK    5  A    between atoms: C_4  and  C_7
REMARK    6  A    between atoms: C_7  and  O_8
REMARK    7  A    between atoms: C_10  and  O_11
REMARK    8  A    between atoms: C_10  and  C_14
REMARK                            x       y       z     vdW  Elec       q    Type
REMARK                         _______ _______ _______ _____ _____    ______ ____
ROOT
ATOM      1  C   UNL     1      37.465 -24.887 -13.975  0.00  0.00    +0.174 C 
ENDROOT
BRANCH   1   2
ATOM      2  O   UNL     1      37.900 -23.576 -14.336  0.00  0.00    -0.379 OA
ATOM      3  H   UNL     1      37.709 -22.961 -13.610  0.00  0.00    +0.211 HD
ENDBRANCH   1   2
BRANCH   1   4
ATOM      4  C   UNL     1      37.309 -24.961 -12.449  0.00  0.00    +0.169 C 
BRANCH   4   5
ATOM      5  O   UNL     1      36.004 -25.435 -12.118  0.00  0.00    -0.379 OA
ATOM      6  H   UNL     1      35.899 -25.448 -11.154  0.00  0.00    +0.211 HD
ENDBRANCH   4   5
BRANCH   4   7
ATOM      7  C   UNL     1      37.516 -23.600 -11.782  0.00  0.00    +0.169 C 
BRANCH   7   8
ATOM      8  O   UNL     1      38.913 -23.329 -11.711  0.00  0.00    -0.379 OA
ATOM      9  H   UNL     1      39.254 -23.154 -12.602  0.00  0.00    +0.211 HD
ENDBRANCH   7   8
ENDBRANCH   4   7
ENDBRANCH   1   4
BRANCH   1  10
ATOM     10  C   UNL     1      38.429 -25.929 -14.561  0.00  0.00    +0.205 C 
BRANCH  10  11
ATOM     11  O   UNL     1      37.876 -26.426 -15.771  0.00  0.00    -0.375 OA
ATOM     12  H   UNL     1      37.160 -25.841 -16.063  0.00  0.00    +0.211 HD
ENDBRANCH  10  11
BRANCH  10  14
ATOM     13  O   UNL     1      40.527 -24.833 -14.017  0.00  0.00    -0.286 OA
ATOM     14  C   UNL     1      39.797 -25.348 -14.859  0.00  0.00    +0.239 C 
ENDBRANCH  10  14
ENDBRANCH   1  10
TORSDOF 8
ENDMDL
MODEL 5
REMARK VINA RESULT:      -5.3      1.583      4.407
REMARK  Name = 5311110
REMARK  8 active torsions:
REMARK  status: ('A' for Active; 'I' for Inactive)
REMARK    1  A    between atoms: C_1  and  O_2
REMARK    2  A    between atoms: C_1  and  C_4
REMARK    3  A    between atoms: C_1  and  C_10
REMARK    4  A    between atoms: C_4  and  O_5
REMARK    5  A    between atoms: C_4  and  C_7
REMARK    6  A    between atoms: C_7  and  O_8
REMARK    7  A    between atoms: C_10  and  O_11
REMARK    8  A    between atoms: C_10  and  C_14
REMARK                            x       y       z     vdW  Elec       q    Type
REMARK                         _______ _______ _______ _____ _____    ______ ____
ROOT
ATOM      1  C   UNL     1      37.732 -24.893 -12.394  0.00  0.00    +0.174 C 
ENDROOT
BRANCH   1   2
ATOM      2  O   UNL     1      37.133 -26.126 -11.994  0.00  0.00    -0.379 OA
ATOM      3  H   UNL     1      36.835 -26.610 -12.780  0.00  0.00    +0.211 HD
ENDBRANCH   1   2
BRANCH   1   4
ATOM      4  C   UNL     1      36.836 -23.731 -11.937  0.00  0.00    +0.169 C 
BRANCH   4   5
ATOM      5  O   UNL     1      37.598 -22.812 -11.154  0.00  0.00    -0.379 OA
ATOM      6  H   UNL     1      37.940 -22.106 -11.725  0.00  0.00    +0.211 HD
ENDBRANCH   4   5
BRANCH   4   7
ATOM      7  C   UNL     1      35.648 -24.213 -11.103  0.00  0.00    +0.169 C 
BRANCH   7   8
ATOM      8  O   UNL     1      36.043 -24.287  -9.737  0.00  0.00    -0.379 OA
ATOM      9  H   UNL     1      35.837 -25.169  -9.388  0.00  0.00    +0.211 HD
ENDBRANCH   7   8
ENDBRANCH   4   7
ENDBRANCH   1   4
BRANCH   1  10
ATOM     10  C   UNL     1      38.007 -24.920 -13.904  0.00  0.00    +0.205 C 
BRANCH  10  11
ATOM     11  O   UNL     1      39.395 -24.703 -14.113  0.00  0.00    -0.375 OA
ATOM     12  H   UNL     1      39.843 -25.556 -14.216  0.00  0.00    +0.211 HD
ENDBRANCH  10  11
BRANCH  10  14
ATOM     13  O   UNL     1      38.364 -27.219 -14.599  0.00  0.00    -0.286 OA
ATOM     14  C   UNL     1      37.624 -26.242 -14.539  0.00  0.00    +0.239 C 
ENDBRANCH  10  14
ENDBRANCH   1  10
TORSDOF 8
ENDMDL
MODEL 6
REMARK VINA RESULT:      -5.3      1.821      2.405
REMARK  Name = 5311110
REMARK  8 active torsions:
REMARK  status: ('A' for Active; 'I' for Inactive)
REMARK    1  A    between atoms: C_1  and  O_2
REMARK    2  A    between atoms: C_1  and  C_4
REMARK    3  A    between atoms: C_1  and  C_10
REMARK    4  A    between atoms: C_4  and  O_5
REMARK    5  A    between atoms: C_4  and  C_7
REMARK    6  A    between atoms: C_7  and  O_8
REMARK    7  A    between atoms: C_10  and  O_11
REMARK    8  A    between atoms: C_10  and  C_14
REMARK                            x       y       z     vdW  Elec       q    Type
REMARK                         _______ _______ _______ _____ _____    ______ ____
ROOT
ATOM      1  C   UNL     1      36.634 -25.432 -13.026  0.00  0.00    +0.174 C 
ENDROOT
BRANCH   1   2
ATOM      2  O   UNL     1      36.849 -26.483 -12.084  0.00  0.00    -0.379 OA
ATOM      3  H   UNL     1      36.007 -26.715 -11.661  0.00  0.00    +0.211 HD
ENDBRANCH   1   2
BRANCH   1   4
ATOM      4  C   UNL     1      37.993 -24.861 -13.458  0.00  0.00    +0.169 C 
BRANCH   4   5
ATOM      5  O   UNL     1      37.859 -23.476 -13.772  0.00  0.00    -0.379 OA
ATOM      6  H   UNL     1      38.458 -23.249 -14.501  0.00  0.00    +0.211 HD
ENDBRANCH   4   5
BRANCH   4   7
ATOM      7  C   UNL     1      38.559 -25.586 -14.681  0.00  0.00    +0.169 C 
BRANCH   7   8
ATOM      8  O   UNL     1      38.315 -26.982 -14.543  0.00  0.00    -0.379 OA
ATOM      9  H   UNL     1      37.456 -27.201 -14.937  0.00  0.00    +0.211 HD
ENDBRANCH   7   8
ENDBRANCH   4   7
ENDBRANCH   1   4
BRANCH   1  10
ATOM     10  C   UNL     1      35.677 -24.392 -12.427  0.00  0.00    +0.205 C 
BRANCH  10  11
ATOM     11  O   UNL     1      34.343 -24.791 -12.709  0.00  0.00    -0.375 OA
ATOM     12  H   UNL     1      33.769 -24.548 -11.966  0.00  0.00    +0.211 HD
ENDBRANCH  10  11
BRANCH  10  14
ATOM     13  O   UNL     1      35.278 -24.985 -10.106  0.00  0.00    -0.286 OA
ATOM     14  C   UNL     1      35.833 -24.258 -10.925  0.00  0.00    +0.239 C 
ENDBRANCH  10  14
ENDBRANCH   1  10
TORSDOF 8
ENDMDL
MODEL 7
REMARK VINA RESULT:      -5.2      1.560      2.321
REMARK  Name = 5311110
REMARK  8 active torsions:
REMARK  status: ('A' for Active; 'I' for Inactive)
REMARK    1  A    between atoms: C_1  and  O_2
REMARK    2  A    between atoms: C_1  and  C_4
REMARK    3  A    between atoms: C_1  and  C_10
REMARK    4  A    between atoms: C_4  and  O_5
REMARK    5  A    between atoms: C_4  and  C_7
REMARK    6  A    between atoms: C_7  and  O_8
REMARK    7  A    between atoms: C_10  and  O_11
REMARK    8  A    between atoms: C_10  and  C_14
REMARK                            x       y       z     vdW  Elec       q    Type
REMARK                         _______ _______ _______ _____ _____    ______ ____
ROOT
ATOM      1  C   UNL     1      37.878 -24.450 -14.721  0.00  0.00    +0.174 C 
ENDROOT
BRANCH   1   2
ATOM      2  O   UNL     1      38.535 -23.680 -15.728  0.00  0.00    -0.379 OA
ATOM      3  H   UNL     1      39.457 -23.972 -15.807  0.00  0.00    +0.211 HD
ENDBRANCH   1   2
BRANCH   1   4
ATOM      4  C   UNL     1      38.599 -25.798 -14.571  0.00  0.00    +0.169 C 
BRANCH   4   5
ATOM      5  O   UNL     1      38.319 -26.356 -13.288  0.00  0.00    -0.379 OA
ATOM      6  H   UNL     1      39.115 -26.790 -12.943  0.00  0.00    +0.211 HD
ENDBRANCH   4   5
BRANCH   4   7
ATOM      7  C   UNL     1      40.115 -25.660 -14.722  0.00  0.00    +0.169 C 
BRANCH   7   8
ATOM      8  O   UNL     1      40.474 -25.970 -16.066  0.00  0.00    -0.379 OA
ATOM      9  H   UNL     1      39.743 -26.441 -16.496  0.00  0.00    +0.211 HD
ENDBRANCH   7   8
ENDBRANCH   4   7
ENDBRANCH   1   4
BRANCH   1  10
ATOM     10  C   UNL     1      36.384 -24.568 -15.057  0.00  0.00    +0.205 C 
BRANCH  10  11
ATOM     11  O   UNL     1      36.141 -25.866 -15.581  0.00  0.00    -0.375 OA
ATOM     12  H   UNL     1      36.162 -25.832 -16.550  0.00  0.00    +0.211 HD
ENDBRANCH  10  11
BRANCH  10  14
ATOM     13  O   UNL     1      35.776 -24.760 -12.713  0.00  0.00    -0.286 OA
ATOM     14  C   UNL     1      35.500 -24.366 -13.842  0.00  0.00    +0.239 C 
ENDBRANCH  10  14
ENDBRANCH   1  10
TORSDOF 8
ENDMDL
MODEL 8
REMARK VINA RESULT:      -5.2     10.780     12.035
REMARK  Name = 5311110
REMARK  8 active torsions:
REMARK  status: ('A' for Active; 'I' for Inactive)
REMARK    1  A    between atoms: C_1  and  O_2
REMARK    2  A    between atoms: C_1  and  C_4
REMARK    3  A    between atoms: C_1  and  C_10
REMARK    4  A    between atoms: C_4  and  O_5
REMARK    5  A    between atoms: C_4  and  C_7
REMARK    6  A    between atoms: C_7  and  O_8
REMARK    7  A    between atoms: C_10  and  O_11
REMARK    8  A    between atoms: C_10  and  C_14
REMARK                            x       y       z     vdW  Elec       q    Type
REMARK                         _______ _______ _______ _____ _____    ______ ____
ROOT
ATOM      1  C   UNL     1      41.358 -14.715 -17.075  0.00  0.00    +0.174 C 
ENDROOT
BRANCH   1   2
ATOM      2  O   UNL     1      40.867 -14.210 -18.318  0.00  0.00    -0.379 OA
ATOM      3  H   UNL     1      40.447 -13.347 -18.172  0.00  0.00    +0.211 HD
ENDBRANCH   1   2
BRANCH   1   4
ATOM      4  C   UNL     1      41.517 -13.548 -16.089  0.00  0.00    +0.169 C 
BRANCH   4   5
ATOM      5  O   UNL     1      42.901 -13.255 -15.904  0.00  0.00    -0.379 OA
ATOM      6  H   UNL     1      43.145 -13.411 -14.978  0.00  0.00    +0.211 HD
ENDBRANCH   4   5
BRANCH   4   7
ATOM      7  C   UNL     1      40.899 -13.859 -14.724  0.00  0.00    +0.169 C 
BRANCH   7   8
ATOM      8  O   UNL     1      40.416 -15.199 -14.732  0.00  0.00    -0.379 OA
ATOM      9  H   UNL     1      39.734 -15.301 -14.050  0.00  0.00    +0.211 HD
ENDBRANCH   7   8
ENDBRANCH   4   7
ENDBRANCH   1   4
BRANCH   1  10
ATOM     10  C   UNL     1      42.646 -15.514 -17.317  0.00  0.00    +0.205 C 
BRANCH  10  11
ATOM     11  O   UNL     1      43.013 -16.156 -16.104  0.00  0.00    -0.375 OA
ATOM     12  H   UNL     1      42.401 -15.891 -15.400  0.00  0.00    +0.211 HD
ENDBRANCH  10  11
BRANCH  10  14
ATOM     13  O   UNL     1      42.286 -16.326 -19.578  0.00  0.00    -0.286 OA
ATOM     14  C   UNL     1      42.478 -16.572 -18.390  0.00  0.00    +0.239 C 
ENDBRANCH  10  14
ENDBRANCH   1  10
TORSDOF 8
ENDMDL
MODEL 9
REMARK VINA RESULT:      -5.1      1.921      3.750
REMARK  Name = 5311110
REMARK  8 active torsions:
REMARK  status: ('A' for Active; 'I' for Inactive)
REMARK    1  A    between atoms: C_1  and  O_2
REMARK    2  A    between atoms: C_1  and  C_4
REMARK    3  A    between atoms: C_1  and  C_10
REMARK    4  A    between atoms: C_4  and  O_5
REMARK    5  A    between atoms: C_4  and  C_7
REMARK    6  A    between atoms: C_7  and  O_8
REMARK    7  A    between atoms: C_10  and  O_11
REMARK    8  A    between atoms: C_10  and  C_14
REMARK                            x       y       z     vdW  Elec       q    Type
REMARK                         _______ _______ _______ _____ _____    ______ ____
ROOT
ATOM      1  C   UNL     1      37.754 -24.979 -14.933  0.00  0.00    +0.174 C 
ENDROOT
BRANCH   1   2
ATOM      2  O   UNL     1      37.969 -23.650 -14.459  0.00  0.00    -0.379 OA
ATOM      3  H   UNL     1      38.518 -23.677 -13.659  0.00  0.00    +0.211 HD
ENDBRANCH   1   2
BRANCH   1   4
ATOM      4  C   UNL     1      36.293 -25.374 -14.671  0.00  0.00    +0.169 C 
BRANCH   4   5
ATOM      5  O   UNL     1      35.937 -26.486 -15.492  0.00  0.00    -0.379 OA
ATOM      6  H   UNL     1      36.641 -26.648 -16.140  0.00  0.00    +0.211 HD
ENDBRANCH   4   5
BRANCH   4   7
ATOM      7  C   UNL     1      35.325 -24.225 -14.960  0.00  0.00    +0.169 C 
BRANCH   7   8
ATOM      8  O   UNL     1      35.633 -23.674 -16.237  0.00  0.00    -0.379 OA
ATOM      9  H   UNL     1      36.253 -22.935 -16.129  0.00  0.00    +0.211 HD
ENDBRANCH   7   8
ENDBRANCH   4   7
ENDBRANCH   1   4
BRANCH   1  10
ATOM     10  C   UNL     1      38.785 -25.925 -14.301  0.00  0.00    +0.205 C 
BRANCH  10  11
ATOM     11  O   UNL     1      38.454 -27.259 -14.660  0.00  0.00    -0.375 OA
ATOM     12  H   UNL     1      38.004 -27.691 -13.917  0.00  0.00    +0.211 HD
ENDBRANCH  10  11
BRANCH  10  14
ATOM     13  O   UNL     1      40.863 -24.671 -14.402  0.00  0.00    -0.286 OA
ATOM     14  C   UNL     1      40.198 -25.636 -14.767  0.00  0.00    +0.239 C 
ENDBRANCH  10  14
ENDBRANCH   1  10
TORSDOF 8
ENDMDL
