MODEL 1
REMARK VINA RESULT:     -12.0      0.000      0.000
REMARK  Name = 447734
REMARK  5 active torsions:
REMARK  status: ('A' for Active; 'I' for Inactive)
REMARK    1  A    between atoms: C_3  and  C_19
REMARK    2  A    between atoms: C_9  and  C_13
REMARK    3  A    between atoms: N_18  and  C_24
REMARK    4  A    between atoms: C_21  and  O_27
REMARK    5  A    between atoms: O_27  and  C_28
REMARK                            x       y       z     vdW  Elec       q    Type
REMARK                         _______ _______ _______ _____ _____    ______ ____
ROOT
ATOM      1  C   UNL     1      36.161 -22.026 -17.601  0.00  0.00    +0.000 C 
ATOM      2  C   UNL     1      34.890 -22.643 -17.525  0.00  0.00    +0.000 C 
ATOM      3  C   UNL     1      35.467 -20.871 -19.626  0.00  0.00    +0.054 C 
ATOM      4  C   UNL     1      36.433 -21.143 -18.659  0.00  0.00    +0.005 C 
ATOM      5  C   UNL     1      33.928 -22.358 -18.508  0.00  0.00    +0.000 C 
ATOM      6  C   UNL     1      34.216 -21.477 -19.551  0.00  0.00    +0.005 C 
ATOM      7  C   UNL     1      34.617 -23.527 -16.468  0.00  0.00    +0.003 C 
ATOM      8  C   UNL     1      37.123 -22.312 -16.618  0.00  0.00    +0.000 C 
ATOM      9  C   UNL     1      35.584 -23.798 -15.499  0.00  0.00    +0.031 C 
ATOM     10  C   UNL     1      36.835 -23.191 -15.574  0.00  0.00    +0.003 C 
ENDROOT
BRANCH   9  13
ATOM     11  N   UNL     1      36.193 -25.700 -14.025  0.00  0.00    -0.343 N 
ATOM     12  N   UNL     1      34.133 -24.626 -13.772  0.00  0.00    -0.285 NA
ATOM     13  C   UNL     1      35.286 -24.715 -14.411  0.00  0.00    +0.117 C 
ATOM     14  H   UNL     1      35.971 -26.311 -13.284  0.00  0.00    +0.144 HD
ATOM     15  H   UNL     1      37.056 -25.785 -14.491  0.00  0.00    +0.144 HD
ATOM     16  H   UNL     1      33.929 -25.246 -13.035  0.00  0.00    +0.188 HD
ENDBRANCH   9  13
BRANCH   3  19
ATOM     17  O   UNL     1      36.926 -19.534 -20.849  0.00  0.00    -0.270 OA
ATOM     18  N   UNL     1      34.691 -19.635 -21.558  0.00  0.00    -0.280 N 
ATOM     19  C   UNL     1      35.765 -19.954 -20.715  0.00  0.00    +0.249 C 
ATOM     20  H   UNL     1      33.828 -20.045 -21.324  0.00  0.00    +0.155 HD
BRANCH  18  24
ATOM     21  C   UNL     1      34.545 -16.606 -23.661  0.00  0.00    +0.140 C 
ATOM     22  C   UNL     1      34.551 -17.429 -22.536  0.00  0.00    +0.052 C 
ATOM     23  C   UNL     1      34.673 -17.163 -24.934  0.00  0.00    +0.037 C 
ATOM     24  C   UNL     1      34.686 -18.798 -22.700  0.00  0.00    +0.054 C 
ATOM     25  C   UNL     1      34.806 -18.543 -25.081  0.00  0.00    +0.004 C 
ATOM     26  C   UNL     1      34.813 -19.367 -23.956  0.00  0.00    +0.015 C 
BRANCH  21  27
ATOM     27  O   UNL     1      34.414 -15.259 -23.519  0.00  0.00    -0.479 OA
BRANCH  27  28
ATOM     28  C   UNL     1      33.113 -14.713 -23.700  0.00  0.00    +0.166 C 
ATOM     29  C   UNL     1      32.986 -14.168 -25.115  0.00  0.00    +0.044 C 
ATOM     30  C   UNL     1      32.935 -13.473 -22.837  0.00  0.00    +0.044 C 
ATOM     31  C   UNL     1      33.682 -12.808 -25.065  0.00  0.00    +0.004 C 
ATOM     32  C   UNL     1      33.676 -12.377 -23.598  0.00  0.00    +0.004 C 
ENDBRANCH  27  28
ENDBRANCH  21  27
ENDBRANCH  18  24
ENDBRANCH   3  19
TORSDOF 5
ENDMDL
MODEL 2
REMARK VINA RESULT:     -11.6      1.075      1.699
REMARK  Name = 447734
REMARK  5 active torsions:
REMARK  status: ('A' for Active; 'I' for Inactive)
REMARK    1  A    between atoms: C_3  and  C_19
REMARK    2  A    between atoms: C_9  and  C_13
REMARK    3  A    between atoms: N_18  and  C_24
REMARK    4  A    between atoms: C_21  and  O_27
REMARK    5  A    between atoms: O_27  and  C_28
REMARK                            x       y       z     vdW  Elec       q    Type
REMARK                         _______ _______ _______ _____ _____    ______ ____
ROOT
ATOM      1  C   UNL     1      33.869 -22.352 -18.006  0.00  0.00    +0.000 C 
ATOM      2  C   UNL     1      35.243 -22.396 -17.670  0.00  0.00    +0.000 C 
ATOM      3  C   UNL     1      34.388 -20.902 -19.888  0.00  0.00    +0.054 C 
ATOM      4  C   UNL     1      33.459 -21.600 -19.118  0.00  0.00    +0.005 C 
ATOM      5  C   UNL     1      36.166 -21.687 -18.455  0.00  0.00    +0.000 C 
ATOM      6  C   UNL     1      35.740 -20.945 -19.557  0.00  0.00    +0.005 C 
ATOM      7  C   UNL     1      35.654 -23.148 -16.556  0.00  0.00    +0.003 C 
ATOM      8  C   UNL     1      32.947 -23.061 -17.219  0.00  0.00    +0.000 C 
ATOM      9  C   UNL     1      34.724 -23.847 -15.786  0.00  0.00    +0.031 C 
ATOM     10  C   UNL     1      33.373 -23.804 -16.117  0.00  0.00    +0.003 C 
ENDROOT
BRANCH   9  13
ATOM     11  N   UNL     1      36.293 -25.439 -14.704  0.00  0.00    -0.343 N 
ATOM     12  N   UNL     1      34.491 -24.561 -13.504  0.00  0.00    -0.285 NA
ATOM     13  C   UNL     1      35.166 -24.621 -14.637  0.00  0.00    +0.117 C 
ATOM     14  H   UNL     1      36.575 -25.954 -13.914  0.00  0.00    +0.144 HD
ATOM     15  H   UNL     1      36.808 -25.500 -15.541  0.00  0.00    +0.144 HD
ATOM     16  H   UNL     1      34.788 -25.083 -12.725  0.00  0.00    +0.188 HD
ENDBRANCH   9  13
BRANCH   3  19
ATOM     17  O   UNL     1      32.737 -20.101 -21.318  0.00  0.00    -0.270 OA
ATOM     18  N   UNL     1      34.950 -19.438 -21.732  0.00  0.00    -0.280 N 
ATOM     19  C   UNL     1      33.947 -20.127 -21.037  0.00  0.00    +0.249 C 
ATOM     20  H   UNL     1      35.865 -19.556 -21.391  0.00  0.00    +0.155 HD
BRANCH  18  24
ATOM     21  C   UNL     1      34.584 -16.394 -23.789  0.00  0.00    +0.140 C 
ATOM     22  C   UNL     1      34.716 -17.225 -22.677  0.00  0.00    +0.052 C 
ATOM     23  C   UNL     1      34.558 -16.945 -25.071  0.00  0.00    +0.037 C 
ATOM     24  C   UNL     1      34.818 -18.594 -22.862  0.00  0.00    +0.054 C 
ATOM     25  C   UNL     1      34.661 -18.325 -25.240  0.00  0.00    +0.004 C 
ATOM     26  C   UNL     1      34.793 -19.156 -24.127  0.00  0.00    +0.015 C 
BRANCH  21  27
ATOM     27  O   UNL     1      34.483 -15.048 -23.625  0.00  0.00    -0.479 OA
BRANCH  27  28
ATOM     28  C   UNL     1      33.182 -14.481 -23.720  0.00  0.00    +0.166 C 
ATOM     29  C   UNL     1      32.912 -14.073 -25.160  0.00  0.00    +0.044 C 
ATOM     30  C   UNL     1      33.125 -13.158 -22.972  0.00  0.00    +0.044 C 
ATOM     31  C   UNL     1      33.637 -12.737 -25.322  0.00  0.00    +0.004 C 
ATOM     32  C   UNL     1      33.801 -12.165 -23.914  0.00  0.00    +0.004 C 
ENDBRANCH  27  28
ENDBRANCH  21  27
ENDBRANCH  18  24
ENDBRANCH   3  19
TORSDOF 5
ENDMDL
MODEL 3
REMARK VINA RESULT:     -11.6      2.374      4.574
REMARK  Name = 447734
REMARK  5 active torsions:
REMARK  status: ('A' for Active; 'I' for Inactive)
REMARK    1  A    between atoms: C_3  and  C_19
REMARK    2  A    between atoms: C_9  and  C_13
REMARK    3  A    between atoms: N_18  and  C_24
REMARK    4  A    between atoms: C_21  and  O_27
REMARK    5  A    between atoms: O_27  and  C_28
REMARK                            x       y       z     vdW  Elec       q    Type
REMARK                         _______ _______ _______ _____ _____    ______ ____
ROOT
ATOM      1  C   UNL     1      33.983 -19.752 -20.962  0.00  0.00    +0.000 C 
ATOM      2  C   UNL     1      35.273 -20.083 -20.482  0.00  0.00    +0.000 C 
ATOM      3  C   UNL     1      34.978 -18.136 -22.484  0.00  0.00    +0.054 C 
ATOM      4  C   UNL     1      33.854 -18.776 -21.964  0.00  0.00    +0.005 C 
ATOM      5  C   UNL     1      36.394 -19.428 -21.016  0.00  0.00    +0.000 C 
ATOM      6  C   UNL     1      36.247 -18.461 -22.011  0.00  0.00    +0.005 C 
ATOM      7  C   UNL     1      35.402 -21.059 -19.479  0.00  0.00    +0.003 C 
ATOM      8  C   UNL     1      32.862 -20.406 -20.427  0.00  0.00    +0.000 C 
ATOM      9  C   UNL     1      34.277 -21.700 -18.960  0.00  0.00    +0.031 C 
ATOM     10  C   UNL     1      33.009 -21.374 -19.433  0.00  0.00    +0.003 C 
ENDROOT
BRANCH   9  13
ATOM     11  N   UNL     1      33.396 -23.591 -17.614  0.00  0.00    -0.343 N 
ATOM     12  N   UNL     1      35.562 -22.795 -17.250  0.00  0.00    -0.285 NA
ATOM     13  C   UNL     1      34.429 -22.708 -17.923  0.00  0.00    +0.117 C 
ATOM     14  H   UNL     1      33.520 -24.267 -16.908  0.00  0.00    +0.144 HD
ATOM     15  H   UNL     1      32.542 -23.540 -18.102  0.00  0.00    +0.144 HD
ATOM     16  H   UNL     1      35.667 -23.478 -16.548  0.00  0.00    +0.188 HD
ENDBRANCH   9  13
BRANCH   3  19
ATOM     17  O   UNL     1      35.231 -17.375 -24.668  0.00  0.00    -0.270 OA
ATOM     18  N   UNL     1      34.199 -15.936 -23.127  0.00  0.00    -0.280 N 
ATOM     19  C   UNL     1      34.827 -17.126 -23.520  0.00  0.00    +0.249 C 
ATOM     20  H   UNL     1      33.935 -15.884 -22.181  0.00  0.00    +0.155 HD
BRANCH  18  24
ATOM     21  C   UNL     1      33.790 -12.415 -24.156  0.00  0.00    +0.140 C 
ATOM     22  C   UNL     1      34.090 -13.535 -23.381  0.00  0.00    +0.052 C 
ATOM     23  C   UNL     1      33.303 -12.575 -25.453  0.00  0.00    +0.037 C 
ATOM     24  C   UNL     1      33.897 -14.798 -23.915  0.00  0.00    +0.054 C 
ATOM     25  C   UNL     1      33.113 -13.854 -25.975  0.00  0.00    +0.004 C 
ATOM     26  C   UNL     1      33.413 -14.974 -25.200  0.00  0.00    +0.015 C 
BRANCH  21  27
ATOM     27  O   UNL     1      33.974 -11.166 -23.648  0.00  0.00    -0.479 OA
BRANCH  27  28
ATOM     28  C   UNL     1      33.502 -10.074 -24.427  0.00  0.00    +0.166 C 
ATOM     29  C   UNL     1      34.595  -9.022 -24.537  0.00  0.00    +0.044 C 
ATOM     30  C   UNL     1      32.391  -9.341 -23.694  0.00  0.00    +0.044 C 
ATOM     31  C   UNL     1      34.527  -8.261 -23.212  0.00  0.00    +0.004 C 
ATOM     32  C   UNL     1      33.122  -8.492 -22.657  0.00  0.00    +0.004 C 
ENDBRANCH  27  28
ENDBRANCH  21  27
ENDBRANCH  18  24
ENDBRANCH   3  19
TORSDOF 5
ENDMDL
MODEL 4
REMARK VINA RESULT:     -11.6      3.335     10.766
REMARK  Name = 447734
REMARK  5 active torsions:
REMARK  status: ('A' for Active; 'I' for Inactive)
REMARK    1  A    between atoms: C_3  and  C_19
REMARK    2  A    between atoms: C_9  and  C_13
REMARK    3  A    between atoms: N_18  and  C_24
REMARK    4  A    between atoms: C_21  and  O_27
REMARK    5  A    between atoms: O_27  and  C_28
REMARK                            x       y       z     vdW  Elec       q    Type
REMARK                         _______ _______ _______ _____ _____    ______ ____
ROOT
ATOM      1  C   UNL     1      35.179 -20.053 -20.595  0.00  0.00    +0.000 C 
ATOM      2  C   UNL     1      33.962 -19.590 -21.148  0.00  0.00    +0.000 C 
ATOM      3  C   UNL     1      33.943 -21.659 -19.249  0.00  0.00    +0.054 C 
ATOM      4  C   UNL     1      35.152 -21.088 -19.647  0.00  0.00    +0.005 C 
ATOM      5  C   UNL     1      32.753 -20.175 -20.737  0.00  0.00    +0.000 C 
ATOM      6  C   UNL     1      32.746 -21.203 -19.793  0.00  0.00    +0.005 C 
ATOM      7  C   UNL     1      33.988 -18.554 -22.097  0.00  0.00    +0.003 C 
ATOM      8  C   UNL     1      36.387 -19.467 -21.007  0.00  0.00    +0.000 C 
ATOM      9  C   UNL     1      35.198 -17.984 -22.496  0.00  0.00    +0.031 C 
ATOM     10  C   UNL     1      36.395 -18.440 -21.951  0.00  0.00    +0.003 C 
ENDROOT
BRANCH   9  13
ATOM     11  N   UNL     1      35.186 -17.184 -24.846  0.00  0.00    -0.343 N 
ATOM     12  N   UNL     1      35.244 -15.654 -23.080  0.00  0.00    -0.285 NA
ATOM     13  C   UNL     1      35.208 -16.913 -23.479  0.00  0.00    +0.117 C 
ATOM     14  H   UNL     1      35.193 -16.443 -25.494  0.00  0.00    +0.144 HD
ATOM     15  H   UNL     1      35.162 -18.116 -25.163  0.00  0.00    +0.144 HD
ATOM     16  H   UNL     1      35.250 -14.927 -23.744  0.00  0.00    +0.188 HD
ENDBRANCH   9  13
BRANCH   3  19
ATOM     17  O   UNL     1      33.846 -23.906 -18.655  0.00  0.00    -0.270 OA
ATOM     18  N   UNL     1      34.049 -22.331 -16.926  0.00  0.00    -0.280 N 
ATOM     19  C   UNL     1      33.933 -22.730 -18.265  0.00  0.00    +0.249 C 
ATOM     20  H   UNL     1      34.109 -21.361 -16.773  0.00  0.00    +0.155 HD
BRANCH  18  24
ATOM     21  C   UNL     1      35.349 -24.163 -13.998  0.00  0.00    +0.140 C 
ATOM     22  C   UNL     1      35.307 -23.363 -15.139  0.00  0.00    +0.052 C 
ATOM     23  C   UNL     1      34.176 -24.730 -13.500  0.00  0.00    +0.037 C 
ATOM     24  C   UNL     1      34.092 -23.142 -15.766  0.00  0.00    +0.054 C 
ATOM     25  C   UNL     1      32.961 -24.498 -14.144  0.00  0.00    +0.004 C 
ATOM     26  C   UNL     1      32.919 -23.698 -15.285  0.00  0.00    +0.015 C 
BRANCH  21  27
ATOM     27  O   UNL     1      36.534 -24.391 -13.369  0.00  0.00    -0.479 OA
BRANCH  27  28
ATOM     28  C   UNL     1      36.935 -25.747 -13.215  0.00  0.00    +0.166 C 
ATOM     29  C   UNL     1      38.241 -25.803 -12.438  0.00  0.00    +0.044 C 
ATOM     30  C   UNL     1      37.311 -26.344 -14.562  0.00  0.00    +0.044 C 
ATOM     31  C   UNL     1      39.318 -25.476 -13.473  0.00  0.00    +0.004 C 
ATOM     32  C   UNL     1      38.709 -25.794 -14.839  0.00  0.00    +0.004 C 
ENDBRANCH  27  28
ENDBRANCH  21  27
ENDBRANCH  18  24
ENDBRANCH   3  19
TORSDOF 5
ENDMDL
MODEL 5
REMARK VINA RESULT:     -11.3      5.091     11.636
REMARK  Name = 447734
REMARK  5 active torsions:
REMARK  status: ('A' for Active; 'I' for Inactive)
REMARK    1  A    between atoms: C_3  and  C_19
REMARK    2  A    between atoms: C_9  and  C_13
REMARK    3  A    between atoms: N_18  and  C_24
REMARK    4  A    between atoms: C_21  and  O_27
REMARK    5  A    between atoms: O_27  and  C_28
REMARK                            x       y       z     vdW  Elec       q    Type
REMARK                         _______ _______ _______ _____ _____    ______ ____
ROOT
ATOM      1  C   UNL     1      32.702 -10.191 -22.937  0.00  0.00    +0.000 C 
ATOM      2  C   UNL     1      31.940  -9.767 -21.823  0.00  0.00    +0.000 C 
ATOM      3  C   UNL     1      32.422 -12.503 -22.233  0.00  0.00    +0.054 C 
ATOM      4  C   UNL     1      32.934 -11.563 -23.127  0.00  0.00    +0.005 C 
ATOM      5  C   UNL     1      31.431 -10.726 -20.932  0.00  0.00    +0.000 C 
ATOM      6  C   UNL     1      31.672 -12.085 -21.137  0.00  0.00    +0.005 C 
ATOM      7  C   UNL     1      31.708  -8.394 -21.632  0.00  0.00    +0.003 C 
ATOM      8  C   UNL     1      33.210  -9.231 -23.827  0.00  0.00    +0.000 C 
ATOM      9  C   UNL     1      32.219  -7.455 -22.527  0.00  0.00    +0.031 C 
ATOM     10  C   UNL     1      32.969  -7.872 -23.623  0.00  0.00    +0.003 C 
ENDROOT
BRANCH   9  13
ATOM     11  N   UNL     1      31.736  -5.175 -23.385  0.00  0.00    -0.343 N 
ATOM     12  N   UNL     1      31.969  -5.546 -21.089  0.00  0.00    -0.285 NA
ATOM     13  C   UNL     1      31.970  -6.038 -22.315  0.00  0.00    +0.117 C 
ATOM     14  H   UNL     1      31.568  -4.219 -23.219  0.00  0.00    +0.144 HD
ATOM     15  H   UNL     1      31.736  -5.522 -24.306  0.00  0.00    +0.144 HD
ATOM     16  H   UNL     1      31.800  -4.587 -20.944  0.00  0.00    +0.188 HD
ENDBRANCH   9  13
BRANCH   3  19
ATOM     17  O   UNL     1      32.034 -14.751 -21.777  0.00  0.00    -0.270 OA
ATOM     18  N   UNL     1      33.620 -14.234 -23.428  0.00  0.00    -0.280 N 
ATOM     19  C   UNL     1      32.672 -13.920 -22.444  0.00  0.00    +0.249 C 
ATOM     20  H   UNL     1      34.044 -13.466 -23.873  0.00  0.00    +0.155 HD
BRANCH  18  24
ATOM     21  C   UNL     1      35.247 -17.547 -23.451  0.00  0.00    +0.140 C 
ATOM     22  C   UNL     1      34.825 -16.290 -23.021  0.00  0.00    +0.052 C 
ATOM     23  C   UNL     1      34.885 -18.009 -24.716  0.00  0.00    +0.037 C 
ATOM     24  C   UNL     1      34.047 -15.512 -23.863  0.00  0.00    +0.054 C 
ATOM     25  C   UNL     1      34.102 -17.213 -25.552  0.00  0.00    +0.004 C 
ATOM     26  C   UNL     1      33.680 -15.956 -25.123  0.00  0.00    +0.015 C 
BRANCH  21  27
ATOM     27  O   UNL     1      36.011 -18.324 -22.636  0.00  0.00    -0.479 OA
BRANCH  27  28
ATOM     28  C   UNL     1      35.746 -18.254 -21.241  0.00  0.00    +0.166 C 
ATOM     29  C   UNL     1      36.514 -19.355 -20.525  0.00  0.00    +0.044 C 
ATOM     30  C   UNL     1      34.295 -18.609 -20.958  0.00  0.00    +0.044 C 
ATOM     31  C   UNL     1      35.673 -20.613 -20.743  0.00  0.00    +0.004 C 
ATOM     32  C   UNL     1      34.256 -20.132 -21.053  0.00  0.00    +0.004 C 
ENDBRANCH  27  28
ENDBRANCH  21  27
ENDBRANCH  18  24
ENDBRANCH   3  19
TORSDOF 5
ENDMDL
MODEL 6
REMARK VINA RESULT:     -11.3      3.441     10.587
REMARK  Name = 447734
REMARK  5 active torsions:
REMARK  status: ('A' for Active; 'I' for Inactive)
REMARK    1  A    between atoms: C_3  and  C_19
REMARK    2  A    between atoms: C_9  and  C_13
REMARK    3  A    between atoms: N_18  and  C_24
REMARK    4  A    between atoms: C_21  and  O_27
REMARK    5  A    between atoms: O_27  and  C_28
REMARK                            x       y       z     vdW  Elec       q    Type
REMARK                         _______ _______ _______ _____ _____    ______ ____
ROOT
ATOM      1  C   UNL     1      35.121 -20.008 -20.700  0.00  0.00    +0.000 C 
ATOM      2  C   UNL     1      33.904 -19.668 -21.337  0.00  0.00    +0.000 C 
ATOM      3  C   UNL     1      33.910 -21.503 -19.211  0.00  0.00    +0.054 C 
ATOM      4  C   UNL     1      35.107 -20.927 -19.638  0.00  0.00    +0.005 C 
ATOM      5  C   UNL     1      32.709 -20.257 -20.894  0.00  0.00    +0.000 C 
ATOM      6  C   UNL     1      32.713 -21.168 -19.838  0.00  0.00    +0.005 C 
ATOM      7  C   UNL     1      33.918 -18.749 -22.399  0.00  0.00    +0.003 C 
ATOM      8  C   UNL     1      36.316 -19.419 -21.144  0.00  0.00    +0.000 C 
ATOM      9  C   UNL     1      35.115 -18.174 -22.827  0.00  0.00    +0.031 C 
ATOM     10  C   UNL     1      36.312 -18.508 -22.201  0.00  0.00    +0.003 C 
ENDROOT
BRANCH   9  13
ATOM     11  N   UNL     1      34.671 -17.588 -25.199  0.00  0.00    -0.343 N 
ATOM     12  N   UNL     1      35.540 -15.989 -23.733  0.00  0.00    -0.285 NA
ATOM     13  C   UNL     1      35.112 -17.224 -23.928  0.00  0.00    +0.117 C 
ATOM     14  H   UNL     1      34.677 -16.929 -25.930  0.00  0.00    +0.144 HD
ATOM     15  H   UNL     1      34.352 -18.505 -25.365  0.00  0.00    +0.144 HD
ATOM     16  H   UNL     1      35.538 -15.344 -24.477  0.00  0.00    +0.188 HD
ENDBRANCH   9  13
BRANCH   3  19
ATOM     17  O   UNL     1      34.927 -23.139 -17.906  0.00  0.00    -0.270 OA
ATOM     18  N   UNL     1      32.745 -22.493 -17.335  0.00  0.00    -0.280 N 
ATOM     19  C   UNL     1      33.913 -22.452 -18.109  0.00  0.00    +0.249 C 
ATOM     20  H   UNL     1      32.022 -21.889 -17.619  0.00  0.00    +0.155 HD
BRANCH  18  24
ATOM     21  C   UNL     1      33.184 -24.257 -14.122  0.00  0.00    +0.140 C 
ATOM     22  C   UNL     1      33.454 -23.470 -15.241  0.00  0.00    +0.052 C 
ATOM     23  C   UNL     1      31.931 -24.854 -13.976  0.00  0.00    +0.037 C 
ATOM     24  C   UNL     1      32.469 -23.291 -16.197  0.00  0.00    +0.054 C 
ATOM     25  C   UNL     1      30.951 -24.664 -14.950  0.00  0.00    +0.004 C 
ATOM     26  C   UNL     1      31.221 -23.877 -16.068  0.00  0.00    +0.015 C 
BRANCH  21  27
ATOM     27  O   UNL     1      34.140 -24.442 -13.172  0.00  0.00    -0.479 OA
BRANCH  27  28
ATOM     28  C   UNL     1      35.437 -23.929 -13.451  0.00  0.00    +0.166 C 
ATOM     29  C   UNL     1      36.370 -25.077 -13.806  0.00  0.00    +0.044 C 
ATOM     30  C   UNL     1      36.062 -23.356 -12.189  0.00  0.00    +0.044 C 
ATOM     31  C   UNL     1      36.766 -25.679 -12.458  0.00  0.00    +0.004 C 
ATOM     32  C   UNL     1      36.539 -24.584 -11.416  0.00  0.00    +0.004 C 
ENDBRANCH  27  28
ENDBRANCH  21  27
ENDBRANCH  18  24
ENDBRANCH   3  19
TORSDOF 5
ENDMDL
MODEL 7
REMARK VINA RESULT:     -11.3      1.582      2.107
REMARK  Name = 447734
REMARK  5 active torsions:
REMARK  status: ('A' for Active; 'I' for Inactive)
REMARK    1  A    between atoms: C_3  and  C_19
REMARK    2  A    between atoms: C_9  and  C_13
REMARK    3  A    between atoms: N_18  and  C_24
REMARK    4  A    between atoms: C_21  and  O_27
REMARK    5  A    between atoms: O_27  and  C_28
REMARK                            x       y       z     vdW  Elec       q    Type
REMARK                         _______ _______ _______ _____ _____    ______ ____
ROOT
ATOM      1  C   UNL     1      35.928 -22.455 -17.106  0.00  0.00    +0.000 C 
ATOM      2  C   UNL     1      34.946 -23.306 -16.547  0.00  0.00    +0.000 C 
ATOM      3  C   UNL     1      34.329 -21.740 -18.795  0.00  0.00    +0.054 C 
ATOM      4  C   UNL     1      35.603 -21.678 -18.231  0.00  0.00    +0.005 C 
ATOM      5  C   UNL     1      33.668 -23.357 -17.128  0.00  0.00    +0.000 C 
ATOM      6  C   UNL     1      33.363 -22.578 -18.245  0.00  0.00    +0.005 C 
ATOM      7  C   UNL     1      35.270 -24.084 -15.422  0.00  0.00    +0.003 C 
ATOM      8  C   UNL     1      37.205 -22.405 -16.525  0.00  0.00    +0.000 C 
ATOM      9  C   UNL     1      36.544 -24.021 -14.857  0.00  0.00    +0.031 C 
ATOM     10  C   UNL     1      37.510 -23.183 -15.408  0.00  0.00    +0.003 C 
ENDROOT
BRANCH   9  13
ATOM     11  N   UNL     1      38.184 -25.097 -13.336  0.00  0.00    -0.343 N 
ATOM     12  N   UNL     1      35.891 -25.337 -12.956  0.00  0.00    -0.285 NA
ATOM     13  C   UNL     1      36.864 -24.832 -13.693  0.00  0.00    +0.117 C 
ATOM     14  H   UNL     1      38.378 -25.649 -12.543  0.00  0.00    +0.144 HD
ATOM     15  H   UNL     1      38.923 -24.732 -13.875  0.00  0.00    +0.144 HD
ATOM     16  H   UNL     1      36.106 -25.886 -12.167  0.00  0.00    +0.188 HD
ENDBRANCH   9  13
BRANCH   3  19
ATOM     17  O   UNL     1      32.873 -21.007 -20.455  0.00  0.00    -0.270 OA
ATOM     18  N   UNL     1      35.033 -20.090 -20.420  0.00  0.00    -0.280 N 
ATOM     19  C   UNL     1      34.010 -20.930 -19.960  0.00  0.00    +0.249 C 
ATOM     20  H   UNL     1      35.882 -20.139 -19.925  0.00  0.00    +0.155 HD
BRANCH  18  24
ATOM     21  C   UNL     1      34.647 -16.962 -22.341  0.00  0.00    +0.140 C 
ATOM     22  C   UNL     1      34.676 -17.856 -21.272  0.00  0.00    +0.052 C 
ATOM     23  C   UNL     1      34.948 -17.405 -23.629  0.00  0.00    +0.037 C 
ATOM     24  C   UNL     1      35.005 -19.181 -21.506  0.00  0.00    +0.054 C 
ATOM     25  C   UNL     1      35.278 -18.742 -23.847  0.00  0.00    +0.004 C 
ATOM     26  C   UNL     1      35.307 -19.637 -22.778  0.00  0.00    +0.015 C 
BRANCH  21  27
ATOM     27  O   UNL     1      34.325 -15.657 -22.129  0.00  0.00    -0.479 OA
BRANCH  27  28
ATOM     28  C   UNL     1      32.953 -15.301 -22.249  0.00  0.00    +0.166 C 
ATOM     29  C   UNL     1      32.823 -13.785 -22.258  0.00  0.00    +0.044 C 
ATOM     30  C   UNL     1      32.190 -15.704 -20.997  0.00  0.00    +0.044 C 
ATOM     31  C   UNL     1      32.922 -13.384 -20.786  0.00  0.00    +0.004 C 
ATOM     32  C   UNL     1      32.546 -14.625 -19.977  0.00  0.00    +0.004 C 
ENDBRANCH  27  28
ENDBRANCH  21  27
ENDBRANCH  18  24
ENDBRANCH   3  19
TORSDOF 5
ENDMDL
MODEL 8
REMARK VINA RESULT:     -11.1      3.154     10.357
REMARK  Name = 447734
REMARK  5 active torsions:
REMARK  status: ('A' for Active; 'I' for Inactive)
REMARK    1  A    between atoms: C_3  and  C_19
REMARK    2  A    between atoms: C_9  and  C_13
REMARK    3  A    between atoms: N_18  and  C_24
REMARK    4  A    between atoms: C_21  and  O_27
REMARK    5  A    between atoms: O_27  and  C_28
REMARK                            x       y       z     vdW  Elec       q    Type
REMARK                         _______ _______ _______ _____ _____    ______ ____
ROOT
ATOM      1  C   UNL     1      34.510 -16.711 -22.755  0.00  0.00    +0.000 C 
ATOM      2  C   UNL     1      34.441 -17.278 -24.049  0.00  0.00    +0.000 C 
ATOM      3  C   UNL     1      35.127 -18.883 -21.850  0.00  0.00    +0.054 C 
ATOM      4  C   UNL     1      34.855 -17.528 -21.665  0.00  0.00    +0.005 C 
ATOM      5  C   UNL     1      34.719 -18.644 -24.217  0.00  0.00    +0.000 C 
ATOM      6  C   UNL     1      35.059 -19.440 -23.123  0.00  0.00    +0.005 C 
ATOM      7  C   UNL     1      34.097 -16.460 -25.139  0.00  0.00    +0.003 C 
ATOM      8  C   UNL     1      34.233 -15.344 -22.587  0.00  0.00    +0.000 C 
ATOM      9  C   UNL     1      33.825 -15.105 -24.955  0.00  0.00    +0.031 C 
ATOM     10  C   UNL     1      33.893 -14.547 -23.681  0.00  0.00    +0.003 C 
ENDROOT
BRANCH   9  13
ATOM     11  N   UNL     1      33.389 -12.886 -25.981  0.00  0.00    -0.343 N 
ATOM     12  N   UNL     1      33.212 -14.832 -27.262  0.00  0.00    -0.285 NA
ATOM     13  C   UNL     1      33.470 -14.273 -26.094  0.00  0.00    +0.117 C 
ATOM     14  H   UNL     1      33.147 -12.342 -26.765  0.00  0.00    +0.144 HD
ATOM     15  H   UNL     1      33.574 -12.451 -25.117  0.00  0.00    +0.144 HD
ATOM     16  H   UNL     1      32.972 -14.271 -28.035  0.00  0.00    +0.188 HD
ENDBRANCH   9  13
BRANCH   3  19
ATOM     17  O   UNL     1      36.622 -19.624 -20.228  0.00  0.00    -0.270 OA
ATOM     18  N   UNL     1      34.468 -20.555 -20.228  0.00  0.00    -0.280 N 
ATOM     19  C   UNL     1      35.481 -19.715 -20.711  0.00  0.00    +0.249 C 
ATOM     20  H   UNL     1      33.614 -20.518 -20.716  0.00  0.00    +0.155 HD
BRANCH  18  24
ATOM     21  C   UNL     1      33.387 -22.935 -17.622  0.00  0.00    +0.140 C 
ATOM     22  C   UNL     1      33.343 -22.056 -18.704  0.00  0.00    +0.052 C 
ATOM     23  C   UNL     1      34.600 -23.194 -16.984  0.00  0.00    +0.037 C 
ATOM     24  C   UNL     1      34.512 -21.449 -19.130  0.00  0.00    +0.054 C 
ATOM     25  C   UNL     1      35.768 -22.574 -17.426  0.00  0.00    +0.004 C 
ATOM     26  C   UNL     1      35.724 -21.695 -18.507  0.00  0.00    +0.015 C 
BRANCH  21  27
ATOM     27  O   UNL     1      32.248 -23.540 -17.190  0.00  0.00    -0.479 OA
BRANCH  27  28
ATOM     28  C   UNL     1      31.436 -22.813 -16.275  0.00  0.00    +0.166 C 
ATOM     29  C   UNL     1      31.747 -23.262 -14.856  0.00  0.00    +0.044 C 
ATOM     30  C   UNL     1      29.974 -23.197 -16.444  0.00  0.00    +0.044 C 
ATOM     31  C   UNL     1      30.974 -24.570 -14.689  0.00  0.00    +0.004 C 
ATOM     32  C   UNL     1      29.855 -24.541 -15.730  0.00  0.00    +0.004 C 
ENDBRANCH  27  28
ENDBRANCH  21  27
ENDBRANCH  18  24
ENDBRANCH   3  19
TORSDOF 5
ENDMDL
MODEL 9
REMARK VINA RESULT:     -10.8      1.256      2.049
REMARK  Name = 447734
REMARK  5 active torsions:
REMARK  status: ('A' for Active; 'I' for Inactive)
REMARK    1  A    between atoms: C_3  and  C_19
REMARK    2  A    between atoms: C_9  and  C_13
REMARK    3  A    between atoms: N_18  and  C_24
REMARK    4  A    between atoms: C_21  and  O_27
REMARK    5  A    between atoms: O_27  and  C_28
REMARK                            x       y       z     vdW  Elec       q    Type
REMARK                         _______ _______ _______ _____ _____    ______ ____
ROOT
ATOM      1  C   UNL     1      34.665 -22.439 -17.739  0.00  0.00    +0.000 C 
ATOM      2  C   UNL     1      36.034 -22.235 -17.448  0.00  0.00    +0.000 C 
ATOM      3  C   UNL     1      34.875 -20.995 -19.685  0.00  0.00    +0.054 C 
ATOM      4  C   UNL     1      34.101 -21.811 -18.861  0.00  0.00    +0.005 C 
ATOM      5  C   UNL     1      36.800 -21.410 -18.287  0.00  0.00    +0.000 C 
ATOM      6  C   UNL     1      36.223 -20.794 -19.398  0.00  0.00    +0.005 C 
ATOM      7  C   UNL     1      36.599 -22.863 -16.324  0.00  0.00    +0.003 C 
ATOM      8  C   UNL     1      33.899 -23.264 -16.898  0.00  0.00    +0.000 C 
ATOM      9  C   UNL     1      35.824 -23.680 -15.501  0.00  0.00    +0.031 C 
ATOM     10  C   UNL     1      34.476 -23.880 -15.788  0.00  0.00    +0.003 C 
ENDROOT
BRANCH   9  13
ATOM     11  N   UNL     1      36.067 -23.957 -13.046  0.00  0.00    -0.343 N 
ATOM     12  N   UNL     1      37.329 -25.269 -14.510  0.00  0.00    -0.285 NA
ATOM     13  C   UNL     1      36.423 -24.323 -14.342  0.00  0.00    +0.117 C 
ATOM     14  H   UNL     1      36.485 -24.406 -12.275  0.00  0.00    +0.144 HD
ATOM     15  H   UNL     1      35.396 -23.251 -12.900  0.00  0.00    +0.144 HD
ATOM     16  H   UNL     1      37.736 -25.706 -13.727  0.00  0.00    +0.188 HD
ENDBRANCH   9  13
BRANCH   3  19
ATOM     17  O   UNL     1      33.071 -20.535 -21.079  0.00  0.00    -0.270 OA
ATOM     18  N   UNL     1      35.130 -19.537 -21.600  0.00  0.00    -0.280 N 
ATOM     19  C   UNL     1      34.276 -20.351 -20.843  0.00  0.00    +0.249 C 
ATOM     20  H   UNL     1      36.062 -19.489 -21.290  0.00  0.00    +0.155 HD
BRANCH  18  24
ATOM     21  C   UNL     1      34.013 -16.744 -23.740  0.00  0.00    +0.140 C 
ATOM     22  C   UNL     1      34.314 -17.495 -22.605  0.00  0.00    +0.052 C 
ATOM     23  C   UNL     1      34.227 -17.284 -25.009  0.00  0.00    +0.037 C 
ATOM     24  C   UNL     1      34.825 -18.774 -22.754  0.00  0.00    +0.054 C 
ATOM     25  C   UNL     1      34.741 -18.573 -25.142  0.00  0.00    +0.004 C 
ATOM     26  C   UNL     1      35.043 -19.324 -24.006  0.00  0.00    +0.015 C 
BRANCH  21  27
ATOM     27  O   UNL     1      33.511 -15.487 -23.612  0.00  0.00    -0.479 OA
BRANCH  27  28
ATOM     28  C   UNL     1      34.263 -14.566 -22.831  0.00  0.00    +0.166 C 
ATOM     29  C   UNL     1      33.725 -14.552 -21.408  0.00  0.00    +0.044 C 
ATOM     30  C   UNL     1      34.016 -13.143 -23.306  0.00  0.00    +0.044 C 
ATOM     31  C   UNL     1      32.483 -13.663 -21.478  0.00  0.00    +0.004 C 
ATOM     32  C   UNL     1      32.656 -12.781 -22.714  0.00  0.00    +0.004 C 
ENDBRANCH  27  28
ENDBRANCH  21  27
ENDBRANCH  18  24
ENDBRANCH   3  19
TORSDOF 5
ENDMDL
