MODEL 1
REMARK VINA RESULT:      -8.7      0.000      0.000
REMARK  Name = 831616
REMARK  6 active torsions:
REMARK  status: ('A' for Active; 'I' for Inactive)
REMARK    1  A    between atoms: C_1  and  O_2
REMARK    2  A    between atoms: C_1  and  C_4
REMARK    3  A    between atoms: C_1  and  C_12
REMARK    4  A    between atoms: C_4  and  N_6
REMARK    5  A    between atoms: C_12  and  O_13
REMARK    6  A    between atoms: O_13  and  C_14
REMARK                            x       y       z     vdW  Elec       q    Type
REMARK                         _______ _______ _______ _____ _____    ______ ____
ROOT
ATOM      1  C   UNL     1      36.391 -22.461 -16.214  0.00  0.00    +0.133 C 
ENDROOT
BRANCH   1   2
ATOM      2  O   UNL     1      35.390 -23.446 -16.481  0.00  0.00    -0.383 OA
ATOM      3  H   UNL     1      34.538 -23.008 -16.636  0.00  0.00    +0.210 HD
ENDBRANCH   1   2
BRANCH   1   4
ATOM      4  C   UNL     1      37.562 -23.148 -15.508  0.00  0.00    -0.043 C 
BRANCH   4   6
ATOM      5  O   UNL     1      37.478 -25.532 -12.055  0.00  0.00    -0.358 OA
ATOM      6  N   UNL     1      37.110 -24.074 -14.471  0.00  0.00    +0.392 N 
ATOM      7  C   UNL     1      37.980 -25.257 -14.412  0.00  0.00    -0.045 C 
ATOM      8  C   UNL     1      37.072 -23.411 -13.160  0.00  0.00    -0.045 C 
ATOM      9  C   UNL     1      37.495 -26.201 -13.316  0.00  0.00    +0.119 C 
ATOM     10  C   UNL     1      36.610 -24.399 -12.093  0.00  0.00    +0.119 C 
ATOM     11  H   UNL     1      36.165 -24.375 -14.712  0.00  0.00    -0.079 HD
ENDBRANCH   4   6
ENDBRANCH   1   4
BRANCH   1  12
ATOM     12  C   UNL     1      36.786 -21.796 -17.530  0.00  0.00    +0.232 C 
BRANCH  12  13
ATOM     13  O   UNL     1      35.978 -22.329 -18.575  0.00  0.00    -0.473 OA
BRANCH  13  14
ATOM     14  C   UNL     1      35.322 -21.425 -19.368  0.00  0.00    +0.134 C 
ATOM     15  C   UNL     1      33.931 -21.408 -19.416  0.00  0.00    +0.012 C 
ATOM     16  C   UNL     1      36.066 -20.526 -20.125  0.00  0.00    +0.032 C 
ATOM     17  C   UNL     1      35.412 -19.599 -20.937  0.00  0.00    -0.019 C 
ATOM     18  C   UNL     1      33.278 -20.481 -20.229  0.00  0.00    -0.002 C 
ATOM     19  C   UNL     1      34.019 -19.577 -20.989  0.00  0.00    -0.004 C 
ATOM     20  C   UNL     1      33.123 -22.370 -18.610  0.00  0.00    +0.034 C 
ATOM     21  C   UNL     1      36.204 -18.632 -21.751  0.00  0.00    +0.031 C 
ENDBRANCH  13  14
ENDBRANCH  12  13
ENDBRANCH   1  12
TORSDOF 6
ENDMDL
MODEL 2
REMARK VINA RESULT:      -8.3      5.736      9.969
REMARK  Name = 831616
REMARK  6 active torsions:
REMARK  status: ('A' for Active; 'I' for Inactive)
REMARK    1  A    between atoms: C_1  and  O_2
REMARK    2  A    between atoms: C_1  and  C_4
REMARK    3  A    between atoms: C_1  and  C_12
REMARK    4  A    between atoms: C_4  and  N_6
REMARK    5  A    between atoms: C_12  and  O_13
REMARK    6  A    between atoms: O_13  and  C_14
REMARK                            x       y       z     vdW  Elec       q    Type
REMARK                         _______ _______ _______ _____ _____    ______ ____
ROOT
ATOM      1  C   UNL     1      34.204 -16.321 -21.464  0.00  0.00    +0.133 C 
ENDROOT
BRANCH   1   2
ATOM      2  O   UNL     1      34.993 -15.877 -20.357  0.00  0.00    -0.383 OA
ATOM      3  H   UNL     1      34.498 -15.211 -19.853  0.00  0.00    +0.210 HD
ENDBRANCH   1   2
BRANCH   1   4
ATOM      4  C   UNL     1      35.117 -16.426 -22.688  0.00  0.00    -0.043 C 
BRANCH   4   6
ATOM      5  O   UNL     1      32.719 -14.270 -25.374  0.00  0.00    -0.358 OA
ATOM      6  N   UNL     1      34.699 -15.528 -23.763  0.00  0.00    +0.392 N 
ATOM      7  C   UNL     1      33.977 -16.266 -24.809  0.00  0.00    -0.045 C 
ATOM      8  C   UNL     1      33.857 -14.444 -23.238  0.00  0.00    -0.045 C 
ATOM      9  C   UNL     1      33.541 -15.306 -25.912  0.00  0.00    +0.119 C 
ATOM     10  C   UNL     1      33.424 -13.527 -24.379  0.00  0.00    +0.119 C 
ATOM     11  H   UNL     1      35.540 -15.120 -24.173  0.00  0.00    -0.079 HD
ENDBRANCH   4   6
ENDBRANCH   1   4
BRANCH   1  12
ATOM     12  C   UNL     1      33.539 -17.644 -21.090  0.00  0.00    +0.232 C 
BRANCH  12  13
ATOM     13  O   UNL     1      34.267 -18.711 -21.692  0.00  0.00    -0.473 OA
BRANCH  13  14
ATOM     14  C   UNL     1      34.715 -19.698 -20.854  0.00  0.00    +0.134 C 
ATOM     15  C   UNL     1      36.079 -19.898 -20.664  0.00  0.00    +0.012 C 
ATOM     16  C   UNL     1      33.785 -20.499 -20.198  0.00  0.00    +0.032 C 
ATOM     17  C   UNL     1      34.225 -21.509 -19.342  0.00  0.00    -0.019 C 
ATOM     18  C   UNL     1      36.517 -20.908 -19.809  0.00  0.00    -0.002 C 
ATOM     19  C   UNL     1      35.591 -21.714 -19.148  0.00  0.00    -0.004 C 
ATOM     20  C   UNL     1      37.085 -19.046 -21.365  0.00  0.00    +0.034 C 
ATOM     21  C   UNL     1      33.234 -22.370 -18.635  0.00  0.00    +0.031 C 
ENDBRANCH  13  14
ENDBRANCH  12  13
ENDBRANCH   1  12
TORSDOF 6
ENDMDL
MODEL 3
REMARK VINA RESULT:      -8.2      4.890      7.731
REMARK  Name = 831616
REMARK  6 active torsions:
REMARK  status: ('A' for Active; 'I' for Inactive)
REMARK    1  A    between atoms: C_1  and  O_2
REMARK    2  A    between atoms: C_1  and  C_4
REMARK    3  A    between atoms: C_1  and  C_12
REMARK    4  A    between atoms: C_4  and  N_6
REMARK    5  A    between atoms: C_12  and  O_13
REMARK    6  A    between atoms: O_13  and  C_14
REMARK                            x       y       z     vdW  Elec       q    Type
REMARK                         _______ _______ _______ _____ _____    ______ ____
ROOT
ATOM      1  C   UNL     1      35.396 -17.638 -21.482  0.00  0.00    +0.133 C 
ENDROOT
BRANCH   1   2
ATOM      2  O   UNL     1      35.357 -16.860 -20.283  0.00  0.00    -0.383 OA
ATOM      3  H   UNL     1      35.817 -16.018 -20.429  0.00  0.00    +0.210 HD
ENDBRANCH   1   2
BRANCH   1   4
ATOM      4  C   UNL     1      34.288 -18.691 -21.405  0.00  0.00    -0.043 C 
BRANCH   4   6
ATOM      5  O   UNL     1      35.033 -22.356 -19.501  0.00  0.00    -0.358 OA
ATOM      6  N   UNL     1      34.550 -19.689 -20.370  0.00  0.00    +0.392 N 
ATOM      7  C   UNL     1      33.475 -20.689 -20.324  0.00  0.00    -0.045 C 
ATOM      8  C   UNL     1      35.843 -20.350 -20.599  0.00  0.00    -0.045 C 
ATOM      9  C   UNL     1      33.777 -21.726 -19.246  0.00  0.00    +0.119 C 
ATOM     10  C   UNL     1      36.090 -21.394 -19.515  0.00  0.00    +0.119 C 
ATOM     11  H   UNL     1      34.584 -19.206 -19.472  0.00  0.00    -0.079 HD
ENDBRANCH   4   6
ENDBRANCH   1   4
BRANCH   1  12
ATOM     12  C   UNL     1      35.256 -16.700 -22.679  0.00  0.00    +0.232 C 
BRANCH  12  13
ATOM     13  O   UNL     1      33.872 -16.451 -22.908  0.00  0.00    -0.473 OA
BRANCH  13  14
ATOM     14  C   UNL     1      33.462 -15.145 -22.840  0.00  0.00    +0.134 C 
ATOM     15  C   UNL     1      32.660 -14.712 -21.788  0.00  0.00    +0.012 C 
ATOM     16  C   UNL     1      33.859 -14.261 -23.837  0.00  0.00    +0.032 C 
ATOM     17  C   UNL     1      33.450 -12.928 -23.782  0.00  0.00    -0.019 C 
ATOM     18  C   UNL     1      32.252 -13.379 -21.734  0.00  0.00    -0.002 C 
ATOM     19  C   UNL     1      32.646 -12.488 -22.731  0.00  0.00    -0.004 C 
ATOM     20  C   UNL     1      32.227 -15.653 -20.714  0.00  0.00    +0.034 C 
ATOM     21  C   UNL     1      33.872 -11.974 -24.848  0.00  0.00    +0.031 C 
ENDBRANCH  13  14
ENDBRANCH  12  13
ENDBRANCH   1  12
TORSDOF 6
ENDMDL
MODEL 4
REMARK VINA RESULT:      -8.1     10.599     13.436
REMARK  Name = 831616
REMARK  6 active torsions:
REMARK  status: ('A' for Active; 'I' for Inactive)
REMARK    1  A    between atoms: C_1  and  O_2
REMARK    2  A    between atoms: C_1  and  C_4
REMARK    3  A    between atoms: C_1  and  C_12
REMARK    4  A    between atoms: C_4  and  N_6
REMARK    5  A    between atoms: C_12  and  O_13
REMARK    6  A    between atoms: O_13  and  C_14
REMARK                            x       y       z     vdW  Elec       q    Type
REMARK                         _______ _______ _______ _____ _____    ______ ____
ROOT
ATOM      1  C   UNL     1      32.802 -13.207 -22.009  0.00  0.00    +0.133 C 
ENDROOT
BRANCH   1   2
ATOM      2  O   UNL     1      31.872 -14.294 -22.005  0.00  0.00    -0.383 OA
ATOM      3  H   UNL     1      30.969 -13.947 -22.079  0.00  0.00    +0.210 HD
ENDBRANCH   1   2
BRANCH   1   4
ATOM      4  C   UNL     1      33.947 -13.562 -22.961  0.00  0.00    -0.043 C 
BRANCH   4   6
ATOM      5  O   UNL     1      34.023 -16.246 -26.187  0.00  0.00    -0.358 OA
ATOM      6  N   UNL     1      33.584 -14.642 -23.877  0.00  0.00    +0.392 N 
ATOM      7  C   UNL     1      33.349 -14.121 -25.231  0.00  0.00    -0.045 C 
ATOM      8  C   UNL     1      34.631 -15.672 -23.909  0.00  0.00    -0.045 C 
ATOM      9  C   UNL     1      32.984 -15.266 -26.170  0.00  0.00    +0.119 C 
ATOM     10  C   UNL     1      34.237 -16.781 -24.880  0.00  0.00    +0.119 C 
ATOM     11  H   UNL     1      32.720 -15.064 -23.535  0.00  0.00    -0.079 HD
ENDBRANCH   4   6
ENDBRANCH   1   4
BRANCH   1  12
ATOM     12  C   UNL     1      32.062 -11.931 -22.404  0.00  0.00    +0.232 C 
BRANCH  12  13
ATOM     13  O   UNL     1      32.723 -11.342 -23.520  0.00  0.00    -0.473 OA
BRANCH  13  14
ATOM     14  C   UNL     1      33.199 -10.069 -23.350  0.00  0.00    +0.134 C 
ATOM     15  C   UNL     1      34.292  -9.621 -24.087  0.00  0.00    +0.012 C 
ATOM     16  C   UNL     1      32.576  -9.232 -22.432  0.00  0.00    +0.032 C 
ATOM     17  C   UNL     1      33.049  -7.932 -22.248  0.00  0.00    -0.019 C 
ATOM     18  C   UNL     1      34.765  -8.322 -23.902  0.00  0.00    -0.002 C 
ATOM     19  C   UNL     1      34.144  -7.478 -22.983  0.00  0.00    -0.004 C 
ATOM     20  C   UNL     1      34.971 -10.513 -25.074  0.00  0.00    +0.034 C 
ATOM     21  C   UNL     1      32.384  -7.029 -21.265  0.00  0.00    +0.031 C 
ENDBRANCH  13  14
ENDBRANCH  12  13
ENDBRANCH   1  12
TORSDOF 6
ENDMDL
MODEL 5
REMARK VINA RESULT:      -8.0      7.719     11.674
REMARK  Name = 831616
REMARK  6 active torsions:
REMARK  status: ('A' for Active; 'I' for Inactive)
REMARK    1  A    between atoms: C_1  and  O_2
REMARK    2  A    between atoms: C_1  and  C_4
REMARK    3  A    between atoms: C_1  and  C_12
REMARK    4  A    between atoms: C_4  and  N_6
REMARK    5  A    between atoms: C_12  and  O_13
REMARK    6  A    between atoms: O_13  and  C_14
REMARK                            x       y       z     vdW  Elec       q    Type
REMARK                         _______ _______ _______ _____ _____    ______ ____
ROOT
ATOM      1  C   UNL     1      33.647 -13.347 -22.616  0.00  0.00    +0.133 C 
ENDROOT
BRANCH   1   2
ATOM      2  O   UNL     1      34.306 -13.173 -23.874  0.00  0.00    -0.383 OA
ATOM      3  H   UNL     1      35.030 -13.814 -23.950  0.00  0.00    +0.210 HD
ENDBRANCH   1   2
BRANCH   1   4
ATOM      4  C   UNL     1      32.141 -13.197 -22.842  0.00  0.00    -0.043 C 
BRANCH   4   6
ATOM      5  O   UNL     1      31.837  -9.772 -20.436  0.00  0.00    -0.358 OA
ATOM      6  N   UNL     1      31.593 -12.036 -22.143  0.00  0.00    +0.392 N 
ATOM      7  C   UNL     1      31.746 -12.183 -20.689  0.00  0.00    -0.045 C 
ATOM      8  C   UNL     1      32.245 -10.799 -22.596  0.00  0.00    -0.045 C 
ATOM      9  C   UNL     1      31.179 -10.955 -19.982  0.00  0.00    +0.119 C 
ATOM     10  C   UNL     1      31.666  -9.604 -21.844  0.00  0.00    +0.119 C 
ATOM     11  H   UNL     1      30.598 -11.981 -22.362  0.00  0.00    -0.079 HD
ENDBRANCH   4   6
ENDBRANCH   1   4
BRANCH   1  12
ATOM     12  C   UNL     1      34.040 -14.706 -22.042  0.00  0.00    +0.232 C 
BRANCH  12  13
ATOM     13  O   UNL     1      35.036 -15.287 -22.879  0.00  0.00    -0.473 OA
BRANCH  13  14
ATOM     14  C   UNL     1      35.004 -16.650 -23.018  0.00  0.00    +0.134 C 
ATOM     15  C   UNL     1      34.640 -17.226 -24.232  0.00  0.00    +0.012 C 
ATOM     16  C   UNL     1      35.338 -17.448 -21.930  0.00  0.00    +0.032 C 
ATOM     17  C   UNL     1      35.310 -18.837 -22.056  0.00  0.00    -0.019 C 
ATOM     18  C   UNL     1      34.612 -18.614 -24.358  0.00  0.00    -0.002 C 
ATOM     19  C   UNL     1      34.946 -19.420 -23.270  0.00  0.00    -0.004 C 
ATOM     20  C   UNL     1      34.277 -16.378 -25.406  0.00  0.00    +0.034 C 
ATOM     21  C   UNL     1      35.668 -19.699 -20.893  0.00  0.00    +0.031 C 
ENDBRANCH  13  14
ENDBRANCH  12  13
ENDBRANCH   1  12
TORSDOF 6
ENDMDL
MODEL 6
REMARK VINA RESULT:      -8.0      4.333      7.189
REMARK  Name = 831616
REMARK  6 active torsions:
REMARK  status: ('A' for Active; 'I' for Inactive)
REMARK    1  A    between atoms: C_1  and  O_2
REMARK    2  A    between atoms: C_1  and  C_4
REMARK    3  A    between atoms: C_1  and  C_12
REMARK    4  A    between atoms: C_4  and  N_6
REMARK    5  A    between atoms: C_12  and  O_13
REMARK    6  A    between atoms: O_13  and  C_14
REMARK                            x       y       z     vdW  Elec       q    Type
REMARK                         _______ _______ _______ _____ _____    ______ ____
ROOT
ATOM      1  C   UNL     1      35.327 -18.889 -21.721  0.00  0.00    +0.133 C 
ENDROOT
BRANCH   1   2
ATOM      2  O   UNL     1      35.647 -17.999 -20.647  0.00  0.00    -0.383 OA
ATOM      3  H   UNL     1      34.829 -17.705 -20.217  0.00  0.00    +0.210 HD
ENDBRANCH   1   2
BRANCH   1   4
ATOM      4  C   UNL     1      34.094 -19.700 -21.317  0.00  0.00    -0.043 C 
BRANCH   4   6
ATOM      5  O   UNL     1      34.809 -22.852 -18.640  0.00  0.00    -0.358 OA
ATOM      6  N   UNL     1      34.311 -20.449 -20.081  0.00  0.00    +0.392 N 
ATOM      7  C   UNL     1      33.265 -21.465 -19.895  0.00  0.00    -0.045 C 
ATOM      8  C   UNL     1      35.636 -21.084 -20.081  0.00  0.00    -0.045 C 
ATOM      9  C   UNL     1      33.520 -22.240 -18.606  0.00  0.00    +0.119 C 
ATOM     10  C   UNL     1      35.834 -21.869 -18.788  0.00  0.00    +0.119 C 
ATOM     11  H   UNL     1      34.265 -19.788 -19.304  0.00  0.00    -0.079 HD
ENDBRANCH   4   6
ENDBRANCH   1   4
BRANCH   1  12
ATOM     12  C   UNL     1      35.120 -18.067 -22.991  0.00  0.00    +0.232 C 
BRANCH  12  13
ATOM     13  O   UNL     1      35.472 -16.712 -22.724  0.00  0.00    -0.473 OA
BRANCH  13  14
ATOM     14  C   UNL     1      34.595 -15.752 -23.156  0.00  0.00    +0.134 C 
ATOM     15  C   UNL     1      34.093 -14.805 -22.268  0.00  0.00    +0.012 C 
ATOM     16  C   UNL     1      34.213 -15.739 -24.494  0.00  0.00    +0.032 C 
ATOM     17  C   UNL     1      33.321 -14.768 -24.949  0.00  0.00    -0.019 C 
ATOM     18  C   UNL     1      33.200 -13.835 -22.724  0.00  0.00    -0.002 C 
ATOM     19  C   UNL     1      32.814 -13.817 -24.063  0.00  0.00    -0.004 C 
ATOM     20  C   UNL     1      34.494 -14.811 -20.830  0.00  0.00    +0.034 C 
ATOM     21  C   UNL     1      32.908 -14.748 -26.381  0.00  0.00    +0.031 C 
ENDBRANCH  13  14
ENDBRANCH  12  13
ENDBRANCH   1  12
TORSDOF 6
ENDMDL
MODEL 7
REMARK VINA RESULT:      -8.0      7.673     11.652
REMARK  Name = 831616
REMARK  6 active torsions:
REMARK  status: ('A' for Active; 'I' for Inactive)
REMARK    1  A    between atoms: C_1  and  O_2
REMARK    2  A    between atoms: C_1  and  C_4
REMARK    3  A    between atoms: C_1  and  C_12
REMARK    4  A    between atoms: C_4  and  N_6
REMARK    5  A    between atoms: C_12  and  O_13
REMARK    6  A    between atoms: O_13  and  C_14
REMARK                            x       y       z     vdW  Elec       q    Type
REMARK                         _______ _______ _______ _____ _____    ______ ____
ROOT
ATOM      1  C   UNL     1      33.020 -14.731 -21.616  0.00  0.00    +0.133 C 
ENDROOT
BRANCH   1   2
ATOM      2  O   UNL     1      32.550 -14.131 -20.405  0.00  0.00    -0.383 OA
ATOM      3  H   UNL     1      33.292 -13.708 -19.945  0.00  0.00    +0.210 HD
ENDBRANCH   1   2
BRANCH   1   4
ATOM      4  C   UNL     1      32.432 -13.952 -22.794  0.00  0.00    -0.043 C 
BRANCH   4   6
ATOM      5  O   UNL     1      33.091  -9.994 -24.024  0.00  0.00    -0.358 OA
ATOM      6  N   UNL     1      32.986 -12.603 -22.892  0.00  0.00    +0.392 N 
ATOM      7  C   UNL     1      33.552 -12.367 -24.228  0.00  0.00    -0.045 C 
ATOM      8  C   UNL     1      31.959 -11.595 -22.594  0.00  0.00    -0.045 C 
ATOM      9  C   UNL     1      34.112 -10.950 -24.309  0.00  0.00    +0.119 C 
ATOM     10  C   UNL     1      32.557 -10.196 -22.715  0.00  0.00    +0.119 C 
ATOM     11  H   UNL     1      33.733 -12.523 -22.202  0.00  0.00    -0.079 HD
ENDBRANCH   4   6
ENDBRANCH   1   4
BRANCH   1  12
ATOM     12  C   UNL     1      34.547 -14.738 -21.597  0.00  0.00    +0.232 C 
BRANCH  12  13
ATOM     13  O   UNL     1      35.019 -15.245 -22.842  0.00  0.00    -0.473 OA
BRANCH  13  14
ATOM     14  C   UNL     1      34.986 -16.605 -23.004  0.00  0.00    +0.134 C 
ATOM     15  C   UNL     1      34.613 -17.161 -24.224  0.00  0.00    +0.012 C 
ATOM     16  C   UNL     1      35.331 -17.421 -21.931  0.00  0.00    +0.032 C 
ATOM     17  C   UNL     1      35.302 -18.808 -22.080  0.00  0.00    -0.019 C 
ATOM     18  C   UNL     1      34.585 -18.548 -24.372  0.00  0.00    -0.002 C 
ATOM     19  C   UNL     1      34.929 -19.371 -23.300  0.00  0.00    -0.004 C 
ATOM     20  C   UNL     1      34.240 -16.295 -25.381  0.00  0.00    +0.034 C 
ATOM     21  C   UNL     1      35.671 -19.689 -20.934  0.00  0.00    +0.031 C 
ENDBRANCH  13  14
ENDBRANCH  12  13
ENDBRANCH   1  12
TORSDOF 6
ENDMDL
MODEL 8
REMARK VINA RESULT:      -8.0     10.093     12.778
REMARK  Name = 831616
REMARK  6 active torsions:
REMARK  status: ('A' for Active; 'I' for Inactive)
REMARK    1  A    between atoms: C_1  and  O_2
REMARK    2  A    between atoms: C_1  and  C_4
REMARK    3  A    between atoms: C_1  and  C_12
REMARK    4  A    between atoms: C_4  and  N_6
REMARK    5  A    between atoms: C_12  and  O_13
REMARK    6  A    between atoms: O_13  and  C_14
REMARK                            x       y       z     vdW  Elec       q    Type
REMARK                         _______ _______ _______ _____ _____    ______ ____
ROOT
ATOM      1  C   UNL     1      32.827 -13.698 -21.809  0.00  0.00    +0.133 C 
ENDROOT
BRANCH   1   2
ATOM      2  O   UNL     1      32.066 -14.900 -21.657  0.00  0.00    -0.383 OA
ATOM      3  H   UNL     1      31.482 -15.011 -22.424  0.00  0.00    +0.210 HD
ENDBRANCH   1   2
BRANCH   1   4
ATOM      4  C   UNL     1      34.080 -14.025 -22.624  0.00  0.00    -0.043 C 
BRANCH   4   6
ATOM      5  O   UNL     1      34.497 -16.603 -25.909  0.00  0.00    -0.358 OA
ATOM      6  N   UNL     1      33.849 -15.112 -23.573  0.00  0.00    +0.392 N 
ATOM      7  C   UNL     1      33.587 -14.584 -24.919  0.00  0.00    -0.045 C 
ATOM      8  C   UNL     1      34.999 -16.028 -23.606  0.00  0.00    -0.045 C 
ATOM      9  C   UNL     1      33.362 -15.738 -25.892  0.00  0.00    +0.119 C 
ATOM     10  C   UNL     1      34.741 -17.146 -24.611  0.00  0.00    +0.119 C 
ATOM     11  H   UNL     1      33.028 -15.631 -23.259  0.00  0.00    -0.079 HD
ENDBRANCH   4   6
ENDBRANCH   1   4
BRANCH   1  12
ATOM     12  C   UNL     1      31.941 -12.638 -22.461  0.00  0.00    +0.232 C 
BRANCH  12  13
ATOM     13  O   UNL     1      31.282 -11.897 -21.438  0.00  0.00    -0.473 OA
BRANCH  13  14
ATOM     14  C   UNL     1      31.657 -10.588 -21.288  0.00  0.00    +0.134 C 
ATOM     15  C   UNL     1      31.731 -10.017 -20.021  0.00  0.00    +0.012 C 
ATOM     16  C   UNL     1      31.962  -9.839 -22.419  0.00  0.00    +0.032 C 
ATOM     17  C   UNL     1      32.346  -8.505 -22.283  0.00  0.00    -0.019 C 
ATOM     18  C   UNL     1      32.115  -8.683 -19.885  0.00  0.00    -0.002 C 
ATOM     19  C   UNL     1      32.421  -7.927 -21.016  0.00  0.00    -0.004 C 
ATOM     20  C   UNL     1      31.404 -10.811 -18.800  0.00  0.00    +0.034 C 
ATOM     21  C   UNL     1      32.674  -7.696 -23.492  0.00  0.00    +0.031 C 
ENDBRANCH  13  14
ENDBRANCH  12  13
ENDBRANCH   1  12
TORSDOF 6
ENDMDL
MODEL 9
REMARK VINA RESULT:      -7.9      9.019     12.838
REMARK  Name = 831616
REMARK  6 active torsions:
REMARK  status: ('A' for Active; 'I' for Inactive)
REMARK    1  A    between atoms: C_1  and  O_2
REMARK    2  A    between atoms: C_1  and  C_4
REMARK    3  A    between atoms: C_1  and  C_12
REMARK    4  A    between atoms: C_4  and  N_6
REMARK    5  A    between atoms: C_12  and  O_13
REMARK    6  A    between atoms: O_13  and  C_14
REMARK                            x       y       z     vdW  Elec       q    Type
REMARK                         _______ _______ _______ _____ _____    ______ ____
ROOT
ATOM      1  C   UNL     1      33.081 -13.471 -22.561  0.00  0.00    +0.133 C 
ENDROOT
BRANCH   1   2
ATOM      2  O   UNL     1      32.053 -14.398 -22.201  0.00  0.00    -0.383 OA
ATOM      3  H   UNL     1      32.199 -15.239 -22.662  0.00  0.00    +0.210 HD
ENDBRANCH   1   2
BRANCH   1   4
ATOM      4  C   UNL     1      33.787 -14.003 -23.810  0.00  0.00    -0.043 C 
BRANCH   4   6
ATOM      5  O   UNL     1      35.349 -17.866 -24.306  0.00  0.00    -0.358 OA
ATOM      6  N   UNL     1      33.926 -15.458 -23.785  0.00  0.00    +0.392 N 
ATOM      7  C   UNL     1      34.056 -15.994 -25.146  0.00  0.00    -0.045 C 
ATOM      8  C   UNL     1      35.085 -15.856 -22.973  0.00  0.00    -0.045 C 
ATOM      9  C   UNL     1      34.212 -17.511 -25.092  0.00  0.00    +0.119 C 
ATOM     10  C   UNL     1      35.217 -17.376 -22.971  0.00  0.00    +0.119 C 
ATOM     11  H   UNL     1      33.082 -15.844 -23.361  0.00  0.00    -0.079 HD
ENDBRANCH   4   6
ENDBRANCH   1   4
BRANCH   1  12
ATOM     12  C   UNL     1      32.449 -12.095 -22.764  0.00  0.00    +0.232 C 
BRANCH  12  13
ATOM     13  O   UNL     1      33.174 -11.401 -23.775  0.00  0.00    -0.473 OA
BRANCH  13  14
ATOM     14  C   UNL     1      33.471 -10.087 -23.527  0.00  0.00    +0.134 C 
ATOM     15  C   UNL     1      34.515  -9.460 -24.201  0.00  0.00    +0.012 C 
ATOM     16  C   UNL     1      32.716  -9.390 -22.590  0.00  0.00    +0.032 C 
ATOM     17  C   UNL     1      33.007  -8.051 -22.325  0.00  0.00    -0.019 C 
ATOM     18  C   UNL     1      34.805  -8.122 -23.936  0.00  0.00    -0.002 C 
ATOM     19  C   UNL     1      34.052  -7.418 -22.998  0.00  0.00    -0.004 C 
ATOM     20  C   UNL     1      35.333 -10.200 -25.207  0.00  0.00    +0.034 C 
ATOM     21  C   UNL     1      32.201  -7.297 -21.322  0.00  0.00    +0.031 C 
ENDBRANCH  13  14
ENDBRANCH  12  13
ENDBRANCH   1  12
TORSDOF 6
ENDMDL
