MODEL 1
REMARK VINA RESULT:      -8.9      0.000      0.000
REMARK  Name = 5289081
REMARK  6 active torsions:
REMARK  status: ('A' for Active; 'I' for Inactive)
REMARK    1  A    between atoms: C_5  and  C_18
REMARK    2  A    between atoms: C_15  and  O_32
REMARK    3  A    between atoms: C_19  and  C_25
REMARK    4  A    between atoms: C_23  and  C_29
REMARK    5  A    between atoms: C_25  and  O_26
REMARK    6  A    between atoms: C_29  and  O_30
REMARK                            x       y       z     vdW  Elec       q    Type
REMARK                         _______ _______ _______ _____ _____    ______ ____
ROOT
ATOM      1  F   UNL     1      37.246 -21.365 -19.026  0.00  0.00    -0.201 F 
ATOM      2  F   UNL     1      31.039 -25.423 -12.756  0.00  0.00    -0.201 F 
ATOM      3  O   UNL     1      32.189 -22.962 -17.625  0.00  0.00    -0.474 OA
ATOM      4  O   UNL     1      29.132 -24.919 -14.624  0.00  0.00    -0.288 OA
ATOM      5  C   UNL     1      34.281 -23.442 -15.726  0.00  0.00    +0.003 C 
ATOM      6  C   UNL     1      34.532 -22.791 -17.037  0.00  0.00    +0.024 C 
ATOM      7  C   UNL     1      33.004 -23.815 -15.440  0.00  0.00    +0.032 C 
ATOM      8  C   UNL     1      33.471 -22.585 -17.919  0.00  0.00    +0.213 C 
ATOM      9  C   UNL     1      31.918 -23.574 -16.408  0.00  0.00    +0.125 C 
ATOM     10  C   UNL     1      35.812 -22.368 -17.433  0.00  0.00    +0.032 C 
ATOM     11  C   UNL     1      32.644 -24.467 -14.173  0.00  0.00    +0.035 C 
ATOM     12  C   UNL     1      33.668 -21.975 -19.162  0.00  0.00    +0.060 C 
ATOM     13  C   UNL     1      30.652 -23.932 -16.148  0.00  0.00    +0.135 C 
ATOM     14  C   UNL     1      36.014 -21.759 -18.675  0.00  0.00    +0.173 C 
ATOM     15  C   UNL     1      34.943 -21.562 -19.540  0.00  0.00    +0.161 C 
ATOM     16  C   UNL     1      31.384 -24.824 -13.912  0.00  0.00    +0.175 C 
ATOM     17  C   UNL     1      30.286 -24.590 -14.870  0.00  0.00    +0.208 C 
ENDROOT
BRANCH   5  18
ATOM     18  C   UNL     1      35.346 -23.693 -14.748  0.00  0.00    +0.006 C 
ATOM     19  C   UNL     1      36.101 -24.858 -14.789  0.00  0.00    +0.076 C 
ATOM     20  C   UNL     1      35.581 -22.729 -13.772  0.00  0.00    +0.000 C 
ATOM     21  C   UNL     1      37.105 -25.065 -13.844  0.00  0.00    +0.013 C 
ATOM     22  C   UNL     1      36.585 -22.936 -12.827  0.00  0.00    +0.006 C 
ATOM     23  C   UNL     1      37.347 -24.104 -12.862  0.00  0.00    +0.076 C 
BRANCH  19  25
ATOM     24  O   UNL     1      34.833 -26.050 -16.431  0.00  0.00    -0.245 OA
ATOM     25  C   UNL     1      35.878 -25.888 -15.798  0.00  0.00    +0.338 C 
BRANCH  25  26
ATOM     26  O   UNL     1      36.971 -26.676 -15.981  0.00  0.00    -0.477 OA
ATOM     27  H   UNL     1      37.224 -26.933 -16.846  0.00  0.00    +0.295 HD
ENDBRANCH  25  26
ENDBRANCH  19  25
BRANCH  23  29
ATOM     28  O   UNL     1      38.616 -25.380 -11.285  0.00  0.00    -0.245 OA
ATOM     29  C   UNL     1      38.395 -24.318 -11.876  0.00  0.00    +0.338 C 
BRANCH  29  30
ATOM     30  O   UNL     1      39.138 -23.198 -11.655  0.00  0.00    -0.477 OA
ATOM     31  H   UNL     1      39.996 -23.125 -12.022  0.00  0.00    +0.295 HD
ENDBRANCH  29  30
ENDBRANCH  23  29
ENDBRANCH   5  18
BRANCH  15  32
ATOM     32  O   UNL     1      35.137 -20.969 -20.748  0.00  0.00    -0.504 OA
ATOM     33  H   UNL     1      35.861 -21.224 -21.285  0.00  0.00    +0.292 HD
ENDBRANCH  15  32
TORSDOF 6
ENDMDL
MODEL 2
REMARK VINA RESULT:      -8.4      1.687      2.314
REMARK  Name = 5289081
REMARK  6 active torsions:
REMARK  status: ('A' for Active; 'I' for Inactive)
REMARK    1  A    between atoms: C_5  and  C_18
REMARK    2  A    between atoms: C_15  and  O_32
REMARK    3  A    between atoms: C_19  and  C_25
REMARK    4  A    between atoms: C_23  and  C_29
REMARK    5  A    between atoms: C_25  and  O_26
REMARK    6  A    between atoms: C_29  and  O_30
REMARK                            x       y       z     vdW  Elec       q    Type
REMARK                         _______ _______ _______ _____ _____    ______ ____
ROOT
ATOM      1  F   UNL     1      36.758 -21.487 -20.153  0.00  0.00    -0.201 F 
ATOM      2  F   UNL     1      31.448 -25.461 -13.060  0.00  0.00    -0.201 F 
ATOM      3  O   UNL     1      31.951 -22.341 -17.653  0.00  0.00    -0.474 OA
ATOM      4  O   UNL     1      29.325 -24.240 -14.236  0.00  0.00    -0.288 OA
ATOM      5  C   UNL     1      34.262 -23.579 -16.494  0.00  0.00    +0.003 C 
ATOM      6  C   UNL     1      34.339 -22.739 -17.717  0.00  0.00    +0.024 C 
ATOM      7  C   UNL     1      33.039 -23.752 -15.923  0.00  0.00    +0.032 C 
ATOM      8  C   UNL     1      33.178 -22.163 -18.233  0.00  0.00    +0.213 C 
ATOM      9  C   UNL     1      31.842 -23.120 -16.509  0.00  0.00    +0.125 C 
ATOM     10  C   UNL     1      35.550 -22.496 -18.386  0.00  0.00    +0.032 C 
ATOM     11  C   UNL     1      32.847 -24.563 -14.712  0.00  0.00    +0.035 C 
ATOM     12  C   UNL     1      33.211 -21.367 -19.381  0.00  0.00    +0.060 C 
ATOM     13  C   UNL     1      30.626 -23.276 -15.963  0.00  0.00    +0.135 C 
ATOM     14  C   UNL     1      35.589 -21.701 -19.535  0.00  0.00    +0.173 C 
ATOM     15  C   UNL     1      34.419 -21.135 -20.033  0.00  0.00    +0.161 C 
ATOM     16  C   UNL     1      31.638 -24.720 -14.168  0.00  0.00    +0.175 C 
ATOM     17  C   UNL     1      30.431 -24.095 -14.741  0.00  0.00    +0.208 C 
ENDROOT
BRANCH   5  18
ATOM     18  C   UNL     1      35.439 -24.218 -15.895  0.00  0.00    +0.006 C 
ATOM     19  C   UNL     1      36.514 -23.464 -15.441  0.00  0.00    +0.076 C 
ATOM     20  C   UNL     1      35.452 -25.606 -15.793  0.00  0.00    +0.000 C 
ATOM     21  C   UNL     1      37.617 -24.104 -14.876  0.00  0.00    +0.013 C 
ATOM     22  C   UNL     1      36.555 -26.245 -15.229  0.00  0.00    +0.006 C 
ATOM     23  C   UNL     1      37.638 -25.495 -14.771  0.00  0.00    +0.076 C 
BRANCH  19  25
ATOM     24  O   UNL     1      37.325 -21.349 -16.210  0.00  0.00    -0.245 OA
ATOM     25  C   UNL     1      36.532 -22.008 -15.535  0.00  0.00    +0.338 C 
BRANCH  25  26
ATOM     26  O   UNL     1      35.558 -21.430 -14.784  0.00  0.00    -0.477 OA
ATOM     27  H   UNL     1      34.679 -21.388 -15.107  0.00  0.00    +0.295 HD
ENDBRANCH  25  26
ENDBRANCH  19  25
BRANCH  23  29
ATOM     28  O   UNL     1      39.699 -26.710 -14.812  0.00  0.00    -0.245 OA
ATOM     29  C   UNL     1      38.788 -26.163 -14.182  0.00  0.00    +0.338 C 
BRANCH  29  30
ATOM     30  O   UNL     1      38.767 -26.131 -12.821  0.00  0.00    -0.477 OA
ATOM     31  H   UNL     1      38.567 -25.334 -12.374  0.00  0.00    +0.295 HD
ENDBRANCH  29  30
ENDBRANCH  23  29
ENDBRANCH   5  18
BRANCH  15  32
ATOM     32  O   UNL     1      34.454 -20.362 -21.150  0.00  0.00    -0.504 OA
ATOM     33  H   UNL     1      34.832 -19.505 -21.117  0.00  0.00    +0.292 HD
ENDBRANCH  15  32
TORSDOF 6
ENDMDL
MODEL 3
REMARK VINA RESULT:      -8.3     13.540     17.034
REMARK  Name = 5289081
REMARK  6 active torsions:
REMARK  status: ('A' for Active; 'I' for Inactive)
REMARK    1  A    between atoms: C_5  and  C_18
REMARK    2  A    between atoms: C_15  and  O_32
REMARK    3  A    between atoms: C_19  and  C_25
REMARK    4  A    between atoms: C_23  and  C_29
REMARK    5  A    between atoms: C_25  and  O_26
REMARK    6  A    between atoms: C_29  and  O_30
REMARK                            x       y       z     vdW  Elec       q    Type
REMARK                         _______ _______ _______ _____ _____    ______ ____
ROOT
ATOM      1  F   UNL     1      33.651 -12.204 -27.315  0.00  0.00    -0.201 F 
ATOM      2  F   UNL     1      31.153  -8.382 -18.744  0.00  0.00    -0.201 F 
ATOM      3  O   UNL     1      32.549 -12.714 -21.966  0.00  0.00    -0.474 OA
ATOM      4  O   UNL     1      31.338 -10.917 -17.784  0.00  0.00    -0.288 OA
ATOM      5  C   UNL     1      32.379 -10.081 -23.087  0.00  0.00    +0.003 C 
ATOM      6  C   UNL     1      32.747 -11.269 -23.899  0.00  0.00    +0.024 C 
ATOM      7  C   UNL     1      32.119 -10.276 -21.766  0.00  0.00    +0.032 C 
ATOM      8  C   UNL     1      32.813 -12.525 -23.295  0.00  0.00    +0.213 C 
ATOM      9  C   UNL     1      32.202 -11.625 -21.176  0.00  0.00    +0.125 C 
ATOM     10  C   UNL     1      33.037 -11.181 -25.272  0.00  0.00    +0.032 C 
ATOM     11  C   UNL     1      31.746  -9.171 -20.870  0.00  0.00    +0.035 C 
ATOM     12  C   UNL     1      33.155 -13.666 -24.027  0.00  0.00    +0.060 C 
ATOM     13  C   UNL     1      31.949 -11.841 -19.877  0.00  0.00    +0.135 C 
ATOM     14  C   UNL     1      33.380 -12.318 -26.007  0.00  0.00    +0.173 C 
ATOM     15  C   UNL     1      33.439 -13.562 -25.386  0.00  0.00    +0.161 C 
ATOM     16  C   UNL     1      31.494  -9.385 -19.577  0.00  0.00    +0.175 C 
ATOM     17  C   UNL     1      31.573 -10.727 -18.971  0.00  0.00    +0.208 C 
ENDROOT
BRANCH   5  18
ATOM     18  C   UNL     1      32.292  -8.730 -23.653  0.00  0.00    +0.006 C 
ATOM     19  C   UNL     1      33.430  -7.960 -23.855  0.00  0.00    +0.076 C 
ATOM     20  C   UNL     1      31.033  -8.236 -23.981  0.00  0.00    +0.000 C 
ATOM     21  C   UNL     1      33.310  -6.679 -24.394  0.00  0.00    +0.013 C 
ATOM     22  C   UNL     1      30.914  -6.956 -24.519  0.00  0.00    +0.006 C 
ATOM     23  C   UNL     1      32.052  -6.177 -24.726  0.00  0.00    +0.076 C 
BRANCH  19  25
ATOM     24  O   UNL     1      35.342  -9.379 -24.082  0.00  0.00    -0.245 OA
ATOM     25  C   UNL     1      34.763  -8.447 -23.520  0.00  0.00    +0.338 C 
BRANCH  25  26
ATOM     26  O   UNL     1      35.326  -7.750 -22.499  0.00  0.00    -0.477 OA
ATOM     27  H   UNL     1      36.038  -7.164 -22.667  0.00  0.00    +0.295 HD
ENDBRANCH  25  26
ENDBRANCH  19  25
BRANCH  23  29
ATOM     28  O   UNL     1      32.733  -4.310 -26.059  0.00  0.00    -0.245 OA
ATOM     29  C   UNL     1      31.926  -4.841 -25.289  0.00  0.00    +0.338 C 
BRANCH  29  30
ATOM     30  O   UNL     1      30.796  -4.206 -24.874  0.00  0.00    -0.477 OA
ATOM     31  H   UNL     1      30.307  -4.544 -24.151  0.00  0.00    +0.295 HD
ENDBRANCH  29  30
ENDBRANCH  23  29
ENDBRANCH   5  18
BRANCH  15  32
ATOM     32  O   UNL     1      33.773 -14.670 -26.099  0.00  0.00    -0.504 OA
ATOM     33  H   UNL     1      33.158 -15.371 -26.192  0.00  0.00    +0.292 HD
ENDBRANCH  15  32
TORSDOF 6
ENDMDL
MODEL 4
REMARK VINA RESULT:      -7.4     13.543     17.457
REMARK  Name = 5289081
REMARK  6 active torsions:
REMARK  status: ('A' for Active; 'I' for Inactive)
REMARK    1  A    between atoms: C_5  and  C_18
REMARK    2  A    between atoms: C_15  and  O_32
REMARK    3  A    between atoms: C_19  and  C_25
REMARK    4  A    between atoms: C_23  and  C_29
REMARK    5  A    between atoms: C_25  and  O_26
REMARK    6  A    between atoms: C_29  and  O_30
REMARK                            x       y       z     vdW  Elec       q    Type
REMARK                         _______ _______ _______ _____ _____    ______ ____
ROOT
ATOM      1  F   UNL     1      31.108  -8.502 -18.643  0.00  0.00    -0.201 F 
ATOM      2  F   UNL     1      33.696 -11.957 -27.341  0.00  0.00    -0.201 F 
ATOM      3  O   UNL     1      32.494 -12.658 -21.942  0.00  0.00    -0.474 OA
ATOM      4  O   UNL     1      33.753 -14.391 -26.137  0.00  0.00    -0.288 OA
ATOM      5  C   UNL     1      32.406 -10.041 -23.108  0.00  0.00    +0.003 C 
ATOM      6  C   UNL     1      32.094 -10.285 -21.677  0.00  0.00    +0.024 C 
ATOM      7  C   UNL     1      32.741 -11.116 -23.872  0.00  0.00    +0.032 C 
ATOM      8  C   UNL     1      32.154 -11.582 -21.168  0.00  0.00    +0.213 C 
ATOM      9  C   UNL     1      32.791 -12.468 -23.285  0.00  0.00    +0.125 C 
ATOM     10  C   UNL     1      31.735  -9.248 -20.799  0.00  0.00    +0.032 C 
ATOM     11  C   UNL     1      33.068 -10.990 -25.300  0.00  0.00    +0.035 C 
ATOM     12  C   UNL     1      31.869 -11.850 -19.826  0.00  0.00    +0.060 C 
ATOM     13  C   UNL     1      33.120 -13.541 -24.019  0.00  0.00    +0.135 C 
ATOM     14  C   UNL     1      31.448  -9.511 -19.457  0.00  0.00    +0.173 C 
ATOM     15  C   UNL     1      31.515 -10.812 -18.969  0.00  0.00    +0.161 C 
ATOM     16  C   UNL     1      33.395 -12.058 -26.032  0.00  0.00    +0.175 C 
ATOM     17  C   UNL     1      33.450 -13.416 -25.460  0.00  0.00    +0.208 C 
ENDROOT
BRANCH   5  18
ATOM     18  C   UNL     1      32.362  -8.706 -23.714  0.00  0.00    +0.006 C 
ATOM     19  C   UNL     1      33.522  -7.969 -23.917  0.00  0.00    +0.076 C 
ATOM     20  C   UNL     1      31.121  -8.192 -24.081  0.00  0.00    +0.000 C 
ATOM     21  C   UNL     1      33.443  -6.702 -24.496  0.00  0.00    +0.013 C 
ATOM     22  C   UNL     1      31.044  -6.926 -24.659  0.00  0.00    +0.006 C 
ATOM     23  C   UNL     1      32.204  -6.180 -24.866  0.00  0.00    +0.076 C 
BRANCH  19  25
ATOM     24  O   UNL     1      35.410  -9.429 -24.077  0.00  0.00    -0.245 OA
ATOM     25  C   UNL     1      34.837  -8.478 -23.543  0.00  0.00    +0.338 C 
BRANCH  25  26
ATOM     26  O   UNL     1      35.388  -7.778 -22.517  0.00  0.00    -0.477 OA
ATOM     27  H   UNL     1      36.302  -7.864 -22.328  0.00  0.00    +0.295 HD
ENDBRANCH  25  26
ENDBRANCH  19  25
BRANCH  23  29
ATOM     28  O   UNL     1      32.901  -4.408 -26.315  0.00  0.00    -0.245 OA
ATOM     29  C   UNL     1      32.121  -4.859 -25.470  0.00  0.00    +0.338 C 
BRANCH  29  30
ATOM     30  O   UNL     1      31.067  -4.138 -25.000  0.00  0.00    -0.477 OA
ATOM     31  H   UNL     1      30.192  -4.394 -25.214  0.00  0.00    +0.295 HD
ENDBRANCH  29  30
ENDBRANCH  23  29
ENDBRANCH   5  18
BRANCH  15  32
ATOM     32  O   UNL     1      31.235 -11.070 -17.664  0.00  0.00    -0.504 OA
ATOM     33  H   UNL     1      31.121 -11.954 -17.374  0.00  0.00    +0.292 HD
ENDBRANCH  15  32
TORSDOF 6
ENDMDL
MODEL 5
REMARK VINA RESULT:      -6.5      1.623      2.232
REMARK  Name = 5289081
REMARK  6 active torsions:
REMARK  status: ('A' for Active; 'I' for Inactive)
REMARK    1  A    between atoms: C_5  and  C_18
REMARK    2  A    between atoms: C_15  and  O_32
REMARK    3  A    between atoms: C_19  and  C_25
REMARK    4  A    between atoms: C_23  and  C_29
REMARK    5  A    between atoms: C_25  and  O_26
REMARK    6  A    between atoms: C_29  and  O_30
REMARK                            x       y       z     vdW  Elec       q    Type
REMARK                         _______ _______ _______ _____ _____    ______ ____
ROOT
ATOM      1  F   UNL     1      37.029 -21.568 -19.077  0.00  0.00    -0.201 F 
ATOM      2  F   UNL     1      30.068 -25.605 -13.641  0.00  0.00    -0.201 F 
ATOM      3  O   UNL     1      31.740 -22.470 -17.938  0.00  0.00    -0.474 OA
ATOM      4  O   UNL     1      28.321 -24.401 -15.337  0.00  0.00    -0.288 OA
ATOM      5  C   UNL     1      33.673 -23.690 -16.209  0.00  0.00    +0.003 C 
ATOM      6  C   UNL     1      34.063 -22.847 -17.367  0.00  0.00    +0.024 C 
ATOM      7  C   UNL     1      32.344 -23.876 -15.982  0.00  0.00    +0.032 C 
ATOM      8  C   UNL     1      33.075 -22.280 -18.172  0.00  0.00    +0.213 C 
ATOM      9  C   UNL     1      31.339 -23.253 -16.863  0.00  0.00    +0.125 C 
ATOM     10  C   UNL     1      35.406 -22.592 -17.693  0.00  0.00    +0.032 C 
ATOM     11  C   UNL     1      31.847 -24.692 -14.865  0.00  0.00    +0.035 C 
ATOM     12  C   UNL     1      33.403 -21.481 -19.271  0.00  0.00    +0.060 C 
ATOM     13  C   UNL     1      30.024 -23.422 -16.658  0.00  0.00    +0.135 C 
ATOM     14  C   UNL     1      35.740 -21.794 -18.790  0.00  0.00    +0.173 C 
ATOM     15  C   UNL     1      34.739 -21.237 -19.580  0.00  0.00    +0.161 C 
ATOM     16  C   UNL     1      30.538 -24.860 -14.659  0.00  0.00    +0.175 C 
ATOM     17  C   UNL     1      29.520 -24.244 -15.532  0.00  0.00    +0.208 C 
ENDROOT
BRANCH   5  18
ATOM     18  C   UNL     1      34.655 -24.320 -15.319  0.00  0.00    +0.006 C 
ATOM     19  C   UNL     1      34.708 -24.004 -13.967  0.00  0.00    +0.076 C 
ATOM     20  C   UNL     1      35.538 -25.246 -15.867  0.00  0.00    +0.000 C 
ATOM     21  C   UNL     1      35.656 -24.622 -13.151  0.00  0.00    +0.013 C 
ATOM     22  C   UNL     1      36.484 -25.863 -15.050  0.00  0.00    +0.006 C 
ATOM     23  C   UNL     1      36.544 -25.551 -13.692  0.00  0.00    +0.076 C 
BRANCH  19  25
ATOM     24  O   UNL     1      33.233 -22.121 -13.963  0.00  0.00    -0.245 OA
ATOM     25  C   UNL     1      33.799 -23.037 -13.363  0.00  0.00    +0.338 C 
BRANCH  25  26
ATOM     26  O   UNL     1      33.628 -23.252 -12.032  0.00  0.00    -0.477 OA
ATOM     27  H   UNL     1      33.532 -24.125 -11.706  0.00  0.00    +0.295 HD
ENDBRANCH  25  26
ENDBRANCH  19  25
BRANCH  23  29
ATOM     28  O   UNL     1      37.317 -26.649 -11.711  0.00  0.00    -0.245 OA
ATOM     29  C   UNL     1      37.531 -26.197 -12.841  0.00  0.00    +0.338 C 
BRANCH  29  30
ATOM     30  O   UNL     1      38.760 -26.258 -13.424  0.00  0.00    -0.477 OA
ATOM     31  H   UNL     1      38.914 -25.825 -14.239  0.00  0.00    +0.295 HD
ENDBRANCH  29  30
ENDBRANCH  23  29
ENDBRANCH   5  18
BRANCH  15  32
ATOM     32  O   UNL     1      35.060 -20.461 -20.648  0.00  0.00    -0.504 OA
ATOM     33  H   UNL     1      35.866 -19.982 -20.655  0.00  0.00    +0.292 HD
ENDBRANCH  15  32
TORSDOF 6
ENDMDL
MODEL 6
REMARK VINA RESULT:      -6.1     13.651     17.363
REMARK  Name = 5289081
REMARK  6 active torsions:
REMARK  status: ('A' for Active; 'I' for Inactive)
REMARK    1  A    between atoms: C_5  and  C_18
REMARK    2  A    between atoms: C_15  and  O_32
REMARK    3  A    between atoms: C_19  and  C_25
REMARK    4  A    between atoms: C_23  and  C_29
REMARK    5  A    between atoms: C_25  and  O_26
REMARK    6  A    between atoms: C_29  and  O_30
REMARK                            x       y       z     vdW  Elec       q    Type
REMARK                         _______ _______ _______ _____ _____    ______ ____
ROOT
ATOM      1  F   UNL     1      31.746  -8.031 -18.948  0.00  0.00    -0.201 F 
ATOM      2  F   UNL     1      33.922 -12.675 -27.194  0.00  0.00    -0.201 F 
ATOM      3  O   UNL     1      32.265 -12.643 -21.870  0.00  0.00    -0.474 OA
ATOM      4  O   UNL     1      33.309 -14.950 -25.841  0.00  0.00    -0.288 OA
ATOM      5  C   UNL     1      32.891 -10.181 -23.198  0.00  0.00    +0.003 C 
ATOM      6  C   UNL     1      32.444 -10.230 -21.782  0.00  0.00    +0.024 C 
ATOM      7  C   UNL     1      32.998 -11.361 -23.867  0.00  0.00    +0.032 C 
ATOM      8  C   UNL     1      32.154 -11.460 -21.192  0.00  0.00    +0.213 C 
ATOM      9  C   UNL     1      32.680 -12.635 -23.196  0.00  0.00    +0.125 C 
ATOM     10  C   UNL     1      32.298  -9.071 -21.000  0.00  0.00    +0.032 C 
ATOM     11  C   UNL     1      33.430 -11.429 -25.270  0.00  0.00    +0.035 C 
ATOM     12  C   UNL     1      31.732 -11.546 -19.862  0.00  0.00    +0.060 C 
ATOM     13  C   UNL     1      32.779 -13.810 -23.835  0.00  0.00    +0.135 C 
ATOM     14  C   UNL     1      31.876  -9.152 -19.670  0.00  0.00    +0.173 C 
ATOM     15  C   UNL     1      31.593 -10.389 -19.100  0.00  0.00    +0.161 C 
ATOM     16  C   UNL     1      33.529 -12.598 -25.908  0.00  0.00    +0.175 C 
ATOM     17  C   UNL     1      33.214 -13.881 -25.251  0.00  0.00    +0.208 C 
ENDROOT
BRANCH   5  18
ATOM     18  C   UNL     1      33.211  -8.925 -23.886  0.00  0.00    +0.006 C 
ATOM     19  C   UNL     1      32.257  -7.928 -24.045  0.00  0.00    +0.076 C 
ATOM     20  C   UNL     1      34.502  -8.758 -24.379  0.00  0.00    +0.000 C 
ATOM     21  C   UNL     1      32.597  -6.747 -24.705  0.00  0.00    +0.013 C 
ATOM     22  C   UNL     1      34.840  -7.578 -25.038  0.00  0.00    +0.006 C 
ATOM     23  C   UNL     1      33.888  -6.572 -25.202  0.00  0.00    +0.076 C 
BRANCH  19  25
ATOM     24  O   UNL     1      30.170  -9.051 -23.726  0.00  0.00    -0.245 OA
ATOM     25  C   UNL     1      30.896  -8.073 -23.542  0.00  0.00    +0.338 C 
BRANCH  25  26
ATOM     26  O   UNL     1      30.493  -6.991 -22.824  0.00  0.00    -0.477 OA
ATOM     27  H   UNL     1      31.110  -6.324 -22.595  0.00  0.00    +0.295 HD
ENDBRANCH  25  26
ENDBRANCH  19  25
BRANCH  23  29
ATOM     28  O   UNL     1      35.279  -5.154 -26.536  0.00  0.00    -0.245 OA
ATOM     29  C   UNL     1      34.243  -5.340 -25.889  0.00  0.00    +0.338 C 
BRANCH  29  30
ATOM     30  O   UNL     1      33.294  -4.374 -25.750  0.00  0.00    -0.477 OA
ATOM     31  H   UNL     1      32.392  -4.612 -25.665  0.00  0.00    +0.295 HD
ENDBRANCH  29  30
ENDBRANCH  23  29
ENDBRANCH   5  18
BRANCH  15  32
ATOM     32  O   UNL     1      31.181 -10.470 -17.807  0.00  0.00    -0.504 OA
ATOM     33  H   UNL     1      30.745  -9.744 -17.407  0.00  0.00    +0.292 HD
ENDBRANCH  15  32
TORSDOF 6
ENDMDL
MODEL 7
REMARK VINA RESULT:      -5.9     13.807     17.290
REMARK  Name = 5289081
REMARK  6 active torsions:
REMARK  status: ('A' for Active; 'I' for Inactive)
REMARK    1  A    between atoms: C_5  and  C_18
REMARK    2  A    between atoms: C_15  and  O_32
REMARK    3  A    between atoms: C_19  and  C_25
REMARK    4  A    between atoms: C_23  and  C_29
REMARK    5  A    between atoms: C_25  and  O_26
REMARK    6  A    between atoms: C_29  and  O_30
REMARK                            x       y       z     vdW  Elec       q    Type
REMARK                         _______ _______ _______ _____ _____    ______ ____
ROOT
ATOM      1  F   UNL     1      33.803 -12.724 -27.192  0.00  0.00    -0.201 F 
ATOM      2  F   UNL     1      31.973  -7.542 -19.187  0.00  0.00    -0.201 F 
ATOM      3  O   UNL     1      32.392 -12.393 -21.903  0.00  0.00    -0.474 OA
ATOM      4  O   UNL     1      31.490  -9.932 -17.990  0.00  0.00    -0.288 OA
ATOM      5  C   UNL     1      32.920  -9.929 -23.268  0.00  0.00    +0.003 C 
ATOM      6  C   UNL     1      33.018 -11.249 -23.943  0.00  0.00    +0.024 C 
ATOM      7  C   UNL     1      32.566  -9.917 -21.954  0.00  0.00    +0.032 C 
ATOM      8  C   UNL     1      32.748 -12.413 -23.224  0.00  0.00    +0.213 C 
ATOM      9  C   UNL     1      32.291 -11.177 -21.240  0.00  0.00    +0.125 C 
ATOM     10  C   UNL     1      33.376 -11.376 -25.296  0.00  0.00    +0.032 C 
ATOM     11  C   UNL     1      32.440  -8.668 -21.189  0.00  0.00    +0.035 C 
ATOM     12  C   UNL     1      32.829 -13.673 -23.825  0.00  0.00    +0.060 C 
ATOM     13  C   UNL     1      31.940 -11.189 -19.945  0.00  0.00    +0.135 C 
ATOM     14  C   UNL     1      33.459 -12.633 -25.901  0.00  0.00    +0.173 C 
ATOM     15  C   UNL     1      33.185 -13.782 -25.166  0.00  0.00    +0.161 C 
ATOM     16  C   UNL     1      32.091  -8.678 -19.900  0.00  0.00    +0.175 C 
ATOM     17  C   UNL     1      31.812  -9.929 -19.171  0.00  0.00    +0.208 C 
ENDROOT
BRANCH   5  18
ATOM     18  C   UNL     1      33.190  -8.663 -23.958  0.00  0.00    +0.006 C 
ATOM     19  C   UNL     1      32.196  -7.707 -24.123  0.00  0.00    +0.076 C 
ATOM     20  C   UNL     1      34.474  -8.444 -24.448  0.00  0.00    +0.000 C 
ATOM     21  C   UNL     1      32.488  -6.514 -24.785  0.00  0.00    +0.013 C 
ATOM     22  C   UNL     1      34.765  -7.251 -25.110  0.00  0.00    +0.006 C 
ATOM     23  C   UNL     1      33.772  -6.286 -25.279  0.00  0.00    +0.076 C 
BRANCH  19  25
ATOM     24  O   UNL     1      30.140  -8.896 -23.844  0.00  0.00    -0.245 OA
ATOM     25  C   UNL     1      30.841  -7.906 -23.623  0.00  0.00    +0.338 C 
BRANCH  25  26
ATOM     26  O   UNL     1      30.411  -6.864 -22.863  0.00  0.00    -0.477 OA
ATOM     27  H   UNL     1      30.029  -7.023 -22.023  0.00  0.00    +0.295 HD
ENDBRANCH  25  26
ENDBRANCH  19  25
BRANCH  23  29
ATOM     28  O   UNL     1      33.393  -4.015 -25.928  0.00  0.00    -0.245 OA
ATOM     29  C   UNL     1      34.078  -5.042 -25.968  0.00  0.00    +0.338 C 
BRANCH  29  30
ATOM     30  O   UNL     1      35.229  -5.117 -26.690  0.00  0.00    -0.477 OA
ATOM     31  H   UNL     1      35.760  -4.355 -26.805  0.00  0.00    +0.295 HD
ENDBRANCH  29  30
ENDBRANCH  23  29
ENDBRANCH   5  18
BRANCH  15  32
ATOM     32  O   UNL     1      33.265 -15.006 -25.752  0.00  0.00    -0.504 OA
ATOM     33  H   UNL     1      34.102 -15.386 -25.933  0.00  0.00    +0.292 HD
ENDBRANCH  15  32
TORSDOF 6
ENDMDL
