MODEL 1
REMARK VINA RESULT:      -5.0      0.000      0.000
REMARK  Name = 33344
REMARK  0 active torsions:
REMARK  status: ('A' for Active; 'I' for Inactive)
REMARK                            x       y       z     vdW  Elec       q    Type
REMARK                         _______ _______ _______ _____ _____    ______ ____
ROOT
ATOM      1 CL   UNL     1      35.750 -18.473 -23.163  0.00  0.00    -0.074 Cl
ATOM      2  S   UNL     1      34.528 -15.746 -22.976  0.00  0.00    -0.006 S 
ATOM      3  O   UNL     1      33.357 -15.650 -26.579  0.00  0.00    -0.269 OA
ATOM      4  N   UNL     1      33.783 -15.073 -24.345  0.00  0.00    -0.224 N 
ATOM      5  C   UNL     1      33.814 -15.883 -25.469  0.00  0.00    +0.260 C 
ATOM      6  C   UNL     1      33.184 -13.759 -24.280  0.00  0.00    +0.129 C 
ATOM      7  C   UNL     1      34.510 -17.155 -25.150  0.00  0.00    +0.078 C 
ATOM      8  C   UNL     1      34.914 -17.165 -23.877  0.00  0.00    +0.105 C 
ENDROOT
TORSDOF 0
ENDMDL
MODEL 2
REMARK VINA RESULT:      -5.0      1.780      1.929
REMARK  Name = 33344
REMARK  0 active torsions:
REMARK  status: ('A' for Active; 'I' for Inactive)
REMARK                            x       y       z     vdW  Elec       q    Type
REMARK                         _______ _______ _______ _____ _____    ______ ____
ROOT
ATOM      1 CL   UNL     1      34.818 -16.096 -20.893  0.00  0.00    -0.074 Cl
ATOM      2  S   UNL     1      33.437 -14.729 -23.171  0.00  0.00    -0.006 S 
ATOM      3  O   UNL     1      34.807 -17.045 -25.839  0.00  0.00    -0.269 OA
ATOM      4  N   UNL     1      33.652 -15.319 -24.748  0.00  0.00    -0.224 N 
ATOM      5  C   UNL     1      34.484 -16.424 -24.837  0.00  0.00    +0.260 C 
ATOM      6  C   UNL     1      32.994 -14.678 -25.864  0.00  0.00    +0.129 C 
ATOM      7  C   UNL     1      34.968 -16.796 -23.484  0.00  0.00    +0.078 C 
ATOM      8  C   UNL     1      34.472 -15.966 -22.561  0.00  0.00    +0.105 C 
ENDROOT
TORSDOF 0
ENDMDL
MODEL 3
REMARK VINA RESULT:      -4.9      1.437      1.589
REMARK  Name = 33344
REMARK  0 active torsions:
REMARK  status: ('A' for Active; 'I' for Inactive)
REMARK                            x       y       z     vdW  Elec       q    Type
REMARK                         _______ _______ _______ _____ _____    ______ ____
ROOT
ATOM      1 CL   UNL     1      35.262 -19.548 -21.715  0.00  0.00    -0.074 Cl
ATOM      2  S   UNL     1      34.571 -16.653 -22.033  0.00  0.00    -0.006 S 
ATOM      3  O   UNL     1      34.749 -16.674 -25.819  0.00  0.00    -0.269 OA
ATOM      4  N   UNL     1      34.479 -15.986 -23.592  0.00  0.00    -0.224 N 
ATOM      5  C   UNL     1      34.746 -16.883 -24.614  0.00  0.00    +0.260 C 
ATOM      6  C   UNL     1      34.145 -14.591 -23.772  0.00  0.00    +0.129 C 
ATOM      7  C   UNL     1      35.045 -18.220 -24.041  0.00  0.00    +0.078 C 
ATOM      8  C   UNL     1      34.977 -18.187 -22.708  0.00  0.00    +0.105 C 
ENDROOT
TORSDOF 0
ENDMDL
MODEL 4
REMARK VINA RESULT:      -4.9      5.962      6.810
REMARK  Name = 33344
REMARK  0 active torsions:
REMARK  status: ('A' for Active; 'I' for Inactive)
REMARK                            x       y       z     vdW  Elec       q    Type
REMARK                         _______ _______ _______ _____ _____    ______ ____
ROOT
ATOM      1 CL   UNL     1      34.492 -18.029 -22.455  0.00  0.00    -0.074 Cl
ATOM      2  S   UNL     1      35.862 -19.942 -20.605  0.00  0.00    -0.006 S 
ATOM      3  O   UNL     1      32.670 -21.584 -19.388  0.00  0.00    -0.269 OA
ATOM      4  N   UNL     1      34.930 -21.033 -19.697  0.00  0.00    -0.224 N 
ATOM      5  C   UNL     1      33.564 -20.929 -19.905  0.00  0.00    +0.260 C 
ATOM      6  C   UNL     1      35.568 -21.968 -18.799  0.00  0.00    +0.129 C 
ATOM      7  C   UNL     1      33.289 -19.859 -20.897  0.00  0.00    +0.078 C 
ATOM      8  C   UNL     1      34.428 -19.296 -21.310  0.00  0.00    +0.105 C 
ENDROOT
TORSDOF 0
ENDMDL
MODEL 5
REMARK VINA RESULT:      -4.8      2.470      3.190
REMARK  Name = 33344
REMARK  0 active torsions:
REMARK  status: ('A' for Active; 'I' for Inactive)
REMARK                            x       y       z     vdW  Elec       q    Type
REMARK                         _______ _______ _______ _____ _____    ______ ____
ROOT
ATOM      1 CL   UNL     1      34.526 -14.733 -21.117  0.00  0.00    -0.074 Cl
ATOM      2  S   UNL     1      34.715 -17.570 -22.056  0.00  0.00    -0.006 S 
ATOM      3  O   UNL     1      34.784 -16.702 -25.745  0.00  0.00    -0.269 OA
ATOM      4  N   UNL     1      34.787 -17.891 -23.722  0.00  0.00    -0.224 N 
ATOM      5  C   UNL     1      34.748 -16.762 -24.524  0.00  0.00    +0.260 C 
ATOM      6  C   UNL     1      34.881 -19.252 -24.200  0.00  0.00    +0.129 C 
ATOM      7  C   UNL     1      34.653 -15.548 -23.675  0.00  0.00    +0.078 C 
ATOM      8  C   UNL     1      34.629 -15.878 -22.381  0.00  0.00    +0.105 C 
ENDROOT
TORSDOF 0
ENDMDL
MODEL 6
REMARK VINA RESULT:      -4.8      3.305      3.709
REMARK  Name = 33344
REMARK  0 active torsions:
REMARK  status: ('A' for Active; 'I' for Inactive)
REMARK                            x       y       z     vdW  Elec       q    Type
REMARK                         _______ _______ _______ _____ _____    ______ ____
ROOT
ATOM      1 CL   UNL     1      34.605 -17.662 -25.446  0.00  0.00    -0.074 Cl
ATOM      2  S   UNL     1      34.262 -15.740 -23.176  0.00  0.00    -0.006 S 
ATOM      3  O   UNL     1      35.677 -18.068 -20.542  0.00  0.00    -0.269 OA
ATOM      4  N   UNL     1      34.738 -16.205 -21.614  0.00  0.00    -0.224 N 
ATOM      5  C   UNL     1      35.261 -17.485 -21.533  0.00  0.00    +0.260 C 
ATOM      6  C   UNL     1      34.584 -15.294 -20.502  0.00  0.00    +0.129 C 
ATOM      7  C   UNL     1      35.261 -18.112 -22.878  0.00  0.00    +0.078 C 
ATOM      8  C   UNL     1      34.757 -17.274 -23.789  0.00  0.00    +0.105 C 
ENDROOT
TORSDOF 0
ENDMDL
MODEL 7
REMARK VINA RESULT:      -4.8      3.661      4.484
REMARK  Name = 33344
REMARK  0 active torsions:
REMARK  status: ('A' for Active; 'I' for Inactive)
REMARK                            x       y       z     vdW  Elec       q    Type
REMARK                         _______ _______ _______ _____ _____    ______ ____
ROOT
ATOM      1 CL   UNL     1      34.637 -16.711 -25.386  0.00  0.00    -0.074 Cl
ATOM      2  S   UNL     1      34.854 -18.965 -23.427  0.00  0.00    -0.006 S 
ATOM      3  O   UNL     1      35.231 -16.736 -20.385  0.00  0.00    -0.269 OA
ATOM      4  N   UNL     1      35.051 -18.616 -21.777  0.00  0.00    -0.224 N 
ATOM      5  C   UNL     1      35.098 -17.263 -21.480  0.00  0.00    +0.260 C 
ATOM      6  C   UNL     1      35.156 -19.687 -20.811  0.00  0.00    +0.129 C 
ATOM      7  C   UNL     1      34.955 -16.472 -22.728  0.00  0.00    +0.078 C 
ATOM      8  C   UNL     1      34.824 -17.279 -23.785  0.00  0.00    +0.105 C 
ENDROOT
TORSDOF 0
ENDMDL
MODEL 8
REMARK VINA RESULT:      -4.8     11.370     11.579
REMARK  Name = 33344
REMARK  0 active torsions:
REMARK  status: ('A' for Active; 'I' for Inactive)
REMARK                            x       y       z     vdW  Elec       q    Type
REMARK                         _______ _______ _______ _____ _____    ______ ____
ROOT
ATOM      1 CL   UNL     1      40.557 -13.476 -14.149  0.00  0.00    -0.074 Cl
ATOM      2  S   UNL     1      42.442 -13.889 -16.438  0.00  0.00    -0.006 S 
ATOM      3  O   UNL     1      41.572 -17.543 -16.941  0.00  0.00    -0.269 OA
ATOM      4  N   UNL     1      42.540 -15.417 -17.170  0.00  0.00    -0.224 N 
ATOM      5  C   UNL     1      41.704 -16.372 -16.613  0.00  0.00    +0.260 C 
ATOM      6  C   UNL     1      43.441 -15.641 -18.277  0.00  0.00    +0.129 C 
ATOM      7  C   UNL     1      40.930 -15.771 -15.499  0.00  0.00    +0.078 C 
ATOM      8  C   UNL     1      41.254 -14.484 -15.340  0.00  0.00    +0.105 C 
ENDROOT
TORSDOF 0
ENDMDL
MODEL 9
REMARK VINA RESULT:      -4.7      2.811      3.340
REMARK  Name = 33344
REMARK  0 active torsions:
REMARK  status: ('A' for Active; 'I' for Inactive)
REMARK                            x       y       z     vdW  Elec       q    Type
REMARK                         _______ _______ _______ _____ _____    ______ ____
ROOT
ATOM      1 CL   UNL     1      34.883 -19.971 -20.633  0.00  0.00    -0.074 Cl
ATOM      2  S   UNL     1      34.758 -19.053 -23.480  0.00  0.00    -0.006 S 
ATOM      3  O   UNL     1      35.069 -15.365 -22.662  0.00  0.00    -0.269 OA
ATOM      4  N   UNL     1      34.852 -17.393 -23.823  0.00  0.00    -0.224 N 
ATOM      5  C   UNL     1      34.980 -16.584 -22.705  0.00  0.00    +0.260 C 
ATOM      6  C   UNL     1      34.796 -16.925 -25.190  0.00  0.00    +0.129 C 
ATOM      7  C   UNL     1      35.003 -17.423 -21.481  0.00  0.00    +0.078 C 
ATOM      8  C   UNL     1      34.892 -18.717 -21.794  0.00  0.00    +0.105 C 
ENDROOT
TORSDOF 0
ENDMDL
