MODEL 1
REMARK VINA RESULT:      -8.4      0.000      0.000
REMARK  Name = 62865
REMARK  5 active torsions:
REMARK  status: ('A' for Active; 'I' for Inactive)
REMARK    1  A    between atoms: N_2  and  C_17
REMARK    2  A    between atoms: C_11  and  C_16
REMARK    3  A    between atoms: C_17  and  C_18
REMARK    4  A    between atoms: C_18  and  C_20
REMARK    5  A    between atoms: C_20  and  N_21
REMARK                            x       y       z     vdW  Elec       q    Type
REMARK                         _______ _______ _______ _____ _____    ______ ____
ROOT
ATOM      1  S   UNL     1      33.283 -15.764 -26.044  0.00  0.00    -0.084 S 
ATOM      2  N   UNL     1      34.153 -14.875 -23.195  0.00  0.00    -0.286 N 
ATOM      3  C   UNL     1      33.965 -13.830 -24.135  0.00  0.00    +0.058 C 
ATOM      4  C   UNL     1      34.416 -16.229 -23.523  0.00  0.00    +0.058 C 
ATOM      5  C   UNL     1      33.592 -14.108 -25.465  0.00  0.00    +0.043 C 
ATOM      6  C   UNL     1      34.089 -16.745 -24.792  0.00  0.00    +0.043 C 
ATOM      7  C   UNL     1      34.173 -12.474 -23.797  0.00  0.00    +0.026 C 
ATOM      8  C   UNL     1      35.045 -17.110 -22.617  0.00  0.00    +0.015 C 
ATOM      9  C   UNL     1      33.414 -13.068 -26.395  0.00  0.00    +0.008 C 
ATOM     10  C   UNL     1      34.358 -18.086 -25.116  0.00  0.00    +0.008 C 
ATOM     11  C   UNL     1      33.998 -11.446 -24.727  0.00  0.00    +0.070 C 
ATOM     12  C   UNL     1      35.316 -18.441 -22.945  0.00  0.00    +0.001 C 
ATOM     13  C   UNL     1      33.616 -11.742 -26.026  0.00  0.00    +0.011 C 
ATOM     14  C   UNL     1      34.968 -18.931 -24.194  0.00  0.00    +0.001 C 
ENDROOT
BRANCH  11  16
ATOM     15  N   UNL     1      34.381  -8.982 -24.021  0.00  0.00    -0.191 NA
ATOM     16  C   UNL     1      34.209 -10.086 -24.338  0.00  0.00    +0.100 C 
ENDBRANCH  11  16
BRANCH   2  17
ATOM     17  C   UNL     1      34.145 -14.514 -21.771  0.00  0.00    +0.093 C 
BRANCH  17  18
ATOM     18  C   UNL     1      32.713 -14.342 -21.232  0.00  0.00    -0.001 C 
ATOM     19  C   UNL     1      32.188 -15.649 -20.626  0.00  0.00    -0.000 C 
BRANCH  18  20
ATOM     20  C   UNL     1      32.573 -13.197 -20.210  0.00  0.00    -0.076 C 
BRANCH  20  21
ATOM     21  N   UNL     1      31.452 -12.318 -20.524  0.00  0.00    +0.384 N 
ATOM     22  C   UNL     1      31.547 -11.835 -21.902  0.00  0.00    -0.101 C 
ATOM     23  C   UNL     1      31.404 -11.191 -19.592  0.00  0.00    -0.101 C 
ATOM     24  H   UNL     1      30.589 -12.855 -20.428  0.00  0.00    -0.080 HD
ENDBRANCH  20  21
ENDBRANCH  18  20
ENDBRANCH  17  18
ENDBRANCH   2  17
TORSDOF 5
ENDMDL
MODEL 2
REMARK VINA RESULT:      -7.6      4.188      7.494
REMARK  Name = 62865
REMARK  5 active torsions:
REMARK  status: ('A' for Active; 'I' for Inactive)
REMARK    1  A    between atoms: N_2  and  C_17
REMARK    2  A    between atoms: C_11  and  C_16
REMARK    3  A    between atoms: C_17  and  C_18
REMARK    4  A    between atoms: C_18  and  C_20
REMARK    5  A    between atoms: C_20  and  N_21
REMARK                            x       y       z     vdW  Elec       q    Type
REMARK                         _______ _______ _______ _____ _____    ______ ____
ROOT
ATOM      1  S   UNL     1      32.323  -7.515 -19.890  0.00  0.00    -0.084 S 
ATOM      2  N   UNL     1      32.058  -8.734 -22.737  0.00  0.00    -0.286 N 
ATOM      3  C   UNL     1      31.873  -7.331 -22.650  0.00  0.00    +0.058 C 
ATOM      4  C   UNL     1      31.906  -9.645 -21.663  0.00  0.00    +0.058 C 
ATOM      5  C   UNL     1      31.946  -6.665 -21.410  0.00  0.00    +0.043 C 
ATOM      6  C   UNL     1      31.982  -9.209 -20.325  0.00  0.00    +0.043 C 
ATOM      7  C   UNL     1      31.575  -6.543 -23.784  0.00  0.00    +0.026 C 
ATOM      8  C   UNL     1      31.638 -11.015 -21.874  0.00  0.00    +0.015 C 
ATOM      9  C   UNL     1      31.754  -5.274 -21.328  0.00  0.00    +0.008 C 
ATOM     10  C   UNL     1      31.823 -10.115 -19.262  0.00  0.00    +0.008 C 
ATOM     11  C   UNL     1      31.381  -5.163 -23.695  0.00  0.00    +0.070 C 
ATOM     12  C   UNL     1      31.475 -11.911 -20.814  0.00  0.00    +0.001 C 
ATOM     13  C   UNL     1      31.473  -4.526 -22.466  0.00  0.00    +0.011 C 
ATOM     14  C   UNL     1      31.572 -11.462 -19.507  0.00  0.00    +0.001 C 
ENDROOT
BRANCH  11  16
ATOM     15  N   UNL     1      30.858  -3.786 -25.827  0.00  0.00    -0.191 NA
ATOM     16  C   UNL     1      31.092  -4.403 -24.871  0.00  0.00    +0.100 C 
ENDBRANCH  11  16
BRANCH   2  17
ATOM     17  C   UNL     1      32.363  -9.295 -24.061  0.00  0.00    +0.093 C 
BRANCH  17  18
ATOM     18  C   UNL     1      33.878  -9.342 -24.328  0.00  0.00    -0.001 C 
ATOM     19  C   UNL     1      34.626  -8.318 -23.467  0.00  0.00    -0.000 C 
BRANCH  18  20
ATOM     20  C   UNL     1      34.495 -10.741 -24.133  0.00  0.00    -0.076 C 
BRANCH  20  21
ATOM     21  N   UNL     1      33.644 -11.794 -24.675  0.00  0.00    +0.384 N 
ATOM     22  C   UNL     1      33.866 -13.053 -23.963  0.00  0.00    -0.101 C 
ATOM     23  C   UNL     1      33.890 -11.970 -26.107  0.00  0.00    -0.101 C 
ATOM     24  H   UNL     1      32.670 -11.517 -24.546  0.00  0.00    -0.080 HD
ENDBRANCH  20  21
ENDBRANCH  18  20
ENDBRANCH  17  18
ENDBRANCH   2  17
TORSDOF 5
ENDMDL
MODEL 3
REMARK VINA RESULT:      -7.3     10.306     13.313
REMARK  Name = 62865
REMARK  5 active torsions:
REMARK  status: ('A' for Active; 'I' for Inactive)
REMARK    1  A    between atoms: N_2  and  C_17
REMARK    2  A    between atoms: C_11  and  C_16
REMARK    3  A    between atoms: C_17  and  C_18
REMARK    4  A    between atoms: C_18  and  C_20
REMARK    5  A    between atoms: C_20  and  N_21
REMARK                            x       y       z     vdW  Elec       q    Type
REMARK                         _______ _______ _______ _____ _____    ______ ____
ROOT
ATOM      1  S   UNL     1      37.149 -21.998 -16.311  0.00  0.00    -0.084 S 
ATOM      2  N   UNL     1      34.254 -22.836 -15.550  0.00  0.00    -0.286 N 
ATOM      3  C   UNL     1      35.253 -23.140 -14.591  0.00  0.00    +0.058 C 
ATOM      4  C   UNL     1      34.487 -22.617 -16.931  0.00  0.00    +0.058 C 
ATOM      5  C   UNL     1      36.607 -22.830 -14.831  0.00  0.00    +0.043 C 
ATOM      6  C   UNL     1      35.764 -22.256 -17.403  0.00  0.00    +0.043 C 
ATOM      7  C   UNL     1      34.951 -23.793 -13.376  0.00  0.00    +0.026 C 
ATOM      8  C   UNL     1      33.471 -22.784 -17.897  0.00  0.00    +0.015 C 
ATOM      9  C   UNL     1      37.596 -23.141 -13.881  0.00  0.00    +0.008 C 
ATOM     10  C   UNL     1      35.993 -22.048 -18.775  0.00  0.00    +0.008 C 
ATOM     11  C   UNL     1      35.938 -24.104 -12.438  0.00  0.00    +0.070 C 
ATOM     12  C   UNL     1      33.705 -22.581 -19.260  0.00  0.00    +0.001 C 
ATOM     13  C   UNL     1      37.262 -23.775 -12.689  0.00  0.00    +0.011 C 
ATOM     14  C   UNL     1      34.966 -22.209 -19.699  0.00  0.00    +0.001 C 
ENDROOT
BRANCH  11  16
ATOM     15  N   UNL     1      35.297 -25.284 -10.223  0.00  0.00    -0.191 NA
ATOM     16  C   UNL     1      35.584 -24.756 -11.216  0.00  0.00    +0.100 C 
ENDBRANCH  11  16
BRANCH   2  17
ATOM     17  C   UNL     1      32.859 -22.813 -15.088  0.00  0.00    +0.093 C 
BRANCH  17  18
ATOM     18  C   UNL     1      32.185 -24.190 -15.234  0.00  0.00    -0.001 C 
ATOM     19  C   UNL     1      32.030 -24.879 -13.874  0.00  0.00    -0.000 C 
BRANCH  18  20
ATOM     20  C   UNL     1      30.823 -24.136 -15.953  0.00  0.00    -0.076 C 
BRANCH  20  21
ATOM     21  N   UNL     1      29.731 -23.834 -15.034  0.00  0.00    +0.384 N 
ATOM     22  C   UNL     1      28.782 -24.947 -14.979  0.00  0.00    -0.101 C 
ATOM     23  C   UNL     1      29.048 -22.603 -15.433  0.00  0.00    -0.101 C 
ATOM     24  H   UNL     1      30.125 -23.699 -14.103  0.00  0.00    -0.080 HD
ENDBRANCH  20  21
ENDBRANCH  18  20
ENDBRANCH  17  18
ENDBRANCH   2  17
TORSDOF 5
ENDMDL
MODEL 4
REMARK VINA RESULT:      -7.1      9.911     13.087
REMARK  Name = 62865
REMARK  5 active torsions:
REMARK  status: ('A' for Active; 'I' for Inactive)
REMARK    1  A    between atoms: N_2  and  C_17
REMARK    2  A    between atoms: C_11  and  C_16
REMARK    3  A    between atoms: C_17  and  C_18
REMARK    4  A    between atoms: C_18  and  C_20
REMARK    5  A    between atoms: C_20  and  N_21
REMARK                            x       y       z     vdW  Elec       q    Type
REMARK                         _______ _______ _______ _____ _____    ______ ____
ROOT
ATOM      1  S   UNL     1      34.343 -23.824 -12.461  0.00  0.00    -0.084 S 
ATOM      2  N   UNL     1      34.640 -24.061 -15.546  0.00  0.00    -0.286 N 
ATOM      3  C   UNL     1      33.356 -23.682 -15.080  0.00  0.00    +0.058 C 
ATOM      4  C   UNL     1      35.616 -24.746 -14.781  0.00  0.00    +0.058 C 
ATOM      5  C   UNL     1      33.090 -23.563 -13.701  0.00  0.00    +0.043 C 
ATOM      6  C   UNL     1      35.575 -24.733 -13.373  0.00  0.00    +0.043 C 
ATOM      7  C   UNL     1      32.280 -23.442 -15.963  0.00  0.00    +0.026 C 
ATOM      8  C   UNL     1      36.648 -25.498 -15.384  0.00  0.00    +0.015 C 
ATOM      9  C   UNL     1      31.812 -23.195 -13.243  0.00  0.00    +0.008 C 
ATOM     10  C   UNL     1      36.541 -25.421 -12.617  0.00  0.00    +0.008 C 
ATOM     11  C   UNL     1      31.011 -23.080 -15.502  0.00  0.00    +0.070 C 
ATOM     12  C   UNL     1      37.603 -26.184 -14.629  0.00  0.00    +0.001 C 
ATOM     13  C   UNL     1      30.778 -22.954 -14.141  0.00  0.00    +0.011 C 
ATOM     14  C   UNL     1      37.552 -26.142 -13.245  0.00  0.00    +0.001 C 
ENDROOT
BRANCH  11  16
ATOM     15  N   UNL     1      29.097 -22.637 -17.190  0.00  0.00    -0.191 NA
ATOM     16  C   UNL     1      29.954 -22.836 -16.433  0.00  0.00    +0.100 C 
ENDBRANCH  11  16
BRANCH   2  17
ATOM     17  C   UNL     1      34.957 -23.783 -16.954  0.00  0.00    +0.093 C 
BRANCH  17  18
ATOM     18  C   UNL     1      35.457 -22.341 -17.155  0.00  0.00    -0.001 C 
ATOM     19  C   UNL     1      36.649 -22.035 -16.241  0.00  0.00    -0.000 C 
BRANCH  18  20
ATOM     20  C   UNL     1      35.819 -22.013 -18.616  0.00  0.00    -0.076 C 
BRANCH  20  21
ATOM     21  N   UNL     1      34.923 -21.016 -19.191  0.00  0.00    +0.384 N 
ATOM     22  C   UNL     1      33.624 -21.612 -19.505  0.00  0.00    -0.101 C 
ATOM     23  C   UNL     1      35.514 -20.424 -20.392  0.00  0.00    -0.101 C 
ATOM     24  H   UNL     1      34.782 -20.277 -18.502  0.00  0.00    -0.080 HD
ENDBRANCH  20  21
ENDBRANCH  18  20
ENDBRANCH  17  18
ENDBRANCH   2  17
TORSDOF 5
ENDMDL
MODEL 5
REMARK VINA RESULT:      -7.1     10.260     13.455
REMARK  Name = 62865
REMARK  5 active torsions:
REMARK  status: ('A' for Active; 'I' for Inactive)
REMARK    1  A    between atoms: N_2  and  C_17
REMARK    2  A    between atoms: C_11  and  C_16
REMARK    3  A    between atoms: C_17  and  C_18
REMARK    4  A    between atoms: C_18  and  C_20
REMARK    5  A    between atoms: C_20  and  N_21
REMARK                            x       y       z     vdW  Elec       q    Type
REMARK                         _______ _______ _______ _____ _____    ______ ____
ROOT
ATOM      1  S   UNL     1      33.374 -23.158 -18.142  0.00  0.00    -0.084 S 
ATOM      2  N   UNL     1      34.762 -23.125 -15.361  0.00  0.00    -0.286 N 
ATOM      3  C   UNL     1      33.358 -23.322 -15.345  0.00  0.00    +0.058 C 
ATOM      4  C   UNL     1      35.489 -22.520 -16.417  0.00  0.00    +0.058 C 
ATOM      5  C   UNL     1      32.613 -23.334 -16.540  0.00  0.00    +0.043 C 
ATOM      6  C   UNL     1      34.955 -22.452 -17.719  0.00  0.00    +0.043 C 
ATOM      7  C   UNL     1      32.639 -23.480 -14.139  0.00  0.00    +0.026 C 
ATOM      8  C   UNL     1      36.755 -21.930 -16.213  0.00  0.00    +0.015 C 
ATOM      9  C   UNL     1      31.219 -23.522 -16.518  0.00  0.00    +0.008 C 
ATOM     10  C   UNL     1      35.676 -21.845 -18.763  0.00  0.00    +0.008 C 
ATOM     11  C   UNL     1      31.253 -23.661 -14.124  0.00  0.00    +0.070 C 
ATOM     12  C   UNL     1      37.466 -21.324 -17.252  0.00  0.00    +0.001 C 
ATOM     13  C   UNL     1      30.543 -23.686 -15.314  0.00  0.00    +0.011 C 
ATOM     14  C   UNL     1      36.928 -21.284 -18.529  0.00  0.00    +0.001 C 
ENDROOT
BRANCH  11  16
ATOM     15  N   UNL     1      30.011 -23.963 -11.870  0.00  0.00    -0.191 NA
ATOM     16  C   UNL     1      30.568 -23.828 -12.880  0.00  0.00    +0.100 C 
ENDBRANCH  11  16
BRANCH   2  17
ATOM     17  C   UNL     1      35.514 -23.514 -14.159  0.00  0.00    +0.093 C 
BRANCH  17  18
ATOM     18  C   UNL     1      35.694 -25.040 -14.066  0.00  0.00    -0.001 C 
ATOM     19  C   UNL     1      36.012 -25.646 -15.437  0.00  0.00    -0.000 C 
BRANCH  18  20
ATOM     20  C   UNL     1      36.760 -25.472 -13.041  0.00  0.00    -0.076 C 
BRANCH  20  21
ATOM     21  N   UNL     1      37.971 -24.665 -13.137  0.00  0.00    +0.384 N 
ATOM     22  C   UNL     1      39.121 -25.501 -13.484  0.00  0.00    -0.101 C 
ATOM     23  C   UNL     1      38.219 -23.956 -11.881  0.00  0.00    -0.101 C 
ATOM     24  H   UNL     1      37.837 -23.975 -13.877  0.00  0.00    -0.080 HD
ENDBRANCH  20  21
ENDBRANCH  18  20
ENDBRANCH  17  18
ENDBRANCH   2  17
TORSDOF 5
ENDMDL
MODEL 6
REMARK VINA RESULT:      -7.0     10.245     12.936
REMARK  Name = 62865
REMARK  5 active torsions:
REMARK  status: ('A' for Active; 'I' for Inactive)
REMARK    1  A    between atoms: N_2  and  C_17
REMARK    2  A    between atoms: C_11  and  C_16
REMARK    3  A    between atoms: C_17  and  C_18
REMARK    4  A    between atoms: C_18  and  C_20
REMARK    5  A    between atoms: C_20  and  N_21
REMARK                            x       y       z     vdW  Elec       q    Type
REMARK                         _______ _______ _______ _____ _____    ______ ____
ROOT
ATOM      1  S   UNL     1      37.750 -23.047 -15.255  0.00  0.00    -0.084 S 
ATOM      2  N   UNL     1      34.754 -23.855 -15.065  0.00  0.00    -0.286 N 
ATOM      3  C   UNL     1      35.126 -23.145 -16.235  0.00  0.00    +0.058 C 
ATOM      4  C   UNL     1      35.463 -23.835 -13.838  0.00  0.00    +0.058 C 
ATOM      5  C   UNL     1      36.451 -22.705 -16.426  0.00  0.00    +0.043 C 
ATOM      6  C   UNL     1      36.821 -23.462 -13.791  0.00  0.00    +0.043 C 
ATOM      7  C   UNL     1      34.190 -22.817 -17.240  0.00  0.00    +0.026 C 
ATOM      8  C   UNL     1      34.843 -24.148 -12.609  0.00  0.00    +0.015 C 
ATOM      9  C   UNL     1      36.813 -21.994 -17.584  0.00  0.00    +0.008 C 
ATOM     10  C   UNL     1      37.520 -23.436 -12.571  0.00  0.00    +0.008 C 
ATOM     11  C   UNL     1      34.556 -22.107 -18.387  0.00  0.00    +0.070 C 
ATOM     12  C   UNL     1      35.540 -24.116 -11.398  0.00  0.00    +0.001 C 
ATOM     13  C   UNL     1      35.869 -21.697 -18.561  0.00  0.00    +0.011 C 
ATOM     14  C   UNL     1      36.880 -23.764 -11.379  0.00  0.00    +0.001 C 
ENDROOT
BRANCH  11  16
ATOM     15  N   UNL     1      32.781 -21.562 -20.194  0.00  0.00    -0.191 NA
ATOM     16  C   UNL     1      33.577 -21.806 -19.385  0.00  0.00    +0.100 C 
ENDBRANCH  11  16
BRANCH   2  17
ATOM     17  C   UNL     1      33.497 -24.615 -15.106  0.00  0.00    +0.093 C 
BRANCH  17  18
ATOM     18  C   UNL     1      32.441 -24.029 -14.152  0.00  0.00    -0.001 C 
ATOM     19  C   UNL     1      31.967 -22.651 -14.627  0.00  0.00    -0.000 C 
BRANCH  18  20
ATOM     20  C   UNL     1      31.228 -24.954 -13.933  0.00  0.00    -0.076 C 
BRANCH  20  21
ATOM     21  N   UNL     1      30.166 -24.702 -14.900  0.00  0.00    +0.384 N 
ATOM     22  C   UNL     1      28.855 -24.754 -14.251  0.00  0.00    -0.101 C 
ATOM     23  C   UNL     1      30.229 -25.668 -15.997  0.00  0.00    -0.101 C 
ATOM     24  H   UNL     1      30.300 -23.766 -15.284  0.00  0.00    -0.080 HD
ENDBRANCH  20  21
ENDBRANCH  18  20
ENDBRANCH  17  18
ENDBRANCH   2  17
TORSDOF 5
ENDMDL
MODEL 7
REMARK VINA RESULT:      -7.0      2.100      5.881
REMARK  Name = 62865
REMARK  5 active torsions:
REMARK  status: ('A' for Active; 'I' for Inactive)
REMARK    1  A    between atoms: N_2  and  C_17
REMARK    2  A    between atoms: C_11  and  C_16
REMARK    3  A    between atoms: C_17  and  C_18
REMARK    4  A    between atoms: C_18  and  C_20
REMARK    5  A    between atoms: C_20  and  N_21
REMARK                            x       y       z     vdW  Elec       q    Type
REMARK                         _______ _______ _______ _____ _____    ______ ____
ROOT
ATOM      1  S   UNL     1      33.501  -9.959 -23.412  0.00  0.00    -0.084 S 
ATOM      2  N   UNL     1      32.570 -12.635 -22.134  0.00  0.00    -0.286 N 
ATOM      3  C   UNL     1      32.877 -12.689 -23.517  0.00  0.00    +0.058 C 
ATOM      4  C   UNL     1      32.224 -11.461 -21.420  0.00  0.00    +0.058 C 
ATOM      5  C   UNL     1      33.288 -11.536 -24.214  0.00  0.00    +0.043 C 
ATOM      6  C   UNL     1      32.569 -10.186 -21.910  0.00  0.00    +0.043 C 
ATOM      7  C   UNL     1      32.754 -13.881 -24.265  0.00  0.00    +0.026 C 
ATOM      8  C   UNL     1      31.491 -11.506 -20.214  0.00  0.00    +0.015 C 
ATOM      9  C   UNL     1      33.584 -11.592 -25.588  0.00  0.00    +0.008 C 
ATOM     10  C   UNL     1      32.217  -9.023 -21.202  0.00  0.00    +0.008 C 
ATOM     11  C   UNL     1      33.045 -13.929 -25.631  0.00  0.00    +0.070 C 
ATOM     12  C   UNL     1      31.139 -10.347 -19.517  0.00  0.00    +0.001 C 
ATOM     13  C   UNL     1      33.463 -12.785 -26.293  0.00  0.00    +0.011 C 
ATOM     14  C   UNL     1      31.505  -9.105 -20.009  0.00  0.00    +0.001 C 
ENDROOT
BRANCH  11  16
ATOM     15  N   UNL     1      32.813 -16.161 -26.926  0.00  0.00    -0.191 NA
ATOM     16  C   UNL     1      32.918 -15.161 -26.346  0.00  0.00    +0.100 C 
ENDBRANCH  11  16
BRANCH   2  17
ATOM     17  C   UNL     1      32.540 -13.907 -21.398  0.00  0.00    +0.093 C 
BRANCH  17  18
ATOM     18  C   UNL     1      33.879 -14.660 -21.500  0.00  0.00    -0.001 C 
ATOM     19  C   UNL     1      34.726 -14.461 -20.238  0.00  0.00    -0.000 C 
BRANCH  18  20
ATOM     20  C   UNL     1      33.720 -16.164 -21.793  0.00  0.00    -0.076 C 
BRANCH  20  21
ATOM     21  N   UNL     1      34.953 -16.757 -22.298  0.00  0.00    +0.384 N 
ATOM     22  C   UNL     1      34.799 -17.148 -23.700  0.00  0.00    -0.101 C 
ATOM     23  C   UNL     1      35.339 -17.913 -21.487  0.00  0.00    -0.101 C 
ATOM     24  H   UNL     1      35.692 -16.057 -22.237  0.00  0.00    -0.080 HD
ENDBRANCH  20  21
ENDBRANCH  18  20
ENDBRANCH  17  18
ENDBRANCH   2  17
TORSDOF 5
ENDMDL
MODEL 8
REMARK VINA RESULT:      -7.0      2.311      6.796
REMARK  Name = 62865
REMARK  5 active torsions:
REMARK  status: ('A' for Active; 'I' for Inactive)
REMARK    1  A    between atoms: N_2  and  C_17
REMARK    2  A    between atoms: C_11  and  C_16
REMARK    3  A    between atoms: C_17  and  C_18
REMARK    4  A    between atoms: C_18  and  C_20
REMARK    5  A    between atoms: C_20  and  N_21
REMARK                            x       y       z     vdW  Elec       q    Type
REMARK                         _______ _______ _______ _____ _____    ______ ____
ROOT
ATOM      1  S   UNL     1      31.227 -11.495 -21.286  0.00  0.00    -0.084 S 
ATOM      2  N   UNL     1      33.428 -12.054 -23.408  0.00  0.00    -0.286 N 
ATOM      3  C   UNL     1      33.253 -13.060 -22.424  0.00  0.00    +0.058 C 
ATOM      4  C   UNL     1      33.044 -10.697 -23.265  0.00  0.00    +0.058 C 
ATOM      5  C   UNL     1      32.302 -12.912 -21.396  0.00  0.00    +0.043 C 
ATOM      6  C   UNL     1      32.072 -10.314 -22.319  0.00  0.00    +0.043 C 
ATOM      7  C   UNL     1      34.040 -14.233 -22.406  0.00  0.00    +0.026 C 
ATOM      8  C   UNL     1      33.635  -9.667 -24.028  0.00  0.00    +0.015 C 
ATOM      9  C   UNL     1      32.138 -13.909 -20.417  0.00  0.00    +0.008 C 
ATOM     10  C   UNL     1      31.700  -8.966 -22.175  0.00  0.00    +0.008 C 
ATOM     11  C   UNL     1      33.875 -15.218 -21.429  0.00  0.00    +0.070 C 
ATOM     12  C   UNL     1      33.265  -8.328 -23.877  0.00  0.00    +0.001 C 
ATOM     13  C   UNL     1      32.921 -15.058 -20.435  0.00  0.00    +0.011 C 
ATOM     14  C   UNL     1      32.294  -7.977 -22.953  0.00  0.00    +0.001 C 
ENDROOT
BRANCH  11  16
ATOM     15  N   UNL     1      35.345 -17.351 -21.477  0.00  0.00    -0.191 NA
ATOM     16  C   UNL     1      34.686 -16.395 -21.456  0.00  0.00    +0.100 C 
ENDBRANCH  11  16
BRANCH   2  17
ATOM     17  C   UNL     1      34.125 -12.432 -24.645  0.00  0.00    +0.093 C 
BRANCH  17  18
ATOM     18  C   UNL     1      33.154 -12.983 -25.705  0.00  0.00    -0.001 C 
ATOM     19  C   UNL     1      33.784 -12.958 -27.102  0.00  0.00    -0.000 C 
BRANCH  18  20
ATOM     20  C   UNL     1      32.636 -14.399 -25.389  0.00  0.00    -0.076 C 
BRANCH  20  21
ATOM     21  N   UNL     1      33.337 -15.422 -26.156  0.00  0.00    +0.384 N 
ATOM     22  C   UNL     1      32.383 -16.322 -26.806  0.00  0.00    -0.101 C 
ATOM     23  C   UNL     1      34.244 -16.181 -25.294  0.00  0.00    -0.101 C 
ATOM     24  H   UNL     1      33.888 -14.958 -26.878  0.00  0.00    -0.080 HD
ENDBRANCH  20  21
ENDBRANCH  18  20
ENDBRANCH  17  18
ENDBRANCH   2  17
TORSDOF 5
ENDMDL
MODEL 9
REMARK VINA RESULT:      -6.8      9.345     12.811
REMARK  Name = 62865
REMARK  5 active torsions:
REMARK  status: ('A' for Active; 'I' for Inactive)
REMARK    1  A    between atoms: N_2  and  C_17
REMARK    2  A    between atoms: C_11  and  C_16
REMARK    3  A    between atoms: C_17  and  C_18
REMARK    4  A    between atoms: C_18  and  C_20
REMARK    5  A    between atoms: C_20  and  N_21
REMARK                            x       y       z     vdW  Elec       q    Type
REMARK                         _______ _______ _______ _____ _____    ______ ____
ROOT
ATOM      1  S   UNL     1      32.312 -24.639 -13.534  0.00  0.00    -0.084 S 
ATOM      2  N   UNL     1      33.318 -23.715 -16.326  0.00  0.00    -0.286 N 
ATOM      3  C   UNL     1      34.328 -24.012 -15.377  0.00  0.00    +0.058 C 
ATOM      4  C   UNL     1      31.978 -23.375 -16.013  0.00  0.00    +0.058 C 
ATOM      5  C   UNL     1      33.998 -24.419 -14.069  0.00  0.00    +0.043 C 
ATOM      6  C   UNL     1      31.415 -23.718 -14.768  0.00  0.00    +0.043 C 
ATOM      7  C   UNL     1      35.702 -23.883 -15.680  0.00  0.00    +0.026 C 
ATOM      8  C   UNL     1      31.160 -22.651 -16.907  0.00  0.00    +0.015 C 
ATOM      9  C   UNL     1      35.003 -24.705 -13.128  0.00  0.00    +0.008 C 
ATOM     10  C   UNL     1      30.088 -23.372 -14.458  0.00  0.00    +0.008 C 
ATOM     11  C   UNL     1      36.696 -24.164 -14.740  0.00  0.00    +0.070 C 
ATOM     12  C   UNL     1      29.843 -22.305 -16.593  0.00  0.00    +0.001 C 
ATOM     13  C   UNL     1      36.347 -24.578 -13.464  0.00  0.00    +0.011 C 
ATOM     14  C   UNL     1      29.305 -22.669 -15.368  0.00  0.00    +0.001 C 
ENDROOT
BRANCH  11  16
ATOM     15  N   UNL     1      39.194 -23.921 -15.382  0.00  0.00    -0.191 NA
ATOM     16  C   UNL     1      38.075 -24.030 -15.095  0.00  0.00    +0.100 C 
ENDBRANCH  11  16
BRANCH   2  17
ATOM     17  C   UNL     1      33.708 -23.690 -17.743  0.00  0.00    +0.093 C 
BRANCH  17  18
ATOM     18  C   UNL     1      34.120 -22.278 -18.199  0.00  0.00    -0.001 C 
ATOM     19  C   UNL     1      35.637 -22.083 -18.099  0.00  0.00    -0.000 C 
BRANCH  18  20
ATOM     20  C   UNL     1      33.638 -21.924 -19.619  0.00  0.00    -0.076 C 
BRANCH  20  21
ATOM     21  N   UNL     1      33.831 -20.512 -19.926  0.00  0.00    +0.384 N 
ATOM     22  C   UNL     1      32.637 -19.955 -20.562  0.00  0.00    -0.101 C 
ATOM     23  C   UNL     1      34.999 -20.327 -20.789  0.00  0.00    -0.101 C 
ATOM     24  H   UNL     1      33.993 -20.014 -19.050  0.00  0.00    -0.080 HD
ENDBRANCH  20  21
ENDBRANCH  18  20
ENDBRANCH  17  18
ENDBRANCH   2  17
TORSDOF 5
ENDMDL
