MODEL 1
REMARK VINA RESULT:      -7.3      0.000      0.000
REMARK  Name = 447406
REMARK  7 active torsions:
REMARK  status: ('A' for Active; 'I' for Inactive)
REMARK    1  A    between atoms: C_2  and  O_12
REMARK    2  A    between atoms: C_3  and  O_16
REMARK    3  A    between atoms: C_4  and  N_8
REMARK    4  A    between atoms: C_5  and  C_21
REMARK    5  A    between atoms: C_6  and  O_14
REMARK    6  A    between atoms: O_16  and  S_17
REMARK    7  A    between atoms: C_21  and  O_22
REMARK                            x       y       z     vdW  Elec       q    Type
REMARK                         _______ _______ _______ _____ _____    ______ ____
ROOT
ATOM      1  O   UNL     1      35.255 -24.697 -14.866  0.00  0.00    -0.327 OA
ATOM      2  C   UNL     1      37.489 -22.860 -14.683  0.00  0.00    +0.165 C 
ATOM      3  C   UNL     1      37.677 -24.372 -14.843  0.00  0.00    +0.205 C 
ATOM      4  C   UNL     1      36.116 -22.431 -15.212  0.00  0.00    +0.158 C 
ATOM      5  C   UNL     1      36.485 -25.194 -14.327  0.00  0.00    +0.179 C 
ATOM      6  C   UNL     1      35.008 -23.313 -14.613  0.00  0.00    +0.253 C 
ENDROOT
BRANCH   4   8
ATOM      7  O   UNL     1      37.372 -20.565 -17.052  0.00  0.00    -0.275 OA
ATOM      8  N   UNL     1      36.094 -22.471 -16.660  0.00  0.00    -0.299 N 
ATOM      9  C   UNL     1      36.727 -21.530 -17.455  0.00  0.00    +0.223 C 
ATOM     10  C   UNL     1      36.568 -21.823 -18.923  0.00  0.00    +0.095 C 
ATOM     11  H   UNL     1      35.606 -23.204 -17.100  0.00  0.00    +0.150 HD
ENDBRANCH   4   8
BRANCH   2  12
ATOM     12  O   UNL     1      37.596 -22.501 -13.307  0.00  0.00    -0.380 OA
ATOM     13  H   UNL     1      38.449 -22.807 -12.958  0.00  0.00    +0.211 HD
ENDBRANCH   2  12
BRANCH   6  14
ATOM     14  O   UNL     1      33.753 -22.917 -15.167  0.00  0.00    -0.359 OA
ATOM     15  H   UNL     1      33.163 -22.629 -14.453  0.00  0.00    +0.213 HD
ENDBRANCH   6  14
BRANCH   3  16
ATOM     16  O   UNL     1      38.896 -24.776 -14.233  0.00  0.00    -0.198 OA
BRANCH  16  17
ATOM     17  S   UNL     1      39.686 -26.082 -14.805  0.00  0.00    +0.239 S 
ATOM     18  O   UNL     1      40.868 -26.327 -13.708  0.00  0.00    -0.116 OA
ATOM     19  O   UNL     1      38.774 -27.209 -14.721  0.00  0.00    -0.116 OA
ATOM     20  O   UNL     1      40.312 -25.744 -16.069  0.00  0.00    -0.022 OA
ENDBRANCH  16  17
ENDBRANCH   3  16
BRANCH   5  21
ATOM     21  C   UNL     1      36.402 -25.357 -12.809  0.00  0.00    +0.169 C 
BRANCH  21  22
ATOM     22  O   UNL     1      36.967 -26.608 -12.459  0.00  0.00    -0.379 OA
ATOM     23  H   UNL     1      36.298 -27.304 -12.560  0.00  0.00    +0.211 HD
ENDBRANCH  21  22
ENDBRANCH   5  21
TORSDOF 7
ENDMDL
MODEL 2
REMARK VINA RESULT:      -6.9      2.734      4.119
REMARK  Name = 447406
REMARK  7 active torsions:
REMARK  status: ('A' for Active; 'I' for Inactive)
REMARK    1  A    between atoms: C_2  and  O_12
REMARK    2  A    between atoms: C_3  and  O_16
REMARK    3  A    between atoms: C_4  and  N_8
REMARK    4  A    between atoms: C_5  and  C_21
REMARK    5  A    between atoms: C_6  and  O_14
REMARK    6  A    between atoms: O_16  and  S_17
REMARK    7  A    between atoms: C_21  and  O_22
REMARK                            x       y       z     vdW  Elec       q    Type
REMARK                         _______ _______ _______ _____ _____    ______ ____
ROOT
ATOM      1  O   UNL     1      34.088 -24.201 -12.595  0.00  0.00    -0.327 OA
ATOM      2  C   UNL     1      34.399 -23.838 -15.453  0.00  0.00    +0.165 C 
ATOM      3  C   UNL     1      35.182 -24.896 -14.667  0.00  0.00    +0.205 C 
ATOM      4  C   UNL     1      33.109 -23.467 -14.715  0.00  0.00    +0.158 C 
ATOM      5  C   UNL     1      35.348 -24.551 -13.179  0.00  0.00    +0.179 C 
ATOM      6  C   UNL     1      33.407 -23.128 -13.246  0.00  0.00    +0.253 C 
ENDROOT
BRANCH   4   8
ATOM      7  O   UNL     1      30.218 -23.219 -14.886  0.00  0.00    -0.275 OA
ATOM      8  N   UNL     1      32.138 -24.535 -14.821  0.00  0.00    -0.299 N 
ATOM      9  C   UNL     1      30.772 -24.315 -14.897  0.00  0.00    +0.223 C 
ATOM     10  C   UNL     1      29.993 -25.597 -15.027  0.00  0.00    +0.095 C 
ATOM     11  H   UNL     1      32.463 -25.464 -14.841  0.00  0.00    +0.150 HD
ENDBRANCH   4   8
BRANCH   2  12
ATOM     12  O   UNL     1      35.200 -22.669 -15.621  0.00  0.00    -0.380 OA
ATOM     13  H   UNL     1      35.046 -22.062 -14.879  0.00  0.00    +0.211 HD
ENDBRANCH   2  12
BRANCH   6  14
ATOM     14  O   UNL     1      32.177 -22.836 -12.581  0.00  0.00    -0.359 OA
ATOM     15  H   UNL     1      31.507 -23.487 -12.843  0.00  0.00    +0.213 HD
ENDBRANCH   6  14
BRANCH   3  16
ATOM     16  O   UNL     1      36.435 -25.137 -15.293  0.00  0.00    -0.198 OA
BRANCH  16  17
ATOM     17  S   UNL     1      37.139 -26.599 -15.143  0.00  0.00    +0.239 S 
ATOM     18  O   UNL     1      38.731 -26.277 -15.295  0.00  0.00    -0.116 OA
ATOM     19  O   UNL     1      36.914 -27.049 -13.781  0.00  0.00    -0.116 OA
ATOM     20  O   UNL     1      36.743 -27.435 -16.261  0.00  0.00    -0.022 OA
ENDBRANCH  16  17
ENDBRANCH   3  16
BRANCH   5  21
ATOM     21  C   UNL     1      36.420 -23.509 -12.857  0.00  0.00    +0.169 C 
BRANCH  21  22
ATOM     22  O   UNL     1      37.661 -24.174 -12.699  0.00  0.00    -0.379 OA
ATOM     23  H   UNL     1      37.624 -24.748 -11.918  0.00  0.00    +0.211 HD
ENDBRANCH  21  22
ENDBRANCH   5  21
TORSDOF 7
ENDMDL
MODEL 3
REMARK VINA RESULT:      -6.9      2.329      4.266
REMARK  Name = 447406
REMARK  7 active torsions:
REMARK  status: ('A' for Active; 'I' for Inactive)
REMARK    1  A    between atoms: C_2  and  O_12
REMARK    2  A    between atoms: C_3  and  O_16
REMARK    3  A    between atoms: C_4  and  N_8
REMARK    4  A    between atoms: C_5  and  C_21
REMARK    5  A    between atoms: C_6  and  O_14
REMARK    6  A    between atoms: O_16  and  S_17
REMARK    7  A    between atoms: C_21  and  O_22
REMARK                            x       y       z     vdW  Elec       q    Type
REMARK                         _______ _______ _______ _____ _____    ______ ____
ROOT
ATOM      1  O   UNL     1      35.497 -22.109 -15.973  0.00  0.00    -0.327 OA
ATOM      2  C   UNL     1      35.754 -24.695 -14.691  0.00  0.00    +0.165 C 
ATOM      3  C   UNL     1      36.549 -23.467 -14.234  0.00  0.00    +0.205 C 
ATOM      4  C   UNL     1      34.479 -24.267 -15.424  0.00  0.00    +0.158 C 
ATOM      5  C   UNL     1      36.744 -22.420 -15.343  0.00  0.00    +0.179 C 
ATOM      6  C   UNL     1      34.806 -23.235 -16.515  0.00  0.00    +0.253 C 
ENDROOT
BRANCH   4   8
ATOM      7  O   UNL     1      31.584 -24.352 -15.659  0.00  0.00    -0.275 OA
ATOM      8  N   UNL     1      33.503 -23.750 -14.487  0.00  0.00    -0.299 N 
ATOM      9  C   UNL     1      32.135 -23.839 -14.690  0.00  0.00    +0.223 C 
ATOM     10  C   UNL     1      31.350 -23.246 -13.550  0.00  0.00    +0.095 C 
ATOM     11  H   UNL     1      33.827 -23.315 -13.666  0.00  0.00    +0.150 HD
ENDBRANCH   4   8
BRANCH   2  12
ATOM     12  O   UNL     1      36.554 -25.493 -15.562  0.00  0.00    -0.380 OA
ATOM     13  H   UNL     1      36.026 -26.235 -15.897  0.00  0.00    +0.211 HD
ENDBRANCH   2  12
BRANCH   6  14
ATOM     14  O   UNL     1      33.590 -22.825 -17.141  0.00  0.00    -0.359 OA
ATOM     15  H   UNL     1      33.564 -21.856 -17.191  0.00  0.00    +0.213 HD
ENDBRANCH   6  14
BRANCH   3  16
ATOM     16  O   UNL     1      37.789 -23.873 -13.672  0.00  0.00    -0.198 OA
BRANCH  16  17
ATOM     17  S   UNL     1      37.941 -23.975 -12.052  0.00  0.00    +0.239 S 
ATOM     18  O   UNL     1      36.612 -23.214 -11.492  0.00  0.00    -0.116 OA
ATOM     19  O   UNL     1      37.823 -25.378 -11.696  0.00  0.00    -0.116 OA
ATOM     20  O   UNL     1      39.103 -23.213 -11.634  0.00  0.00    -0.022 OA
ENDBRANCH  16  17
ENDBRANCH   3  16
BRANCH   5  21
ATOM     21  C   UNL     1      37.825 -22.744 -16.375  0.00  0.00    +0.169 C 
BRANCH  21  22
ATOM     22  O   UNL     1      38.808 -23.556 -15.759  0.00  0.00    -0.379 OA
ATOM     23  H   UNL     1      39.555 -23.676 -16.366  0.00  0.00    +0.211 HD
ENDBRANCH  21  22
ENDBRANCH   5  21
TORSDOF 7
ENDMDL
MODEL 4
REMARK VINA RESULT:      -6.9      1.661      4.231
REMARK  Name = 447406
REMARK  7 active torsions:
REMARK  status: ('A' for Active; 'I' for Inactive)
REMARK    1  A    between atoms: C_2  and  O_12
REMARK    2  A    between atoms: C_3  and  O_16
REMARK    3  A    between atoms: C_4  and  N_8
REMARK    4  A    between atoms: C_5  and  C_21
REMARK    5  A    between atoms: C_6  and  O_14
REMARK    6  A    between atoms: O_16  and  S_17
REMARK    7  A    between atoms: C_21  and  O_22
REMARK                            x       y       z     vdW  Elec       q    Type
REMARK                         _______ _______ _______ _____ _____    ______ ____
ROOT
ATOM      1  O   UNL     1      35.556 -22.192 -14.942  0.00  0.00    -0.327 OA
ATOM      2  C   UNL     1      36.546 -24.883 -14.523  0.00  0.00    +0.165 C 
ATOM      3  C   UNL     1      37.477 -23.671 -14.641  0.00  0.00    +0.205 C 
ATOM      4  C   UNL     1      35.149 -24.444 -14.072  0.00  0.00    +0.158 C 
ATOM      5  C   UNL     1      36.864 -22.505 -15.432  0.00  0.00    +0.179 C 
ATOM      6  C   UNL     1      34.639 -23.287 -14.947  0.00  0.00    +0.253 C 
ENDROOT
BRANCH   4   8
ATOM      7  O   UNL     1      36.462 -25.842 -11.889  0.00  0.00    -0.275 OA
ATOM      8  N   UNL     1      35.159 -24.078 -12.671  0.00  0.00    -0.299 N 
ATOM      9  C   UNL     1      35.818 -24.814 -11.699  0.00  0.00    +0.223 C 
ATOM     10  C   UNL     1      35.689 -24.198 -10.331  0.00  0.00    +0.095 C 
ATOM     11  H   UNL     1      34.674 -23.267 -12.395  0.00  0.00    +0.150 HD
ENDBRANCH   4   8
BRANCH   2  12
ATOM     12  O   UNL     1      36.449 -25.543 -15.784  0.00  0.00    -0.380 OA
ATOM     13  H   UNL     1      37.337 -25.665 -16.155  0.00  0.00    +0.211 HD
ENDBRANCH   2  12
BRANCH   6  14
ATOM     14  O   UNL     1      33.360 -22.875 -14.465  0.00  0.00    -0.359 OA
ATOM     15  H   UNL     1      32.800 -23.655 -14.326  0.00  0.00    +0.213 HD
ENDBRANCH   6  14
BRANCH   3  16
ATOM     16  O   UNL     1      38.729 -24.072 -15.182  0.00  0.00    -0.198 OA
BRANCH  16  17
ATOM     17  S   UNL     1      39.647 -25.147 -14.372  0.00  0.00    +0.239 S 
ATOM     18  O   UNL     1      41.171 -24.748 -14.796  0.00  0.00    -0.116 OA
ATOM     19  O   UNL     1      39.500 -24.859 -12.956  0.00  0.00    -0.116 OA
ATOM     20  O   UNL     1      39.377 -26.480 -14.876  0.00  0.00    -0.022 OA
ENDBRANCH  16  17
ENDBRANCH   3  16
BRANCH   5  21
ATOM     21  C   UNL     1      36.867 -22.663 -16.952  0.00  0.00    +0.169 C 
BRANCH  21  22
ATOM     22  O   UNL     1      36.950 -21.377 -17.539  0.00  0.00    -0.379 OA
ATOM     23  H   UNL     1      37.873 -21.075 -17.527  0.00  0.00    +0.211 HD
ENDBRANCH  21  22
ENDBRANCH   5  21
TORSDOF 7
ENDMDL
MODEL 5
REMARK VINA RESULT:      -6.6      5.084      7.869
REMARK  Name = 447406
REMARK  7 active torsions:
REMARK  status: ('A' for Active; 'I' for Inactive)
REMARK    1  A    between atoms: C_2  and  O_12
REMARK    2  A    between atoms: C_3  and  O_16
REMARK    3  A    between atoms: C_4  and  N_8
REMARK    4  A    between atoms: C_5  and  C_21
REMARK    5  A    between atoms: C_6  and  O_14
REMARK    6  A    between atoms: O_16  and  S_17
REMARK    7  A    between atoms: C_21  and  O_22
REMARK                            x       y       z     vdW  Elec       q    Type
REMARK                         _______ _______ _______ _____ _____    ______ ____
ROOT
ATOM      1  O   UNL     1      32.583 -22.738 -14.558  0.00  0.00    -0.327 OA
ATOM      2  C   UNL     1      30.840 -23.932 -16.541  0.00  0.00    +0.165 C 
ATOM      3  C   UNL     1      30.349 -22.880 -15.540  0.00  0.00    +0.205 C 
ATOM      4  C   UNL     1      32.354 -23.814 -16.745  0.00  0.00    +0.158 C 
ATOM      5  C   UNL     1      31.187 -22.827 -14.252  0.00  0.00    +0.179 C 
ATOM      6  C   UNL     1      33.079 -23.787 -15.390  0.00  0.00    +0.253 C 
ENDROOT
BRANCH   4   8
ATOM      7  O   UNL     1      33.889 -23.703 -19.210  0.00  0.00    -0.275 OA
ATOM      8  N   UNL     1      32.670 -22.642 -17.534  0.00  0.00    -0.299 N 
ATOM      9  C   UNL     1      33.414 -22.691 -18.702  0.00  0.00    +0.223 C 
ATOM     10  C   UNL     1      33.572 -21.335 -19.336  0.00  0.00    +0.095 C 
ATOM     11  H   UNL     1      32.340 -21.767 -17.226  0.00  0.00    +0.150 HD
ENDBRANCH   4   8
BRANCH   2  12
ATOM     12  O   UNL     1      30.529 -25.239 -16.062  0.00  0.00    -0.380 OA
ATOM     13  H   UNL     1      29.835 -25.179 -15.386  0.00  0.00    +0.211 HD
ENDBRANCH   2  12
BRANCH   6  14
ATOM     14  O   UNL     1      34.479 -23.627 -15.620  0.00  0.00    -0.359 OA
ATOM     15  H   UNL     1      34.890 -23.220 -14.840  0.00  0.00    +0.213 HD
ENDBRANCH   6  14
BRANCH   3  16
ATOM     16  O   UNL     1      28.970 -23.082 -15.261  0.00  0.00    -0.198 OA
BRANCH  16  17
ATOM     17  S   UNL     1      27.875 -22.906 -16.455  0.00  0.00    +0.239 S 
ATOM     18  O   UNL     1      26.501 -22.525 -15.664  0.00  0.00    -0.116 OA
ATOM     19  O   UNL     1      28.268 -21.745 -17.233  0.00  0.00    -0.116 OA
ATOM     20  O   UNL     1      27.674 -24.186 -17.109  0.00  0.00    -0.022 OA
ENDBRANCH  16  17
ENDBRANCH   3  16
BRANCH   5  21
ATOM     21  C   UNL     1      30.908 -23.934 -13.236  0.00  0.00    +0.169 C 
BRANCH  21  22
ATOM     22  O   UNL     1      30.448 -23.340 -12.036  0.00  0.00    -0.379 OA
ATOM     23  H   UNL     1      30.547 -23.969 -11.304  0.00  0.00    +0.211 HD
ENDBRANCH  21  22
ENDBRANCH   5  21
TORSDOF 7
ENDMDL
MODEL 6
REMARK VINA RESULT:      -6.3      2.218      4.192
REMARK  Name = 447406
REMARK  7 active torsions:
REMARK  status: ('A' for Active; 'I' for Inactive)
REMARK    1  A    between atoms: C_2  and  O_12
REMARK    2  A    between atoms: C_3  and  O_16
REMARK    3  A    between atoms: C_4  and  N_8
REMARK    4  A    between atoms: C_5  and  C_21
REMARK    5  A    between atoms: C_6  and  O_14
REMARK    6  A    between atoms: O_16  and  S_17
REMARK    7  A    between atoms: C_21  and  O_22
REMARK                            x       y       z     vdW  Elec       q    Type
REMARK                         _______ _______ _______ _____ _____    ______ ____
ROOT
ATOM      1  O   UNL     1      35.588 -23.967 -16.167  0.00  0.00    -0.327 OA
ATOM      2  C   UNL     1      37.014 -23.423 -13.703  0.00  0.00    +0.165 C 
ATOM      3  C   UNL     1      35.897 -24.468 -13.795  0.00  0.00    +0.205 C 
ATOM      4  C   UNL     1      37.637 -23.181 -15.081  0.00  0.00    +0.158 C 
ATOM      5  C   UNL     1      34.900 -24.198 -14.932  0.00  0.00    +0.179 C 
ATOM      6  C   UNL     1      36.545 -22.907 -16.127  0.00  0.00    +0.253 C 
ENDROOT
BRANCH   4   8
ATOM      7  O   UNL     1      39.645 -24.536 -13.475  0.00  0.00    -0.275 OA
ATOM      8  N   UNL     1      38.465 -24.305 -15.469  0.00  0.00    -0.299 N 
ATOM      9  C   UNL     1      39.400 -24.885 -14.627  0.00  0.00    +0.223 C 
ATOM     10  C   UNL     1      40.102 -26.051 -15.270  0.00  0.00    +0.095 C 
ATOM     11  H   UNL     1      38.357 -24.675 -16.374  0.00  0.00    +0.150 HD
ENDBRANCH   4   8
BRANCH   2  12
ATOM     12  O   UNL     1      36.487 -22.195 -13.202  0.00  0.00    -0.380 OA
ATOM     13  H   UNL     1      35.815 -21.857 -13.815  0.00  0.00    +0.211 HD
ENDBRANCH   2  12
BRANCH   6  14
ATOM     14  O   UNL     1      37.160 -22.737 -17.404  0.00  0.00    -0.359 OA
ATOM     15  H   UNL     1      37.817 -23.438 -17.541  0.00  0.00    +0.213 HD
ENDBRANCH   6  14
BRANCH   3  16
ATOM     16  O   UNL     1      35.241 -24.589 -12.540  0.00  0.00    -0.198 OA
BRANCH  16  17
ATOM     17  S   UNL     1      36.074 -25.129 -11.247  0.00  0.00    +0.239 S 
ATOM     18  O   UNL     1      36.987 -23.849 -10.815  0.00  0.00    -0.116 OA
ATOM     19  O   UNL     1      35.115 -25.360 -10.182  0.00  0.00    -0.116 OA
ATOM     20  O   UNL     1      36.967 -26.194 -11.666  0.00  0.00    -0.022 OA
ENDBRANCH  16  17
ENDBRANCH   3  16
BRANCH   5  21
ATOM     21  C   UNL     1      33.864 -23.107 -14.659  0.00  0.00    +0.169 C 
BRANCH  21  22
ATOM     22  O   UNL     1      32.999 -23.554 -13.631  0.00  0.00    -0.379 OA
ATOM     23  H   UNL     1      32.379 -22.845 -13.399  0.00  0.00    +0.211 HD
ENDBRANCH  21  22
ENDBRANCH   5  21
TORSDOF 7
ENDMDL
MODEL 7
REMARK VINA RESULT:      -5.9      8.152     11.953
REMARK  Name = 447406
REMARK  7 active torsions:
REMARK  status: ('A' for Active; 'I' for Inactive)
REMARK    1  A    between atoms: C_2  and  O_12
REMARK    2  A    between atoms: C_3  and  O_16
REMARK    3  A    between atoms: C_4  and  N_8
REMARK    4  A    between atoms: C_5  and  C_21
REMARK    5  A    between atoms: C_6  and  O_14
REMARK    6  A    between atoms: O_16  and  S_17
REMARK    7  A    between atoms: C_21  and  O_22
REMARK                            x       y       z     vdW  Elec       q    Type
REMARK                         _______ _______ _______ _____ _____    ______ ____
ROOT
ATOM      1  O   UNL     1      33.793 -18.253 -24.807  0.00  0.00    -0.327 OA
ATOM      2  C   UNL     1      35.205 -17.310 -22.458  0.00  0.00    +0.165 C 
ATOM      3  C   UNL     1      33.970 -16.596 -23.020  0.00  0.00    +0.205 C 
ATOM      4  C   UNL     1      35.213 -18.782 -22.884  0.00  0.00    +0.158 C 
ATOM      5  C   UNL     1      33.746 -16.851 -24.518  0.00  0.00    +0.179 C 
ATOM      6  C   UNL     1      34.997 -18.905 -24.401  0.00  0.00    +0.253 C 
ENDROOT
BRANCH   4   8
ATOM      7  O   UNL     1      35.429 -19.844 -20.188  0.00  0.00    -0.275 OA
ATOM      8  N   UNL     1      34.214 -19.529 -22.149  0.00  0.00    -0.299 N 
ATOM      9  C   UNL     1      34.412 -19.996 -20.859  0.00  0.00    +0.223 C 
ATOM     10  C   UNL     1      33.205 -20.717 -20.322  0.00  0.00    +0.095 C 
ATOM     11  H   UNL     1      33.352 -19.713 -22.586  0.00  0.00    +0.150 HD
ENDBRANCH   4   8
BRANCH   2  12
ATOM     12  O   UNL     1      36.390 -16.675 -22.935  0.00  0.00    -0.380 OA
ATOM     13  H   UNL     1      36.927 -17.318 -23.425  0.00  0.00    +0.211 HD
ENDBRANCH   2  12
BRANCH   6  14
ATOM     14  O   UNL     1      34.961 -20.289 -24.750  0.00  0.00    -0.359 OA
ATOM     15  H   UNL     1      35.584 -20.455 -25.476  0.00  0.00    +0.213 HD
ENDBRANCH   6  14
BRANCH   3  16
ATOM     16  O   UNL     1      34.039 -15.206 -22.729  0.00  0.00    -0.198 OA
BRANCH  16  17
ATOM     17  S   UNL     1      33.570 -14.668 -21.263  0.00  0.00    +0.239 S 
ATOM     18  O   UNL     1      32.561 -15.834 -20.730  0.00  0.00    -0.116 OA
ATOM     19  O   UNL     1      34.741 -14.679 -20.405  0.00  0.00    -0.116 OA
ATOM     20  O   UNL     1      32.798 -13.451 -21.428  0.00  0.00    -0.022 OA
ENDBRANCH  16  17
ENDBRANCH   3  16
BRANCH   5  21
ATOM     21  C   UNL     1      34.645 -16.056 -25.466  0.00  0.00    +0.169 C 
BRANCH  21  22
ATOM     22  O   UNL     1      33.835 -15.469 -26.469  0.00  0.00    -0.379 OA
ATOM     23  H   UNL     1      33.371 -16.167 -26.959  0.00  0.00    +0.211 HD
ENDBRANCH  21  22
ENDBRANCH   5  21
TORSDOF 7
ENDMDL
MODEL 8
REMARK VINA RESULT:      -5.7      2.858      5.152
REMARK  Name = 447406
REMARK  7 active torsions:
REMARK  status: ('A' for Active; 'I' for Inactive)
REMARK    1  A    between atoms: C_2  and  O_12
REMARK    2  A    between atoms: C_3  and  O_16
REMARK    3  A    between atoms: C_4  and  N_8
REMARK    4  A    between atoms: C_5  and  C_21
REMARK    5  A    between atoms: C_6  and  O_14
REMARK    6  A    between atoms: O_16  and  S_17
REMARK    7  A    between atoms: C_21  and  O_22
REMARK                            x       y       z     vdW  Elec       q    Type
REMARK                         _______ _______ _______ _____ _____    ______ ____
ROOT
ATOM      1  O   UNL     1      32.844 -23.428 -14.553  0.00  0.00    -0.327 OA
ATOM      2  C   UNL     1      35.469 -24.618 -14.855  0.00  0.00    +0.165 C 
ATOM      3  C   UNL     1      35.140 -23.210 -15.363  0.00  0.00    +0.205 C 
ATOM      4  C   UNL     1      34.511 -25.020 -13.729  0.00  0.00    +0.158 C 
ATOM      5  C   UNL     1      33.646 -23.002 -15.660  0.00  0.00    +0.179 C 
ATOM      6  C   UNL     1      33.053 -24.783 -14.152  0.00  0.00    +0.253 C 
ENDROOT
BRANCH   4   8
ATOM      7  O   UNL     1      36.450 -25.761 -11.695  0.00  0.00    -0.275 OA
ATOM      8  N   UNL     1      34.829 -24.304 -12.512  0.00  0.00    -0.299 N 
ATOM      9  C   UNL     1      35.775 -24.740 -11.598  0.00  0.00    +0.223 C 
ATOM     10  C   UNL     1      35.925 -23.795 -10.436  0.00  0.00    +0.095 C 
ATOM     11  H   UNL     1      34.350 -23.464 -12.324  0.00  0.00    +0.150 HD
ENDBRANCH   4   8
BRANCH   2  12
ATOM     12  O   UNL     1      35.360 -25.555 -15.925  0.00  0.00    -0.380 OA
ATOM     13  H   UNL     1      36.184 -25.558 -16.438  0.00  0.00    +0.211 HD
ENDBRANCH   2  12
BRANCH   6  14
ATOM     14  O   UNL     1      32.196 -25.122 -13.061  0.00  0.00    -0.359 OA
ATOM     15  H   UNL     1      32.331 -24.490 -12.337  0.00  0.00    +0.213 HD
ENDBRANCH   6  14
BRANCH   3  16
ATOM     16  O   UNL     1      35.947 -22.898 -16.490  0.00  0.00    -0.198 OA
BRANCH  16  17
ATOM     17  S   UNL     1      37.365 -22.124 -16.273  0.00  0.00    +0.239 S 
ATOM     18  O   UNL     1      37.380 -21.788 -14.677  0.00  0.00    -0.116 OA
ATOM     19  O   UNL     1      38.424 -23.085 -16.525  0.00  0.00    -0.116 OA
ATOM     20  O   UNL     1      37.336 -20.866 -16.995  0.00  0.00    -0.022 OA
ENDBRANCH  16  17
ENDBRANCH   3  16
BRANCH   5  21
ATOM     21  C   UNL     1      33.145 -23.600 -16.975  0.00  0.00    +0.169 C 
BRANCH  21  22
ATOM     22  O   UNL     1      33.647 -22.821 -18.045  0.00  0.00    -0.379 OA
ATOM     23  H   UNL     1      32.945 -22.682 -18.701  0.00  0.00    +0.211 HD
ENDBRANCH  21  22
ENDBRANCH   5  21
TORSDOF 7
ENDMDL
MODEL 9
REMARK VINA RESULT:      -5.6      2.746      4.642
REMARK  Name = 447406
REMARK  7 active torsions:
REMARK  status: ('A' for Active; 'I' for Inactive)
REMARK    1  A    between atoms: C_2  and  O_12
REMARK    2  A    between atoms: C_3  and  O_16
REMARK    3  A    between atoms: C_4  and  N_8
REMARK    4  A    between atoms: C_5  and  C_21
REMARK    5  A    between atoms: C_6  and  O_14
REMARK    6  A    between atoms: O_16  and  S_17
REMARK    7  A    between atoms: C_21  and  O_22
REMARK                            x       y       z     vdW  Elec       q    Type
REMARK                         _______ _______ _______ _____ _____    ______ ____
ROOT
ATOM      1  O   UNL     1      33.181 -24.378 -15.163  0.00  0.00    -0.327 OA
ATOM      2  C   UNL     1      35.709 -23.679 -13.930  0.00  0.00    +0.165 C 
ATOM      3  C   UNL     1      34.543 -24.279 -13.136  0.00  0.00    +0.205 C 
ATOM      4  C   UNL     1      35.594 -24.047 -15.413  0.00  0.00    +0.158 C 
ATOM      5  C   UNL     1      33.170 -24.019 -13.777  0.00  0.00    +0.179 C 
ATOM      6  C   UNL     1      34.186 -23.726 -15.940  0.00  0.00    +0.253 C 
ENDROOT
BRANCH   4   8
ATOM      7  O   UNL     1      38.026 -25.422 -14.611  0.00  0.00    -0.275 OA
ATOM      8  N   UNL     1      35.926 -25.441 -15.617  0.00  0.00    -0.299 N 
ATOM      9  C   UNL     1      37.119 -26.007 -15.196  0.00  0.00    +0.223 C 
ATOM     10  C   UNL     1      37.196 -27.477 -15.512  0.00  0.00    +0.095 C 
ATOM     11  H   UNL     1      35.272 -26.016 -16.077  0.00  0.00    +0.150 HD
ENDBRANCH   4   8
BRANCH   2  12
ATOM     12  O   UNL     1      35.706 -22.259 -13.795  0.00  0.00    -0.380 OA
ATOM     13  H   UNL     1      36.486 -21.890 -14.239  0.00  0.00    +0.211 HD
ENDBRANCH   2  12
BRANCH   6  14
ATOM     14  O   UNL     1      34.103 -24.128 -17.307  0.00  0.00    -0.359 OA
ATOM     15  H   UNL     1      34.849 -23.749 -17.801  0.00  0.00    +0.213 HD
ENDBRANCH   6  14
BRANCH   3  16
ATOM     16  O   UNL     1      34.588 -23.826 -11.790  0.00  0.00    -0.198 OA
BRANCH  16  17
ATOM     17  S   UNL     1      35.821 -24.286 -10.828  0.00  0.00    +0.239 S 
ATOM     18  O   UNL     1      36.352 -25.666 -11.517  0.00  0.00    -0.116 OA
ATOM     19  O   UNL     1      36.872 -23.296 -10.970  0.00  0.00    -0.116 OA
ATOM     20  O   UNL     1      35.302 -24.615  -9.513  0.00  0.00    -0.022 OA
ENDBRANCH  16  17
ENDBRANCH   3  16
BRANCH   5  21
ATOM     21  C   UNL     1      32.598 -22.616 -13.568  0.00  0.00    +0.169 C 
BRANCH  21  22
ATOM     22  O   UNL     1      32.096 -22.526 -12.247  0.00  0.00    -0.379 OA
ATOM     23  H   UNL     1      32.822 -22.653 -11.616  0.00  0.00    +0.211 HD
ENDBRANCH  21  22
ENDBRANCH   5  21
TORSDOF 7
ENDMDL
