MODEL 1
REMARK VINA RESULT:     -11.1      0.000      0.000
REMARK  Name = 2079916
REMARK  5 active torsions:
REMARK  status: ('A' for Active; 'I' for Inactive)
REMARK    1  A    between atoms: C_4  and  C_10
REMARK    2  A    between atoms: C_5  and  S_15
REMARK    3  A    between atoms: S_15  and  C_16
REMARK    4  A    between atoms: C_16  and  C_18
REMARK    5  A    between atoms: C_21  and  O_24
REMARK                            x       y       z     vdW  Elec       q    Type
REMARK                         _______ _______ _______ _____ _____    ______ ____
ROOT
ATOM      1  O   UNL     1      34.131 -15.766 -23.531  0.00  0.00    -0.411 OA
ATOM      2  N   UNL     1      33.626 -15.434 -25.684  0.00  0.00    -0.106 NA
ATOM      3  N   UNL     1      34.058 -16.740 -25.544  0.00  0.00    -0.101 NA
ATOM      4  C   UNL     1      33.686 -14.913 -24.488  0.00  0.00    +0.251 A 
ATOM      5  C   UNL     1      34.343 -16.889 -24.272  0.00  0.00    +0.279 A 
ENDROOT
BRANCH   4  10
ATOM      6  O   UNL     1      31.401 -11.768 -21.516  0.00  0.00    -0.435 OA
ATOM      7  O   UNL     1      32.340  -9.857 -22.644  0.00  0.00    -0.435 OA
ATOM      8  C   UNL     1      32.213 -12.125 -22.548  0.00  0.00    +0.177 C 
ATOM      9  C   UNL     1      32.749 -11.034 -23.192  0.00  0.00    +0.176 C 
ATOM     10  C   UNL     1      33.357 -13.584 -24.033  0.00  0.00    +0.058 C 
ATOM     11  C   UNL     1      32.499 -13.416 -22.945  0.00  0.00    +0.045 C 
ATOM     12  C   UNL     1      33.601 -11.172 -24.269  0.00  0.00    +0.040 C 
ATOM     13  C   UNL     1      33.906 -12.469 -24.692  0.00  0.00    +0.008 C 
ATOM     14  C   UNL     1      31.486 -10.330 -21.582  0.00  0.00    +0.429 C 
ENDBRANCH   4  10
BRANCH   5  15
ATOM     15  S   UNL     1      34.932 -18.372 -23.584  0.00  0.00    -0.050 S 
BRANCH  15  16
ATOM     16  C   UNL     1      34.677 -18.058 -21.815  0.00  0.00    +0.093 C 
BRANCH  16  18
ATOM     17  F   UNL     1      36.977 -21.706 -19.563  0.00  0.00    -0.201 F 
ATOM     18  C   UNL     1      34.653 -19.328 -21.011  0.00  0.00    -0.008 C 
ATOM     19  C   UNL     1      35.849 -19.936 -20.653  0.00  0.00    +0.029 C 
ATOM     20  C   UNL     1      33.433 -19.879 -20.639  0.00  0.00    -0.000 C 
ATOM     21  C   UNL     1      34.606 -21.677 -19.531  0.00  0.00    +0.166 C 
ATOM     22  C   UNL     1      35.825 -21.116 -19.910  0.00  0.00    +0.174 C 
ATOM     23  C   UNL     1      33.410 -21.058 -19.895  0.00  0.00    +0.039 C 
BRANCH  21  24
ATOM     24  O   UNL     1      34.581 -22.829 -18.807  0.00  0.00    -0.469 OA
ATOM     25  C   UNL     1      33.455 -23.035 -17.953  0.00  0.00    +0.253 C 
ENDBRANCH  21  24
ENDBRANCH  16  18
ENDBRANCH  15  16
ENDBRANCH   5  15
TORSDOF 5
ENDMDL
MODEL 2
REMARK VINA RESULT:     -10.9      2.919      9.411
REMARK  Name = 2079916
REMARK  5 active torsions:
REMARK  status: ('A' for Active; 'I' for Inactive)
REMARK    1  A    between atoms: C_4  and  C_10
REMARK    2  A    between atoms: C_5  and  S_15
REMARK    3  A    between atoms: S_15  and  C_16
REMARK    4  A    between atoms: C_16  and  C_18
REMARK    5  A    between atoms: C_21  and  O_24
REMARK                            x       y       z     vdW  Elec       q    Type
REMARK                         _______ _______ _______ _____ _____    ______ ____
ROOT
ATOM      1  O   UNL     1      34.674 -17.644 -21.609  0.00  0.00    -0.411 OA
ATOM      2  N   UNL     1      34.751 -19.070 -23.330  0.00  0.00    -0.106 NA
ATOM      3  N   UNL     1      34.688 -17.787 -23.842  0.00  0.00    -0.101 NA
ATOM      4  C   UNL     1      34.741 -18.931 -22.032  0.00  0.00    +0.251 A 
ATOM      5  C   UNL     1      34.644 -16.988 -22.802  0.00  0.00    +0.279 A 
ENDROOT
BRANCH   4  10
ATOM      6  O   UNL     1      32.655 -22.059 -18.899  0.00  0.00    -0.435 OA
ATOM      7  O   UNL     1      34.785 -22.764 -18.020  0.00  0.00    -0.435 OA
ATOM      8  C   UNL     1      33.697 -21.421 -19.498  0.00  0.00    +0.177 C 
ATOM      9  C   UNL     1      34.913 -21.824 -18.996  0.00  0.00    +0.176 C 
ATOM     10  C   UNL     1      34.788 -19.927 -20.988  0.00  0.00    +0.058 C 
ATOM     11  C   UNL     1      33.600 -20.473 -20.497  0.00  0.00    +0.045 C 
ATOM     12  C   UNL     1      36.101 -21.301 -19.465  0.00  0.00    +0.040 C 
ATOM     13  C   UNL     1      36.031 -20.338 -20.476  0.00  0.00    +0.008 C 
ATOM     14  C   UNL     1      33.351 -22.908 -17.964  0.00  0.00    +0.429 C 
ENDBRANCH   4  10
BRANCH   5  15
ATOM     15  S   UNL     1      34.557 -15.256 -22.921  0.00  0.00    -0.050 S 
BRANCH  15  16
ATOM     16  C   UNL     1      32.972 -14.933 -22.100  0.00  0.00    +0.093 C 
BRANCH  16  18
ATOM     17  F   UNL     1      30.726 -11.072 -20.170  0.00  0.00    -0.201 F 
ATOM     18  C   UNL     1      32.602 -13.475 -22.134  0.00  0.00    -0.008 C 
ATOM     19  C   UNL     1      31.823 -12.942 -21.116  0.00  0.00    +0.029 C 
ATOM     20  C   UNL     1      33.044 -12.682 -23.185  0.00  0.00    -0.000 C 
ATOM     21  C   UNL     1      31.917 -10.785 -22.201  0.00  0.00    +0.166 C 
ATOM     22  C   UNL     1      31.478 -11.591 -21.150  0.00  0.00    +0.174 C 
ATOM     23  C   UNL     1      32.700 -11.331 -23.218  0.00  0.00    +0.039 C 
BRANCH  21  24
ATOM     24  O   UNL     1      31.581  -9.467 -22.237  0.00  0.00    -0.469 OA
ATOM     25  C   UNL     1      32.439  -8.559 -21.547  0.00  0.00    +0.253 C 
ENDBRANCH  21  24
ENDBRANCH  16  18
ENDBRANCH  15  16
ENDBRANCH   5  15
TORSDOF 5
ENDMDL
MODEL 3
REMARK VINA RESULT:     -10.8      4.468     10.517
REMARK  Name = 2079916
REMARK  5 active torsions:
REMARK  status: ('A' for Active; 'I' for Inactive)
REMARK    1  A    between atoms: C_4  and  C_10
REMARK    2  A    between atoms: C_5  and  S_15
REMARK    3  A    between atoms: S_15  and  C_16
REMARK    4  A    between atoms: C_16  and  C_18
REMARK    5  A    between atoms: C_21  and  O_24
REMARK                            x       y       z     vdW  Elec       q    Type
REMARK                         _______ _______ _______ _____ _____    ______ ____
ROOT
ATOM      1  O   UNL     1      33.012 -21.627 -18.605  0.00  0.00    -0.411 OA
ATOM      2  N   UNL     1      34.916 -22.800 -18.638  0.00  0.00    -0.106 NA
ATOM      3  N   UNL     1      34.914 -21.960 -19.736  0.00  0.00    -0.101 NA
ATOM      4  C   UNL     1      33.793 -22.567 -18.015  0.00  0.00    +0.251 A 
ATOM      5  C   UNL     1      33.784 -21.295 -19.677  0.00  0.00    +0.279 A 
ENDROOT
BRANCH   4  10
ATOM      6  O   UNL     1      30.107 -24.006 -15.134  0.00  0.00    -0.435 OA
ATOM      7  O   UNL     1      31.612 -24.791 -13.423  0.00  0.00    -0.435 OA
ATOM      8  C   UNL     1      31.413 -23.823 -15.471  0.00  0.00    +0.177 C 
ATOM      9  C   UNL     1      32.272 -24.271 -14.494  0.00  0.00    +0.176 C 
ATOM     10  C   UNL     1      33.258 -23.152 -16.809  0.00  0.00    +0.058 C 
ATOM     11  C   UNL     1      31.876 -23.258 -16.642  0.00  0.00    +0.045 C 
ATOM     12  C   UNL     1      33.642 -24.179 -14.634  0.00  0.00    +0.040 C 
ATOM     13  C   UNL     1      34.137 -23.610 -15.810  0.00  0.00    +0.008 C 
ATOM     14  C   UNL     1      30.240 -24.620 -13.837  0.00  0.00    +0.429 C 
ENDBRANCH   4  10
BRANCH   5  15
ATOM     15  S   UNL     1      33.305 -20.102 -20.846  0.00  0.00    -0.050 S 
BRANCH  15  16
ATOM     16  C   UNL     1      34.923 -19.535 -21.442  0.00  0.00    +0.093 C 
BRANCH  16  18
ATOM     17  F   UNL     1      34.977 -15.104 -23.452  0.00  0.00    -0.201 F 
ATOM     18  C   UNL     1      34.801 -18.635 -22.641  0.00  0.00    -0.008 C 
ATOM     19  C   UNL     1      34.950 -17.263 -22.486  0.00  0.00    +0.029 C 
ATOM     20  C   UNL     1      34.540 -19.188 -23.888  0.00  0.00    -0.000 C 
ATOM     21  C   UNL     1      34.572 -16.974 -24.855  0.00  0.00    +0.166 C 
ATOM     22  C   UNL     1      34.835 -16.429 -23.598  0.00  0.00    +0.174 C 
ATOM     23  C   UNL     1      34.426 -18.354 -25.000  0.00  0.00    +0.039 C 
BRANCH  21  24
ATOM     24  O   UNL     1      34.458 -16.162 -25.941  0.00  0.00    -0.469 OA
ATOM     25  C   UNL     1      33.261 -15.392 -26.054  0.00  0.00    +0.253 C 
ENDBRANCH  21  24
ENDBRANCH  16  18
ENDBRANCH  15  16
ENDBRANCH   5  15
TORSDOF 5
ENDMDL
MODEL 4
REMARK VINA RESULT:     -10.7      4.482     10.423
REMARK  Name = 2079916
REMARK  5 active torsions:
REMARK  status: ('A' for Active; 'I' for Inactive)
REMARK    1  A    between atoms: C_4  and  C_10
REMARK    2  A    between atoms: C_5  and  S_15
REMARK    3  A    between atoms: S_15  and  C_16
REMARK    4  A    between atoms: C_16  and  C_18
REMARK    5  A    between atoms: C_21  and  O_24
REMARK                            x       y       z     vdW  Elec       q    Type
REMARK                         _______ _______ _______ _____ _____    ______ ____
ROOT
ATOM      1  O   UNL     1      34.649 -21.107 -18.804  0.00  0.00    -0.411 OA
ATOM      2  N   UNL     1      33.669 -23.118 -18.810  0.00  0.00    -0.106 NA
ATOM      3  N   UNL     1      33.084 -22.355 -19.804  0.00  0.00    -0.101 NA
ATOM      4  C   UNL     1      34.571 -22.349 -18.262  0.00  0.00    +0.251 A 
ATOM      5  C   UNL     1      33.686 -21.189 -19.763  0.00  0.00    +0.279 A 
ENDROOT
BRANCH   4  10
ATOM      6  O   UNL     1      35.784 -24.409 -13.992  0.00  0.00    -0.435 OA
ATOM      7  O   UNL     1      37.991 -23.441 -14.032  0.00  0.00    -0.435 OA
ATOM      8  C   UNL     1      35.996 -23.650 -15.101  0.00  0.00    +0.177 C 
ATOM      9  C   UNL     1      37.255 -23.097 -15.124  0.00  0.00    +0.176 C 
ATOM     10  C   UNL     1      35.486 -22.613 -17.178  0.00  0.00    +0.058 C 
ATOM     11  C   UNL     1      35.085 -23.427 -16.115  0.00  0.00    +0.045 C 
ATOM     12  C   UNL     1      37.676 -22.291 -16.162  0.00  0.00    +0.040 C 
ATOM     13  C   UNL     1      36.773 -22.049 -17.202  0.00  0.00    +0.008 C 
ATOM     14  C   UNL     1      37.052 -24.273 -13.319  0.00  0.00    +0.429 C 
ENDBRANCH   4  10
BRANCH   5  15
ATOM     15  S   UNL     1      33.303 -19.869 -20.826  0.00  0.00    -0.050 S 
BRANCH  15  16
ATOM     16  C   UNL     1      34.899 -19.615 -21.651  0.00  0.00    +0.093 C 
BRANCH  16  18
ATOM     17  F   UNL     1      34.951 -15.073 -23.395  0.00  0.00    -0.201 F 
ATOM     18  C   UNL     1      34.797 -18.647 -22.797  0.00  0.00    -0.008 C 
ATOM     19  C   UNL     1      34.926 -17.286 -22.558  0.00  0.00    +0.029 C 
ATOM     20  C   UNL     1      34.573 -19.128 -24.081  0.00  0.00    -0.000 C 
ATOM     21  C   UNL     1      34.604 -16.861 -24.914  0.00  0.00    +0.166 C 
ATOM     22  C   UNL     1      34.828 -16.388 -23.622  0.00  0.00    +0.174 C 
ATOM     23  C   UNL     1      34.477 -18.231 -25.144  0.00  0.00    +0.039 C 
BRANCH  21  24
ATOM     24  O   UNL     1      34.508 -15.987 -25.953  0.00  0.00    -0.469 OA
ATOM     25  C   UNL     1      33.265 -15.304 -26.115  0.00  0.00    +0.253 C 
ENDBRANCH  21  24
ENDBRANCH  16  18
ENDBRANCH  15  16
ENDBRANCH   5  15
TORSDOF 5
ENDMDL
MODEL 5
REMARK VINA RESULT:     -10.6      1.389      2.143
REMARK  Name = 2079916
REMARK  5 active torsions:
REMARK  status: ('A' for Active; 'I' for Inactive)
REMARK    1  A    between atoms: C_4  and  C_10
REMARK    2  A    between atoms: C_5  and  S_15
REMARK    3  A    between atoms: S_15  and  C_16
REMARK    4  A    between atoms: C_16  and  C_18
REMARK    5  A    between atoms: C_21  and  O_24
REMARK                            x       y       z     vdW  Elec       q    Type
REMARK                         _______ _______ _______ _____ _____    ______ ____
ROOT
ATOM      1  O   UNL     1      34.187 -16.485 -23.400  0.00  0.00    -0.411 OA
ATOM      2  N   UNL     1      34.220 -15.979 -25.577  0.00  0.00    -0.106 NA
ATOM      3  N   UNL     1      34.619 -17.295 -25.440  0.00  0.00    -0.101 NA
ATOM      4  C   UNL     1      33.981 -15.555 -24.366  0.00  0.00    +0.251 A 
ATOM      5  C   UNL     1      34.585 -17.548 -24.152  0.00  0.00    +0.279 A 
ENDROOT
BRANCH   4  10
ATOM      6  O   UNL     1      33.827 -10.669 -24.578  0.00  0.00    -0.435 OA
ATOM      7  O   UNL     1      32.349 -10.528 -22.679  0.00  0.00    -0.435 OA
ATOM      8  C   UNL     1      33.515 -11.894 -24.073  0.00  0.00    +0.177 C 
ATOM      9  C   UNL     1      32.671 -11.813 -22.990  0.00  0.00    +0.176 C 
ATOM     10  C   UNL     1      33.536 -14.263 -23.902  0.00  0.00    +0.058 C 
ATOM     11  C   UNL     1      33.966 -13.106 -24.555  0.00  0.00    +0.045 C 
ATOM     12  C   UNL     1      32.232 -12.941 -22.327  0.00  0.00    +0.040 C 
ATOM     13  C   UNL     1      32.674 -14.181 -22.794  0.00  0.00    +0.008 C 
ATOM     14  C   UNL     1      33.084  -9.808 -23.690  0.00  0.00    +0.429 C 
ENDBRANCH   4  10
BRANCH   5  15
ATOM     15  S   UNL     1      35.004 -19.086 -23.460  0.00  0.00    -0.050 S 
BRANCH  15  16
ATOM     16  C   UNL     1      33.883 -19.141 -22.035  0.00  0.00    +0.093 C 
BRANCH  16  18
ATOM     17  F   UNL     1      33.116 -22.315 -18.428  0.00  0.00    -0.201 F 
ATOM     18  C   UNL     1      34.398 -20.036 -20.942  0.00  0.00    -0.008 C 
ATOM     19  C   UNL     1      33.501 -20.773 -20.180  0.00  0.00    +0.029 C 
ATOM     20  C   UNL     1      35.764 -20.113 -20.708  0.00  0.00    -0.000 C 
ATOM     21  C   UNL     1      35.349 -21.686 -18.922  0.00  0.00    +0.166 C 
ATOM     22  C   UNL     1      33.979 -21.602 -19.165  0.00  0.00    +0.174 C 
ATOM     23  C   UNL     1      36.242 -20.942 -19.694  0.00  0.00    +0.039 C 
BRANCH  21  24
ATOM     24  O   UNL     1      35.818 -22.493 -17.931  0.00  0.00    -0.469 OA
ATOM     25  C   UNL     1      36.938 -22.020 -17.183  0.00  0.00    +0.253 C 
ENDBRANCH  21  24
ENDBRANCH  16  18
ENDBRANCH  15  16
ENDBRANCH   5  15
TORSDOF 5
ENDMDL
MODEL 6
REMARK VINA RESULT:     -10.6      5.634     12.088
REMARK  Name = 2079916
REMARK  5 active torsions:
REMARK  status: ('A' for Active; 'I' for Inactive)
REMARK    1  A    between atoms: C_4  and  C_10
REMARK    2  A    between atoms: C_5  and  S_15
REMARK    3  A    between atoms: S_15  and  C_16
REMARK    4  A    between atoms: C_16  and  C_18
REMARK    5  A    between atoms: C_21  and  O_24
REMARK                            x       y       z     vdW  Elec       q    Type
REMARK                         _______ _______ _______ _____ _____    ______ ____
ROOT
ATOM      1  O   UNL     1      34.715 -23.814 -16.603  0.00  0.00    -0.411 OA
ATOM      2  N   UNL     1      33.888 -24.040 -14.537  0.00  0.00    -0.106 NA
ATOM      3  N   UNL     1      32.951 -23.368 -15.301  0.00  0.00    -0.101 NA
ATOM      4  C   UNL     1      34.891 -24.276 -15.339  0.00  0.00    +0.251 A 
ATOM      5  C   UNL     1      33.476 -23.258 -16.498  0.00  0.00    +0.279 A 
ENDROOT
BRANCH   4  10
ATOM      6  O   UNL     1      39.758 -24.357 -14.837  0.00  0.00    -0.435 OA
ATOM      7  O   UNL     1      39.779 -26.727 -14.399  0.00  0.00    -0.435 OA
ATOM      8  C   UNL     1      38.509 -24.898 -14.861  0.00  0.00    +0.177 C 
ATOM      9  C   UNL     1      38.521 -26.251 -14.611  0.00  0.00    +0.176 C 
ATOM     10  C   UNL     1      36.145 -24.944 -15.089  0.00  0.00    +0.058 C 
ATOM     11  C   UNL     1      37.335 -24.214 -15.104  0.00  0.00    +0.045 C 
ATOM     12  C   UNL     1      37.360 -26.996 -14.590  0.00  0.00    +0.040 C 
ATOM     13  C   UNL     1      36.157 -26.327 -14.834  0.00  0.00    +0.008 C 
ATOM     14  C   UNL     1      40.557 -25.521 -14.543  0.00  0.00    +0.429 C 
ENDBRANCH   4  10
BRANCH   5  15
ATOM     15  S   UNL     1      32.678 -22.482 -17.833  0.00  0.00    -0.050 S 
BRANCH  15  16
ATOM     16  C   UNL     1      33.926 -22.670 -19.137  0.00  0.00    +0.093 C 
BRANCH  16  18
ATOM     17  F   UNL     1      37.095 -19.370 -20.792  0.00  0.00    -0.201 F 
ATOM     18  C   UNL     1      34.226 -21.367 -19.827  0.00  0.00    -0.008 C 
ATOM     19  C   UNL     1      35.545 -20.968 -19.993  0.00  0.00    +0.029 C 
ATOM     20  C   UNL     1      33.179 -20.579 -20.286  0.00  0.00    -0.000 C 
ATOM     21  C   UNL     1      34.779 -18.960 -21.095  0.00  0.00    +0.166 C 
ATOM     22  C   UNL     1      35.823 -19.759 -20.630  0.00  0.00    +0.174 C 
ATOM     23  C   UNL     1      33.456 -19.370 -20.923  0.00  0.00    +0.039 C 
BRANCH  21  24
ATOM     24  O   UNL     1      35.047 -17.779 -21.715  0.00  0.00    -0.469 OA
ATOM     25  C   UNL     1      34.872 -16.587 -20.949  0.00  0.00    +0.253 C 
ENDBRANCH  21  24
ENDBRANCH  16  18
ENDBRANCH  15  16
ENDBRANCH   5  15
TORSDOF 5
ENDMDL
MODEL 7
REMARK VINA RESULT:     -10.4      3.353      9.854
REMARK  Name = 2079916
REMARK  5 active torsions:
REMARK  status: ('A' for Active; 'I' for Inactive)
REMARK    1  A    between atoms: C_4  and  C_10
REMARK    2  A    between atoms: C_5  and  S_15
REMARK    3  A    between atoms: S_15  and  C_16
REMARK    4  A    between atoms: C_16  and  C_18
REMARK    5  A    between atoms: C_21  and  O_24
REMARK                            x       y       z     vdW  Elec       q    Type
REMARK                         _______ _______ _______ _____ _____    ______ ____
ROOT
ATOM      1  O   UNL     1      33.797 -16.909 -21.349  0.00  0.00    -0.411 OA
ATOM      2  N   UNL     1      35.504 -17.221 -22.759  0.00  0.00    -0.106 NA
ATOM      3  N   UNL     1      34.938 -15.990 -23.039  0.00  0.00    -0.101 NA
ATOM      4  C   UNL     1      34.805 -17.712 -21.771  0.00  0.00    +0.251 A 
ATOM      5  C   UNL     1      33.946 -15.850 -22.192  0.00  0.00    +0.279 A 
ENDROOT
BRANCH   4  10
ATOM      6  O   UNL     1      32.992 -21.731 -19.649  0.00  0.00    -0.435 OA
ATOM      7  O   UNL     1      35.185 -22.541 -19.065  0.00  0.00    -0.435 OA
ATOM      8  C   UNL     1      33.979 -20.889 -20.058  0.00  0.00    +0.177 C 
ATOM      9  C   UNL     1      35.231 -21.351 -19.725  0.00  0.00    +0.176 C 
ATOM     10  C   UNL     1      34.940 -18.965 -21.068  0.00  0.00    +0.058 C 
ATOM     11  C   UNL     1      33.799 -19.697 -20.731  0.00  0.00    +0.045 C 
ATOM     12  C   UNL     1      36.374 -20.647 -20.046  0.00  0.00    +0.040 C 
ATOM     13  C   UNL     1      36.220 -19.437 -20.728  0.00  0.00    +0.008 C 
ATOM     14  C   UNL     1      33.763 -22.776 -19.021  0.00  0.00    +0.429 C 
ENDBRANCH   4  10
BRANCH   5  15
ATOM     15  S   UNL     1      32.913 -14.453 -22.140  0.00  0.00    -0.050 S 
BRANCH  15  16
ATOM     16  C   UNL     1      33.540 -13.508 -23.556  0.00  0.00    +0.093 C 
BRANCH  16  18
ATOM     17  F   UNL     1      34.596  -8.870 -24.580  0.00  0.00    -0.201 F 
ATOM     18  C   UNL     1      33.257 -12.037 -23.426  0.00  0.00    -0.008 C 
ATOM     19  C   UNL     1      34.073 -11.121 -24.077  0.00  0.00    +0.029 C 
ATOM     20  C   UNL     1      32.183 -11.612 -22.654  0.00  0.00    -0.000 C 
ATOM     21  C   UNL     1      32.735  -9.320 -23.181  0.00  0.00    +0.166 C 
ATOM     22  C   UNL     1      33.811  -9.757 -23.953  0.00  0.00    +0.174 C 
ATOM     23  C   UNL     1      31.920 -10.249 -22.532  0.00  0.00    +0.039 C 
BRANCH  21  24
ATOM     24  O   UNL     1      32.478  -7.990 -23.058  0.00  0.00    -0.469 OA
ATOM     25  C   UNL     1      31.519  -7.427 -23.954  0.00  0.00    +0.253 C 
ENDBRANCH  21  24
ENDBRANCH  16  18
ENDBRANCH  15  16
ENDBRANCH   5  15
TORSDOF 5
ENDMDL
MODEL 8
REMARK VINA RESULT:     -10.4      5.278     10.377
REMARK  Name = 2079916
REMARK  5 active torsions:
REMARK  status: ('A' for Active; 'I' for Inactive)
REMARK    1  A    between atoms: C_4  and  C_10
REMARK    2  A    between atoms: C_5  and  S_15
REMARK    3  A    between atoms: S_15  and  C_16
REMARK    4  A    between atoms: C_16  and  C_18
REMARK    5  A    between atoms: C_21  and  O_24
REMARK                            x       y       z     vdW  Elec       q    Type
REMARK                         _______ _______ _______ _____ _____    ______ ____
ROOT
ATOM      1  O   UNL     1      33.771 -22.674 -16.984  0.00  0.00    -0.411 OA
ATOM      2  N   UNL     1      34.331 -23.939 -15.226  0.00  0.00    -0.106 NA
ATOM      3  N   UNL     1      35.497 -23.523 -15.841  0.00  0.00    -0.101 NA
ATOM      4  C   UNL     1      33.359 -23.419 -15.927  0.00  0.00    +0.251 A 
ATOM      5  C   UNL     1      35.123 -22.788 -16.862  0.00  0.00    +0.279 A 
ENDROOT
BRANCH   4  10
ATOM      6  O   UNL     1      28.745 -22.256 -17.070  0.00  0.00    -0.435 OA
ATOM      7  O   UNL     1      27.847 -23.695 -15.357  0.00  0.00    -0.435 OA
ATOM      8  C   UNL     1      29.720 -22.898 -16.370  0.00  0.00    +0.177 C 
ATOM      9  C   UNL     1      29.208 -23.719 -15.392  0.00  0.00    +0.176 C 
ATOM     10  C   UNL     1      31.930 -23.515 -15.753  0.00  0.00    +0.058 C 
ATOM     11  C   UNL     1      31.080 -22.774 -16.576  0.00  0.00    +0.045 C 
ATOM     12  C   UNL     1      30.026 -24.463 -14.566  0.00  0.00    +0.040 C 
ATOM     13  C   UNL     1      31.407 -24.355 -14.754  0.00  0.00    +0.008 C 
ATOM     14  C   UNL     1      27.561 -22.767 -16.423  0.00  0.00    +0.429 C 
ENDBRANCH   4  10
BRANCH   5  15
ATOM     15  S   UNL     1      36.234 -22.027 -17.961  0.00  0.00    -0.050 S 
BRANCH  15  16
ATOM     16  C   UNL     1      35.338 -22.195 -19.530  0.00  0.00    +0.093 C 
BRANCH  16  18
ATOM     17  F   UNL     1      36.988 -18.225 -21.807  0.00  0.00    -0.201 F 
ATOM     18  C   UNL     1      35.099 -20.866 -20.191  0.00  0.00    -0.008 C 
ATOM     19  C   UNL     1      36.174 -20.151 -20.702  0.00  0.00    +0.029 C 
ATOM     20  C   UNL     1      33.805 -20.368 -20.280  0.00  0.00    -0.000 C 
ATOM     21  C   UNL     1      34.657 -18.409 -21.408  0.00  0.00    +0.166 C 
ATOM     22  C   UNL     1      35.952 -18.917 -21.313  0.00  0.00    +0.174 C 
ATOM     23  C   UNL     1      33.583 -19.135 -20.892  0.00  0.00    +0.039 C 
BRANCH  21  24
ATOM     24  O   UNL     1      34.438 -17.205 -22.002  0.00  0.00    -0.469 OA
ATOM     25  C   UNL     1      34.536 -16.045 -21.176  0.00  0.00    +0.253 C 
ENDBRANCH  21  24
ENDBRANCH  16  18
ENDBRANCH  15  16
ENDBRANCH   5  15
TORSDOF 5
ENDMDL
MODEL 9
REMARK VINA RESULT:     -10.3      3.784      6.122
REMARK  Name = 2079916
REMARK  5 active torsions:
REMARK  status: ('A' for Active; 'I' for Inactive)
REMARK    1  A    between atoms: C_4  and  C_10
REMARK    2  A    between atoms: C_5  and  S_15
REMARK    3  A    between atoms: S_15  and  C_16
REMARK    4  A    between atoms: C_16  and  C_18
REMARK    5  A    between atoms: C_21  and  O_24
REMARK                            x       y       z     vdW  Elec       q    Type
REMARK                         _______ _______ _______ _____ _____    ______ ____
ROOT
ATOM      1  O   UNL     1      34.381 -20.324 -20.616  0.00  0.00    -0.411 OA
ATOM      2  N   UNL     1      36.478 -19.688 -20.171  0.00  0.00    -0.106 NA
ATOM      3  N   UNL     1      36.196 -20.798 -19.397  0.00  0.00    -0.101 NA
ATOM      4  C   UNL     1      35.394 -19.455 -20.860  0.00  0.00    +0.251 A 
ATOM      5  C   UNL     1      34.961 -21.135 -19.689  0.00  0.00    +0.279 A 
ENDROOT
BRANCH   4  10
ATOM      6  O   UNL     1      34.458 -14.828 -22.150  0.00  0.00    -0.435 OA
ATOM      7  O   UNL     1      34.295 -15.401 -24.485  0.00  0.00    -0.435 OA
ATOM      8  C   UNL     1      34.662 -16.155 -22.372  0.00  0.00    +0.177 C 
ATOM      9  C   UNL     1      34.568 -16.482 -23.705  0.00  0.00    +0.176 C 
ATOM     10  C   UNL     1      35.110 -18.424 -21.830  0.00  0.00    +0.058 C 
ATOM     11  C   UNL     1      34.932 -17.105 -21.407  0.00  0.00    +0.045 C 
ATOM     12  C   UNL     1      34.740 -17.778 -24.148  0.00  0.00    +0.040 C 
ATOM     13  C   UNL     1      35.014 -18.759 -23.192  0.00  0.00    +0.008 C 
ATOM     14  C   UNL     1      34.227 -14.356 -23.493  0.00  0.00    +0.429 C 
ENDBRANCH   4  10
BRANCH   5  15
ATOM     15  S   UNL     1      34.135 -22.484 -18.969  0.00  0.00    -0.050 S 
BRANCH  15  16
ATOM     16  C   UNL     1      35.092 -22.701 -17.443  0.00  0.00    +0.093 C 
BRANCH  16  18
ATOM     17  F   UNL     1      34.632 -24.452 -12.927  0.00  0.00    -0.201 F 
ATOM     18  C   UNL     1      34.240 -23.190 -16.304  0.00  0.00    -0.008 C 
ATOM     19  C   UNL     1      34.844 -23.600 -15.123  0.00  0.00    +0.029 C 
ATOM     20  C   UNL     1      32.859 -23.227 -16.450  0.00  0.00    -0.000 C 
ATOM     21  C   UNL     1      32.666 -24.096 -14.204  0.00  0.00    +0.166 C 
ATOM     22  C   UNL     1      34.053 -24.055 -14.069  0.00  0.00    +0.174 C 
ATOM     23  C   UNL     1      32.068 -23.681 -15.395  0.00  0.00    +0.039 C 
BRANCH  21  24
ATOM     24  O   UNL     1      31.892 -24.541 -13.177  0.00  0.00    -0.469 OA
ATOM     25  C   UNL     1      30.553 -24.925 -13.490  0.00  0.00    +0.253 C 
ENDBRANCH  21  24
ENDBRANCH  16  18
ENDBRANCH  15  16
ENDBRANCH   5  15
TORSDOF 5
ENDMDL
