MODEL 1
REMARK VINA RESULT:      -7.4      0.000      0.000
REMARK  Name = 6050
REMARK  14 active torsions:
REMARK  status: ('A' for Active; 'I' for Inactive)
REMARK    1  A    between atoms: C_1  and  O_2
REMARK    2  A    between atoms: C_1  and  C_8
REMARK    3  A    between atoms: C_1  and  C_15
REMARK    4  A    between atoms: O_2  and  C_4
REMARK    5  A    between atoms: C_4  and  C_5
REMARK    6  A    between atoms: C_5  and  C_6
REMARK    7  A    between atoms: C_8  and  O_9
REMARK    8  A    between atoms: O_9  and  C_11
REMARK    9  A    between atoms: C_11  and  C_12
REMARK   10  A    between atoms: C_12  and  C_13
REMARK   11  A    between atoms: C_15  and  O_16
REMARK   12  A    between atoms: O_16  and  C_18
REMARK   13  A    between atoms: C_18  and  C_19
REMARK   14  A    between atoms: C_19  and  C_20
REMARK                            x       y       z     vdW  Elec       q    Type
REMARK                         _______ _______ _______ _____ _____    ______ ____
ROOT
ATOM      1  C   UNL     1      34.184 -14.777 -21.987  0.00  0.00    +0.256 C 
ENDROOT
BRANCH   1   2
ATOM      2  O   UNL     1      32.773 -14.557 -22.003  0.00  0.00    -0.444 OA
BRANCH   2   4
ATOM      3  O   UNL     1      32.294 -12.499 -22.930  0.00  0.00    -0.250 OA
ATOM      4  C   UNL     1      32.378 -13.249 -21.966  0.00  0.00    +0.317 C 
BRANCH   4   5
ATOM      5  C   UNL     1      32.061 -12.871 -20.537  0.00  0.00    +0.110 C 
BRANCH   5   6
ATOM      6  C   UNL     1      31.306 -11.548 -20.449  0.00  0.00    +0.012 C 
ATOM      7  C   UNL     1      31.540 -10.860 -19.115  0.00  0.00    +0.001 C 
ENDBRANCH   5   6
ENDBRANCH   4   5
ENDBRANCH   2   4
ENDBRANCH   1   2
BRANCH   1   8
ATOM      8  C   UNL     1      34.607 -15.226 -23.379  0.00  0.00    +0.256 C 
BRANCH   8   9
ATOM      9  O   UNL     1      33.438 -15.385 -24.191  0.00  0.00    -0.444 OA
BRANCH   9  11
ATOM     10  O   UNL     1      34.512 -16.401 -25.963  0.00  0.00    -0.250 OA
ATOM     11  C   UNL     1      33.670 -15.634 -25.514  0.00  0.00    +0.317 C 
BRANCH  11  12
ATOM     12  C   UNL     1      32.716 -14.805 -26.343  0.00  0.00    +0.110 C 
BRANCH  12  13
ATOM     13  C   UNL     1      33.435 -13.690 -27.099  0.00  0.00    +0.012 C 
ATOM     14  C   UNL     1      33.598 -12.448 -26.238  0.00  0.00    +0.001 C 
ENDBRANCH  12  13
ENDBRANCH  11  12
ENDBRANCH   9  11
ENDBRANCH   8   9
ENDBRANCH   1   8
BRANCH   1  15
ATOM     15  C   UNL     1      34.503 -15.837 -20.939  0.00  0.00    +0.256 C 
BRANCH  15  16
ATOM     16  O   UNL     1      33.930 -17.083 -21.322  0.00  0.00    -0.444 OA
BRANCH  16  18
ATOM     17  O   UNL     1      35.831 -18.186 -20.620  0.00  0.00    -0.250 OA
ATOM     18  C   UNL     1      34.719 -18.185 -21.130  0.00  0.00    +0.317 C 
BRANCH  18  19
ATOM     19  C   UNL     1      33.998 -19.408 -21.651  0.00  0.00    +0.110 C 
BRANCH  19  20
ATOM     20  C   UNL     1      32.899 -19.873 -20.699  0.00  0.00    +0.012 C 
ATOM     21  C   UNL     1      33.381 -20.998 -19.798  0.00  0.00    +0.001 C 
ENDBRANCH  19  20
ENDBRANCH  18  19
ENDBRANCH  16  18
ENDBRANCH  15  16
ENDBRANCH   1  15
TORSDOF 14
ENDMDL
MODEL 2
REMARK VINA RESULT:      -7.4      1.515      6.803
REMARK  Name = 6050
REMARK  14 active torsions:
REMARK  status: ('A' for Active; 'I' for Inactive)
REMARK    1  A    between atoms: C_1  and  O_2
REMARK    2  A    between atoms: C_1  and  C_8
REMARK    3  A    between atoms: C_1  and  C_15
REMARK    4  A    between atoms: O_2  and  C_4
REMARK    5  A    between atoms: C_4  and  C_5
REMARK    6  A    between atoms: C_5  and  C_6
REMARK    7  A    between atoms: C_8  and  O_9
REMARK    8  A    between atoms: O_9  and  C_11
REMARK    9  A    between atoms: C_11  and  C_12
REMARK   10  A    between atoms: C_12  and  C_13
REMARK   11  A    between atoms: C_15  and  O_16
REMARK   12  A    between atoms: O_16  and  C_18
REMARK   13  A    between atoms: C_18  and  C_19
REMARK   14  A    between atoms: C_19  and  C_20
REMARK                            x       y       z     vdW  Elec       q    Type
REMARK                         _______ _______ _______ _____ _____    ______ ____
ROOT
ATOM      1  C   UNL     1      34.097 -14.169 -23.763  0.00  0.00    +0.256 C 
ENDROOT
BRANCH   1   2
ATOM      2  O   UNL     1      33.343 -15.274 -24.266  0.00  0.00    -0.444 OA
BRANCH   2   4
ATOM      3  O   UNL     1      33.472 -15.436 -26.563  0.00  0.00    -0.250 OA
ATOM      4  C   UNL     1      33.790 -15.808 -25.442  0.00  0.00    +0.317 C 
BRANCH   4   5
ATOM      5  C   UNL     1      34.746 -16.938 -25.136  0.00  0.00    +0.110 C 
BRANCH   5   6
ATOM      6  C   UNL     1      34.042 -18.293 -25.116  0.00  0.00    +0.012 C 
ATOM      7  C   UNL     1      34.951 -19.386 -24.581  0.00  0.00    +0.001 C 
ENDBRANCH   5   6
ENDBRANCH   4   5
ENDBRANCH   2   4
ENDBRANCH   1   2
BRANCH   1   8
ATOM      8  C   UNL     1      34.412 -14.443 -22.298  0.00  0.00    +0.256 C 
BRANCH   8   9
ATOM      9  O   UNL     1      34.068 -15.799 -21.994  0.00  0.00    -0.444 OA
BRANCH   9  11
ATOM     10  O   UNL     1      34.918 -15.797 -19.849  0.00  0.00    -0.250 OA
ATOM     11  C   UNL     1      34.718 -16.346 -20.925  0.00  0.00    +0.317 C 
BRANCH  11  12
ATOM     12  C   UNL     1      35.157 -17.748 -21.283  0.00  0.00    +0.110 C 
BRANCH  12  13
ATOM     13  C   UNL     1      34.050 -18.772 -21.043  0.00  0.00    +0.012 C 
ATOM     14  C   UNL     1      34.620 -20.144 -20.724  0.00  0.00    +0.001 C 
ENDBRANCH  12  13
ENDBRANCH  11  12
ENDBRANCH   9  11
ENDBRANCH   8   9
ENDBRANCH   1   8
BRANCH   1  15
ATOM     15  C   UNL     1      33.272 -12.897 -23.927  0.00  0.00    +0.256 C 
BRANCH  15  16
ATOM     16  O   UNL     1      32.363 -12.768 -22.839  0.00  0.00    -0.444 OA
BRANCH  16  18
ATOM     17  O   UNL     1      32.540 -10.470 -22.952  0.00  0.00    -0.250 OA
ATOM     18  C   UNL     1      32.067 -11.485 -22.460  0.00  0.00    +0.317 C 
BRANCH  18  19
ATOM     19  C   UNL     1      31.062 -11.521 -21.331  0.00  0.00    +0.110 C 
BRANCH  19  20
ATOM     20  C   UNL     1      31.734 -11.715 -19.974  0.00  0.00    +0.012 C 
ATOM     21  C   UNL     1      31.275 -10.671 -18.970  0.00  0.00    +0.001 C 
ENDBRANCH  19  20
ENDBRANCH  18  19
ENDBRANCH  16  18
ENDBRANCH  15  16
ENDBRANCH   1  15
TORSDOF 14
ENDMDL
MODEL 3
REMARK VINA RESULT:      -7.3      0.726      6.158
REMARK  Name = 6050
REMARK  14 active torsions:
REMARK  status: ('A' for Active; 'I' for Inactive)
REMARK    1  A    between atoms: C_1  and  O_2
REMARK    2  A    between atoms: C_1  and  C_8
REMARK    3  A    between atoms: C_1  and  C_15
REMARK    4  A    between atoms: O_2  and  C_4
REMARK    5  A    between atoms: C_4  and  C_5
REMARK    6  A    between atoms: C_5  and  C_6
REMARK    7  A    between atoms: C_8  and  O_9
REMARK    8  A    between atoms: O_9  and  C_11
REMARK    9  A    between atoms: C_11  and  C_12
REMARK   10  A    between atoms: C_12  and  C_13
REMARK   11  A    between atoms: C_15  and  O_16
REMARK   12  A    between atoms: O_16  and  C_18
REMARK   13  A    between atoms: C_18  and  C_19
REMARK   14  A    between atoms: C_19  and  C_20
REMARK                            x       y       z     vdW  Elec       q    Type
REMARK                         _______ _______ _______ _____ _____    ______ ____
ROOT
ATOM      1  C   UNL     1      34.518 -16.019 -21.442  0.00  0.00    +0.256 C 
ENDROOT
BRANCH   1   2
ATOM      2  O   UNL     1      33.934 -17.321 -21.505  0.00  0.00    -0.444 OA
BRANCH   2   4
ATOM      3  O   UNL     1      35.843 -18.244 -20.595  0.00  0.00    -0.250 OA
ATOM      4  C   UNL     1      34.752 -18.353 -21.138  0.00  0.00    +0.317 C 
BRANCH   4   5
ATOM      5  C   UNL     1      34.092 -19.660 -21.513  0.00  0.00    +0.110 C 
BRANCH   5   6
ATOM      6  C   UNL     1      32.962 -20.027 -20.555  0.00  0.00    +0.012 C 
ATOM      7  C   UNL     1      33.350 -21.185 -19.652  0.00  0.00    +0.001 C 
ENDBRANCH   5   6
ENDBRANCH   4   5
ENDBRANCH   2   4
ENDBRANCH   1   2
BRANCH   1   8
ATOM      8  C   UNL     1      33.547 -15.104 -20.708  0.00  0.00    +0.256 C 
BRANCH   8   9
ATOM      9  O   UNL     1      32.465 -14.774 -21.586  0.00  0.00    -0.444 OA
BRANCH   9  11
ATOM     10  O   UNL     1      32.125 -12.847 -22.810  0.00  0.00    -0.250 OA
ATOM     11  C   UNL     1      32.220 -13.439 -21.742  0.00  0.00    +0.317 C 
BRANCH  11  12
ATOM     12  C   UNL     1      32.087 -12.803 -20.378  0.00  0.00    +0.110 C 
BRANCH  12  13
ATOM     13  C   UNL     1      31.355 -11.464 -20.440  0.00  0.00    +0.012 C 
ATOM     14  C   UNL     1      31.476 -10.701 -19.131  0.00  0.00    +0.001 C 
ENDBRANCH  12  13
ENDBRANCH  11  12
ENDBRANCH   9  11
ENDBRANCH   8   9
ENDBRANCH   1   8
BRANCH   1  15
ATOM     15  C   UNL     1      34.779 -15.529 -22.863  0.00  0.00    +0.256 C 
BRANCH  15  16
ATOM     16  O   UNL     1      34.943 -16.643 -23.734  0.00  0.00    -0.444 OA
BRANCH  16  18
ATOM     17  O   UNL     1      34.287 -17.419 -25.806  0.00  0.00    -0.250 OA
ATOM     18  C   UNL     1      34.290 -16.560 -24.935  0.00  0.00    +0.317 C 
BRANCH  18  19
ATOM     19  C   UNL     1      33.572 -15.232 -25.018  0.00  0.00    +0.110 C 
BRANCH  19  20
ATOM     20  C   UNL     1      32.946 -15.004 -26.392  0.00  0.00    +0.012 C 
ATOM     21  C   UNL     1      33.126 -13.569 -26.856  0.00  0.00    +0.001 C 
ENDBRANCH  19  20
ENDBRANCH  18  19
ENDBRANCH  16  18
ENDBRANCH  15  16
ENDBRANCH   1  15
TORSDOF 14
ENDMDL
MODEL 4
REMARK VINA RESULT:      -7.3      1.382      5.960
REMARK  Name = 6050
REMARK  14 active torsions:
REMARK  status: ('A' for Active; 'I' for Inactive)
REMARK    1  A    between atoms: C_1  and  O_2
REMARK    2  A    between atoms: C_1  and  C_8
REMARK    3  A    between atoms: C_1  and  C_15
REMARK    4  A    between atoms: O_2  and  C_4
REMARK    5  A    between atoms: C_4  and  C_5
REMARK    6  A    between atoms: C_5  and  C_6
REMARK    7  A    between atoms: C_8  and  O_9
REMARK    8  A    between atoms: O_9  and  C_11
REMARK    9  A    between atoms: C_11  and  C_12
REMARK   10  A    between atoms: C_12  and  C_13
REMARK   11  A    between atoms: C_15  and  O_16
REMARK   12  A    between atoms: O_16  and  C_18
REMARK   13  A    between atoms: C_18  and  C_19
REMARK   14  A    between atoms: C_19  and  C_20
REMARK                            x       y       z     vdW  Elec       q    Type
REMARK                         _______ _______ _______ _____ _____    ______ ____
ROOT
ATOM      1  C   UNL     1      34.012 -15.607 -21.840  0.00  0.00    +0.256 C 
ENDROOT
BRANCH   1   2
ATOM      2  O   UNL     1      34.912 -16.312 -20.984  0.00  0.00    -0.444 OA
BRANCH   2   4
ATOM      3  O   UNL     1      36.191 -18.088 -21.714  0.00  0.00    -0.250 OA
ATOM      4  C   UNL     1      35.135 -17.621 -21.311  0.00  0.00    +0.317 C 
BRANCH   4   5
ATOM      5  C   UNL     1      33.861 -18.405 -21.096  0.00  0.00    +0.110 C 
BRANCH   5   6
ATOM      6  C   UNL     1      34.138 -19.873 -20.782  0.00  0.00    +0.012 C 
ATOM      7  C   UNL     1      32.940 -20.539 -20.128  0.00  0.00    +0.001 C 
ENDBRANCH   5   6
ENDBRANCH   4   5
ENDBRANCH   2   4
ENDBRANCH   1   2
BRANCH   1   8
ATOM      8  C   UNL     1      34.696 -15.415 -23.187  0.00  0.00    +0.256 C 
BRANCH   8   9
ATOM      9  O   UNL     1      33.695 -15.284 -24.203  0.00  0.00    -0.444 OA
BRANCH   9  11
ATOM     10  O   UNL     1      33.477 -15.727 -26.457  0.00  0.00    -0.250 OA
ATOM     11  C   UNL     1      33.923 -15.993 -25.348  0.00  0.00    +0.317 C 
BRANCH  11  12
ATOM     12  C   UNL     1      34.817 -17.168 -25.026  0.00  0.00    +0.110 C 
BRANCH  12  13
ATOM     13  C   UNL     1      34.074 -18.498 -25.132  0.00  0.00    +0.012 C 
ATOM     14  C   UNL     1      34.866 -19.631 -24.500  0.00  0.00    +0.001 C 
ENDBRANCH  12  13
ENDBRANCH  11  12
ENDBRANCH   9  11
ENDBRANCH   8   9
ENDBRANCH   1   8
BRANCH   1  15
ATOM     15  C   UNL     1      33.668 -14.269 -21.194  0.00  0.00    +0.256 C 
BRANCH  15  16
ATOM     16  O   UNL     1      32.345 -13.885 -21.552  0.00  0.00    -0.444 OA
BRANCH  16  18
ATOM     17  O   UNL     1      32.800 -12.285 -23.151  0.00  0.00    -0.250 OA
ATOM     18  C   UNL     1      32.221 -12.654 -22.139  0.00  0.00    +0.317 C 
BRANCH  18  19
ATOM     19  C   UNL     1      31.251 -11.817 -21.336  0.00  0.00    +0.110 C 
BRANCH  19  20
ATOM     20  C   UNL     1      31.667 -11.709 -19.871  0.00  0.00    +0.012 C 
ATOM     21  C   UNL     1      31.195 -10.403 -19.252  0.00  0.00    +0.001 C 
ENDBRANCH  19  20
ENDBRANCH  18  19
ENDBRANCH  16  18
ENDBRANCH  15  16
ENDBRANCH   1  15
TORSDOF 14
ENDMDL
MODEL 5
REMARK VINA RESULT:      -7.3      1.217      6.267
REMARK  Name = 6050
REMARK  14 active torsions:
REMARK  status: ('A' for Active; 'I' for Inactive)
REMARK    1  A    between atoms: C_1  and  O_2
REMARK    2  A    between atoms: C_1  and  C_8
REMARK    3  A    between atoms: C_1  and  C_15
REMARK    4  A    between atoms: O_2  and  C_4
REMARK    5  A    between atoms: C_4  and  C_5
REMARK    6  A    between atoms: C_5  and  C_6
REMARK    7  A    between atoms: C_8  and  O_9
REMARK    8  A    between atoms: O_9  and  C_11
REMARK    9  A    between atoms: C_11  and  C_12
REMARK   10  A    between atoms: C_12  and  C_13
REMARK   11  A    between atoms: C_15  and  O_16
REMARK   12  A    between atoms: O_16  and  C_18
REMARK   13  A    between atoms: C_18  and  C_19
REMARK   14  A    between atoms: C_19  and  C_20
REMARK                            x       y       z     vdW  Elec       q    Type
REMARK                         _______ _______ _______ _____ _____    ______ ____
ROOT
ATOM      1  C   UNL     1      34.684 -15.445 -23.231  0.00  0.00    +0.256 C 
ENDROOT
BRANCH   1   2
ATOM      2  O   UNL     1      33.619 -15.873 -24.083  0.00  0.00    -0.444 OA
BRANCH   2   4
ATOM      3  O   UNL     1      34.963 -16.719 -25.756  0.00  0.00    -0.250 OA
ATOM      4  C   UNL     1      33.965 -16.119 -25.382  0.00  0.00    +0.317 C 
BRANCH   4   5
ATOM      5  C   UNL     1      32.912 -15.527 -26.291  0.00  0.00    +0.110 C 
BRANCH   5   6
ATOM      6  C   UNL     1      32.818 -14.010 -26.147  0.00  0.00    +0.012 C 
ATOM      7  C   UNL     1      33.492 -13.297 -27.307  0.00  0.00    +0.001 C 
ENDBRANCH   5   6
ENDBRANCH   4   5
ENDBRANCH   2   4
ENDBRANCH   1   2
BRANCH   1   8
ATOM      8  C   UNL     1      34.805 -16.446 -22.090  0.00  0.00    +0.256 C 
BRANCH   8   9
ATOM      9  O   UNL     1      35.661 -17.518 -22.501  0.00  0.00    -0.444 OA
BRANCH   9  11
ATOM     10  O   UNL     1      34.743 -19.324 -23.608  0.00  0.00    -0.250 OA
ATOM     11  C   UNL     1      35.069 -18.747 -22.578  0.00  0.00    +0.317 C 
BRANCH  11  12
ATOM     12  C   UNL     1      34.877 -19.286 -21.179  0.00  0.00    +0.110 C 
BRANCH  12  13
ATOM     13  C   UNL     1      33.425 -19.676 -20.911  0.00  0.00    +0.012 C 
ATOM     14  C   UNL     1      33.332 -20.857 -19.959  0.00  0.00    +0.001 C 
ENDBRANCH  12  13
ENDBRANCH  11  12
ENDBRANCH   9  11
ENDBRANCH   8   9
ENDBRANCH   1   8
BRANCH   1  15
ATOM     15  C   UNL     1      34.365 -14.046 -22.714  0.00  0.00    +0.256 C 
BRANCH  15  16
ATOM     16  O   UNL     1      32.955 -13.881 -22.608  0.00  0.00    -0.444 OA
BRANCH  16  18
ATOM     17  O   UNL     1      32.626 -14.316 -20.366  0.00  0.00    -0.250 OA
ATOM     18  C   UNL     1      32.481 -13.608 -21.352  0.00  0.00    +0.317 C 
BRANCH  18  19
ATOM     19  C   UNL     1      31.743 -12.288 -21.377  0.00  0.00    +0.110 C 
BRANCH  19  20
ATOM     20  C   UNL     1      31.617 -11.677 -19.984  0.00  0.00    +0.012 C 
ATOM     21  C   UNL     1      31.652 -10.159 -20.036  0.00  0.00    +0.001 C 
ENDBRANCH  19  20
ENDBRANCH  18  19
ENDBRANCH  16  18
ENDBRANCH  15  16
ENDBRANCH   1  15
TORSDOF 14
ENDMDL
MODEL 6
REMARK VINA RESULT:      -7.2      1.731      2.475
REMARK  Name = 6050
REMARK  14 active torsions:
REMARK  status: ('A' for Active; 'I' for Inactive)
REMARK    1  A    between atoms: C_1  and  O_2
REMARK    2  A    between atoms: C_1  and  C_8
REMARK    3  A    between atoms: C_1  and  C_15
REMARK    4  A    between atoms: O_2  and  C_4
REMARK    5  A    between atoms: C_4  and  C_5
REMARK    6  A    between atoms: C_5  and  C_6
REMARK    7  A    between atoms: C_8  and  O_9
REMARK    8  A    between atoms: O_9  and  C_11
REMARK    9  A    between atoms: C_11  and  C_12
REMARK   10  A    between atoms: C_12  and  C_13
REMARK   11  A    between atoms: C_15  and  O_16
REMARK   12  A    between atoms: O_16  and  C_18
REMARK   13  A    between atoms: C_18  and  C_19
REMARK   14  A    between atoms: C_19  and  C_20
REMARK                            x       y       z     vdW  Elec       q    Type
REMARK                         _______ _______ _______ _____ _____    ______ ____
ROOT
ATOM      1  C   UNL     1      34.938 -17.110 -21.925  0.00  0.00    +0.256 C 
ENDROOT
BRANCH   1   2
ATOM      2  O   UNL     1      33.754 -16.453 -21.469  0.00  0.00    -0.444 OA
BRANCH   2   4
ATOM      3  O   UNL     1      35.009 -15.010 -20.180  0.00  0.00    -0.250 OA
ATOM      4  C   UNL     1      33.953 -15.340 -20.702  0.00  0.00    +0.317 C 
BRANCH   4   5
ATOM      5  C   UNL     1      32.653 -14.576 -20.597  0.00  0.00    +0.110 C 
BRANCH   5   6
ATOM      6  C   UNL     1      32.408 -13.694 -21.818  0.00  0.00    +0.012 C 
ATOM      7  C   UNL     1      31.779 -12.366 -21.431  0.00  0.00    +0.001 C 
ENDBRANCH   5   6
ENDBRANCH   4   5
ENDBRANCH   2   4
ENDBRANCH   1   2
BRANCH   1   8
ATOM      8  C   UNL     1      35.297 -16.538 -23.290  0.00  0.00    +0.256 C 
BRANCH   8   9
ATOM      9  O   UNL     1      34.090 -16.200 -23.984  0.00  0.00    -0.444 OA
BRANCH   9  11
ATOM     10  O   UNL     1      34.822 -17.226 -25.917  0.00  0.00    -0.250 OA
ATOM     11  C   UNL     1      34.102 -16.428 -25.330  0.00  0.00    +0.317 C 
BRANCH  11  12
ATOM     12  C   UNL     1      33.079 -15.530 -25.988  0.00  0.00    +0.110 C 
BRANCH  12  13
ATOM     13  C   UNL     1      33.164 -14.095 -25.474  0.00  0.00    +0.012 C 
ATOM     14  C   UNL     1      33.316 -13.102 -26.615  0.00  0.00    +0.001 C 
ENDBRANCH  12  13
ENDBRANCH  11  12
ENDBRANCH   9  11
ENDBRANCH   8   9
ENDBRANCH   1   8
BRANCH   1  15
ATOM     15  C   UNL     1      34.670 -18.609 -22.001  0.00  0.00    +0.256 C 
BRANCH  15  16
ATOM     16  O   UNL     1      33.551 -18.941 -21.186  0.00  0.00    -0.444 OA
BRANCH  16  18
ATOM     17  O   UNL     1      32.752 -20.693 -19.915  0.00  0.00    -0.250 OA
ATOM     18  C   UNL     1      33.672 -20.087 -20.447  0.00  0.00    +0.317 C 
BRANCH  18  19
ATOM     19  C   UNL     1      35.129 -20.487 -20.388  0.00  0.00    +0.110 C 
BRANCH  19  20
ATOM     20  C   UNL     1      35.341 -21.759 -19.571  0.00  0.00    +0.012 C 
ATOM     21  C   UNL     1      36.470 -21.595 -18.567  0.00  0.00    +0.001 C 
ENDBRANCH  19  20
ENDBRANCH  18  19
ENDBRANCH  16  18
ENDBRANCH  15  16
ENDBRANCH   1  15
TORSDOF 14
ENDMDL
MODEL 7
REMARK VINA RESULT:      -7.2      1.576      6.450
REMARK  Name = 6050
REMARK  14 active torsions:
REMARK  status: ('A' for Active; 'I' for Inactive)
REMARK    1  A    between atoms: C_1  and  O_2
REMARK    2  A    between atoms: C_1  and  C_8
REMARK    3  A    between atoms: C_1  and  C_15
REMARK    4  A    between atoms: O_2  and  C_4
REMARK    5  A    between atoms: C_4  and  C_5
REMARK    6  A    between atoms: C_5  and  C_6
REMARK    7  A    between atoms: C_8  and  O_9
REMARK    8  A    between atoms: O_9  and  C_11
REMARK    9  A    between atoms: C_11  and  C_12
REMARK   10  A    between atoms: C_12  and  C_13
REMARK   11  A    between atoms: C_15  and  O_16
REMARK   12  A    between atoms: O_16  and  C_18
REMARK   13  A    between atoms: C_18  and  C_19
REMARK   14  A    between atoms: C_19  and  C_20
REMARK                            x       y       z     vdW  Elec       q    Type
REMARK                         _______ _______ _______ _____ _____    ______ ____
ROOT
ATOM      1  C   UNL     1      34.465 -16.768 -23.095  0.00  0.00    +0.256 C 
ENDROOT
BRANCH   1   2
ATOM      2  O   UNL     1      34.848 -15.625 -22.327  0.00  0.00    -0.444 OA
BRANCH   2   4
ATOM      3  O   UNL     1      34.985 -15.617 -20.025  0.00  0.00    -0.250 OA
ATOM      4  C   UNL     1      34.337 -15.565 -21.061  0.00  0.00    +0.317 C 
BRANCH   4   5
ATOM      5  C   UNL     1      32.834 -15.424 -21.144  0.00  0.00    +0.110 C 
BRANCH   5   6
ATOM      6  C   UNL     1      32.416 -14.076 -21.725  0.00  0.00    +0.012 C 
ATOM      7  C   UNL     1      32.238 -13.031 -20.636  0.00  0.00    +0.001 C 
ENDBRANCH   5   6
ENDBRANCH   4   5
ENDBRANCH   2   4
ENDBRANCH   1   2
BRANCH   1   8
ATOM      8  C   UNL     1      35.506 -17.856 -22.870  0.00  0.00    +0.256 C 
BRANCH   8   9
ATOM      9  O   UNL     1      34.861 -19.010 -22.320  0.00  0.00    -0.444 OA
BRANCH   9  11
ATOM     10  O   UNL     1      36.133 -18.848 -20.402  0.00  0.00    -0.250 OA
ATOM     11  C   UNL     1      35.184 -19.305 -21.026  0.00  0.00    +0.317 C 
BRANCH  11  12
ATOM     12  C   UNL     1      34.179 -20.295 -20.484  0.00  0.00    +0.110 C 
BRANCH  12  13
ATOM     13  C   UNL     1      34.833 -21.337 -19.580  0.00  0.00    +0.012 C 
ATOM     14  C   UNL     1      33.858 -22.442 -19.208  0.00  0.00    +0.001 C 
ENDBRANCH  12  13
ENDBRANCH  11  12
ENDBRANCH   9  11
ENDBRANCH   8   9
ENDBRANCH   1   8
BRANCH   1  15
ATOM     15  C   UNL     1      34.386 -16.367 -24.564  0.00  0.00    +0.256 C 
BRANCH  15  16
ATOM     16  O   UNL     1      33.547 -15.226 -24.709  0.00  0.00    -0.444 OA
BRANCH  16  18
ATOM     17  O   UNL     1      32.963 -15.660 -26.899  0.00  0.00    -0.250 OA
ATOM     18  C   UNL     1      33.231 -14.880 -25.996  0.00  0.00    +0.317 C 
BRANCH  18  19
ATOM     19  C   UNL     1      33.266 -13.374 -26.126  0.00  0.00    +0.110 C 
BRANCH  19  20
ATOM     20  C   UNL     1      33.649 -12.694 -24.814  0.00  0.00    +0.012 C 
ATOM     21  C   UNL     1      34.132 -11.272 -25.043  0.00  0.00    +0.001 C 
ENDBRANCH  19  20
ENDBRANCH  18  19
ENDBRANCH  16  18
ENDBRANCH  15  16
ENDBRANCH   1  15
TORSDOF 14
ENDMDL
MODEL 8
REMARK VINA RESULT:      -7.1      1.881      6.486
REMARK  Name = 6050
REMARK  14 active torsions:
REMARK  status: ('A' for Active; 'I' for Inactive)
REMARK    1  A    between atoms: C_1  and  O_2
REMARK    2  A    between atoms: C_1  and  C_8
REMARK    3  A    between atoms: C_1  and  C_15
REMARK    4  A    between atoms: O_2  and  C_4
REMARK    5  A    between atoms: C_4  and  C_5
REMARK    6  A    between atoms: C_5  and  C_6
REMARK    7  A    between atoms: C_8  and  O_9
REMARK    8  A    between atoms: O_9  and  C_11
REMARK    9  A    between atoms: C_11  and  C_12
REMARK   10  A    between atoms: C_12  and  C_13
REMARK   11  A    between atoms: C_15  and  O_16
REMARK   12  A    between atoms: O_16  and  C_18
REMARK   13  A    between atoms: C_18  and  C_19
REMARK   14  A    between atoms: C_19  and  C_20
REMARK                            x       y       z     vdW  Elec       q    Type
REMARK                         _______ _______ _______ _____ _____    ______ ____
ROOT
ATOM      1  C   UNL     1      34.381 -17.478 -22.005  0.00  0.00    +0.256 C 
ENDROOT
BRANCH   1   2
ATOM      2  O   UNL     1      34.915 -16.853 -20.836  0.00  0.00    -0.444 OA
BRANCH   2   4
ATOM      3  O   UNL     1      35.166 -14.637 -20.246  0.00  0.00    -0.250 OA
ATOM      4  C   UNL     1      34.472 -15.584 -20.590  0.00  0.00    +0.317 C 
BRANCH   4   5
ATOM      5  C   UNL     1      32.977 -15.534 -20.810  0.00  0.00    +0.110 C 
BRANCH   5   6
ATOM      6  C   UNL     1      32.426 -14.117 -20.679  0.00  0.00    +0.012 C 
ATOM      7  C   UNL     1      32.301 -13.440 -22.033  0.00  0.00    +0.001 C 
ENDBRANCH   5   6
ENDBRANCH   4   5
ENDBRANCH   2   4
ENDBRANCH   1   2
BRANCH   1   8
ATOM      8  C   UNL     1      34.086 -18.933 -21.667  0.00  0.00    +0.256 C 
BRANCH   8   9
ATOM      9  O   UNL     1      35.323 -19.649 -21.576  0.00  0.00    -0.444 OA
BRANCH   9  11
ATOM     10  O   UNL     1      36.635 -20.207 -19.761  0.00  0.00    -0.250 OA
ATOM     11  C   UNL     1      35.573 -20.240 -20.371  0.00  0.00    +0.317 C 
BRANCH  11  12
ATOM     12  C   UNL     1      34.322 -20.950 -19.905  0.00  0.00    +0.110 C 
BRANCH  12  13
ATOM     13  C   UNL     1      34.644 -22.201 -19.091  0.00  0.00    +0.012 C 
ATOM     14  C   UNL     1      33.442 -22.665 -18.285  0.00  0.00    +0.001 C 
ENDBRANCH  12  13
ENDBRANCH  11  12
ENDBRANCH   9  11
ENDBRANCH   8   9
ENDBRANCH   1   8
BRANCH   1  15
ATOM     15  C   UNL     1      35.402 -17.363 -23.132  0.00  0.00    +0.256 C 
BRANCH  15  16
ATOM     16  O   UNL     1      35.213 -16.137 -23.831  0.00  0.00    -0.444 OA
BRANCH  16  18
ATOM     17  O   UNL     1      34.685 -17.037 -25.889  0.00  0.00    -0.250 OA
ATOM     18  C   UNL     1      34.499 -16.221 -24.997  0.00  0.00    +0.317 C 
BRANCH  18  19
ATOM     19  C   UNL     1      33.442 -15.140 -25.010  0.00  0.00    +0.110 C 
BRANCH  19  20
ATOM     20  C   UNL     1      32.875 -14.911 -26.409  0.00  0.00    +0.012 C 
ATOM     21  C   UNL     1      33.212 -13.522 -26.925  0.00  0.00    +0.001 C 
ENDBRANCH  19  20
ENDBRANCH  18  19
ENDBRANCH  16  18
ENDBRANCH  15  16
ENDBRANCH   1  15
TORSDOF 14
ENDMDL
MODEL 9
REMARK VINA RESULT:      -7.1      6.993     11.066
REMARK  Name = 6050
REMARK  14 active torsions:
REMARK  status: ('A' for Active; 'I' for Inactive)
REMARK    1  A    between atoms: C_1  and  O_2
REMARK    2  A    between atoms: C_1  and  C_8
REMARK    3  A    between atoms: C_1  and  C_15
REMARK    4  A    between atoms: O_2  and  C_4
REMARK    5  A    between atoms: C_4  and  C_5
REMARK    6  A    between atoms: C_5  and  C_6
REMARK    7  A    between atoms: C_8  and  O_9
REMARK    8  A    between atoms: O_9  and  C_11
REMARK    9  A    between atoms: C_11  and  C_12
REMARK   10  A    between atoms: C_12  and  C_13
REMARK   11  A    between atoms: C_15  and  O_16
REMARK   12  A    between atoms: O_16  and  C_18
REMARK   13  A    between atoms: C_18  and  C_19
REMARK   14  A    between atoms: C_19  and  C_20
REMARK                            x       y       z     vdW  Elec       q    Type
REMARK                         _______ _______ _______ _____ _____    ______ ____
ROOT
ATOM      1  C   UNL     1      34.753 -23.294 -15.437  0.00  0.00    +0.256 C 
ENDROOT
BRANCH   1   2
ATOM      2  O   UNL     1      34.384 -24.478 -14.727  0.00  0.00    -0.444 OA
BRANCH   2   4
ATOM      3  O   UNL     1      34.136 -24.021 -12.480  0.00  0.00    -0.250 OA
ATOM      4  C   UNL     1      33.668 -24.280 -13.580  0.00  0.00    +0.317 C 
BRANCH   4   5
ATOM      5  C   UNL     1      32.196 -24.434 -13.887  0.00  0.00    +0.110 C 
BRANCH   5   6
ATOM      6  C   UNL     1      31.457 -23.099 -13.831  0.00  0.00    +0.012 C 
ATOM      7  C   UNL     1      30.327 -23.043 -14.844  0.00  0.00    +0.001 C 
ENDBRANCH   5   6
ENDBRANCH   4   5
ENDBRANCH   2   4
ENDBRANCH   1   2
BRANCH   1   8
ATOM      8  C   UNL     1      34.035 -23.310 -16.780  0.00  0.00    +0.256 C 
BRANCH   8   9
ATOM      9  O   UNL     1      34.860 -22.663 -17.756  0.00  0.00    -0.444 OA
BRANCH   9  11
ATOM     10  O   UNL     1      33.948 -23.690 -19.610  0.00  0.00    -0.250 OA
ATOM     11  C   UNL     1      34.396 -22.704 -19.039  0.00  0.00    +0.317 C 
BRANCH  11  12
ATOM     12  C   UNL     1      34.524 -21.327 -19.650  0.00  0.00    +0.110 C 
BRANCH  12  13
ATOM     13  C   UNL     1      33.163 -20.722 -19.988  0.00  0.00    +0.012 C 
ATOM     14  C   UNL     1      33.304 -19.479 -20.851  0.00  0.00    +0.001 C 
ENDBRANCH  12  13
ENDBRANCH  11  12
ENDBRANCH   9  11
ENDBRANCH   8   9
ENDBRANCH   1   8
BRANCH   1  15
ATOM     15  C   UNL     1      36.267 -23.280 -15.614  0.00  0.00    +0.256 C 
BRANCH  15  16
ATOM     16  O   UNL     1      36.790 -24.587 -15.403  0.00  0.00    -0.444 OA
BRANCH  16  18
ATOM     17  O   UNL     1      39.050 -24.357 -14.999  0.00  0.00    -0.250 OA
ATOM     18  C   UNL     1      37.922 -24.658 -14.636  0.00  0.00    +0.317 C 
BRANCH  18  19
ATOM     19  C   UNL     1      37.558 -25.173 -13.262  0.00  0.00    +0.110 C 
BRANCH  19  20
ATOM     20  C   UNL     1      38.149 -24.309 -12.151  0.00  0.00    +0.012 C 
ATOM     21  C   UNL     1      37.395 -22.998 -12.003  0.00  0.00    +0.001 C 
ENDBRANCH  19  20
ENDBRANCH  18  19
ENDBRANCH  16  18
ENDBRANCH  15  16
ENDBRANCH   1  15
TORSDOF 14
ENDMDL
