MODEL 1
REMARK VINA RESULT:      -6.8      0.000      0.000
REMARK  Name = 6082
REMARK  6 active torsions:
REMARK  status: ('A' for Active; 'I' for Inactive)
REMARK    1  A    between atoms: C_1  and  C_11
REMARK    2  A    between atoms: C_2  and  O_7
REMARK    3  A    between atoms: C_4  and  O_9
REMARK    4  A    between atoms: C_11  and  O_12
REMARK    5  A    between atoms: C_11  and  C_14
REMARK    6  A    between atoms: C_14  and  N_16
REMARK                            x       y       z     vdW  Elec       q    Type
REMARK                         _______ _______ _______ _____ _____    ______ ____
ROOT
ATOM      1  C   UNL     1      34.327 -15.489 -23.235  0.00  0.00    +0.039 C 
ATOM      2  C   UNL     1      33.856 -15.649 -24.526  0.00  0.00    +0.137 C 
ATOM      3  C   UNL     1      35.061 -16.480 -22.605  0.00  0.00    +0.038 C 
ATOM      4  C   UNL     1      35.332 -17.666 -23.289  0.00  0.00    +0.139 C 
ATOM      5  C   UNL     1      34.126 -16.834 -25.210  0.00  0.00    +0.040 C 
ATOM      6  C   UNL     1      34.865 -17.843 -24.590  0.00  0.00    +0.040 C 
ENDROOT
BRANCH   2   7
ATOM      7  O   UNL     1      33.133 -14.674 -25.146  0.00  0.00    -0.472 OA
ATOM      8  C   UNL     1      32.935 -14.808 -26.552  0.00  0.00    +0.252 C 
ENDBRANCH   2   7
BRANCH   4   9
ATOM      9  O   UNL     1      36.052 -18.650 -22.684  0.00  0.00    -0.471 OA
ATOM     10  C   UNL     1      36.108 -18.633 -21.259  0.00  0.00    +0.252 C 
ENDBRANCH   4   9
BRANCH   1  11
ATOM     11  C   UNL     1      34.042 -14.209 -22.478  0.00  0.00    +0.116 C 
BRANCH  11  12
ATOM     12  O   UNL     1      34.357 -13.129 -23.361  0.00  0.00    -0.382 OA
ATOM     13  H   UNL     1      34.872 -12.460 -22.882  0.00  0.00    +0.211 HD
ENDBRANCH  11  12
BRANCH  11  14
ATOM     14  C   UNL     1      32.579 -14.087 -21.993  0.00  0.00    -0.034 C 
ATOM     15  C   UNL     1      32.480 -13.727 -20.510  0.00  0.00    -0.021 C 
BRANCH  14  16
ATOM     16  N   UNL     1      31.891 -13.042 -22.760  0.00  0.00    +0.384 N 
ATOM     17  H   UNL     1      32.441 -12.183 -22.734  0.00  0.00    -0.089 HD
ATOM     18  H   UNL     1      30.971 -12.871 -22.354  0.00  0.00    -0.089 HD
ATOM     19  H   UNL     1      31.783 -13.346 -23.728  0.00  0.00    -0.089 HD
ENDBRANCH  14  16
ENDBRANCH  11  14
ENDBRANCH   1  11
TORSDOF 6
ENDMDL
MODEL 2
REMARK VINA RESULT:      -6.4      2.433      4.940
REMARK  Name = 6082
REMARK  6 active torsions:
REMARK  status: ('A' for Active; 'I' for Inactive)
REMARK    1  A    between atoms: C_1  and  C_11
REMARK    2  A    between atoms: C_2  and  O_7
REMARK    3  A    between atoms: C_4  and  O_9
REMARK    4  A    between atoms: C_11  and  O_12
REMARK    5  A    between atoms: C_11  and  C_14
REMARK    6  A    between atoms: C_14  and  N_16
REMARK                            x       y       z     vdW  Elec       q    Type
REMARK                         _______ _______ _______ _____ _____    ______ ____
ROOT
ATOM      1  C   UNL     1      34.730 -16.962 -23.378  0.00  0.00    +0.039 C 
ATOM      2  C   UNL     1      34.661 -15.856 -22.549  0.00  0.00    +0.137 C 
ATOM      3  C   UNL     1      34.326 -16.902 -24.701  0.00  0.00    +0.038 C 
ATOM      4  C   UNL     1      33.838 -15.697 -25.209  0.00  0.00    +0.139 C 
ATOM      5  C   UNL     1      34.173 -14.652 -23.057  0.00  0.00    +0.040 C 
ATOM      6  C   UNL     1      33.761 -14.573 -24.388  0.00  0.00    +0.040 C 
ENDROOT
BRANCH   2   7
ATOM      7  O   UNL     1      35.058 -15.916 -21.246  0.00  0.00    -0.472 OA
ATOM      8  C   UNL     1      34.352 -15.099 -20.315  0.00  0.00    +0.252 C 
ENDBRANCH   2   7
BRANCH   4   9
ATOM      9  O   UNL     1      33.436 -15.620 -26.507  0.00  0.00    -0.471 OA
ATOM     10  C   UNL     1      33.024 -14.342 -26.986  0.00  0.00    +0.252 C 
ENDBRANCH   4   9
BRANCH   1  11
ATOM     11  C   UNL     1      35.256 -18.277 -22.842  0.00  0.00    +0.116 C 
BRANCH  11  12
ATOM     12  O   UNL     1      36.683 -18.184 -22.848  0.00  0.00    -0.382 OA
ATOM     13  H   UNL     1      37.066 -19.074 -22.786  0.00  0.00    +0.211 HD
ENDBRANCH  11  12
BRANCH  11  14
ATOM     14  C   UNL     1      34.754 -18.614 -21.420  0.00  0.00    -0.034 C 
ATOM     15  C   UNL     1      33.781 -19.795 -21.405  0.00  0.00    -0.021 C 
BRANCH  14  16
ATOM     16  N   UNL     1      35.894 -18.955 -20.562  0.00  0.00    +0.384 N 
ATOM     17  H   UNL     1      35.557 -19.407 -19.712  0.00  0.00    -0.089 HD
ATOM     18  H   UNL     1      36.403 -18.106 -20.318  0.00  0.00    -0.089 HD
ATOM     19  H   UNL     1      36.516 -19.592 -21.061  0.00  0.00    -0.089 HD
ENDBRANCH  14  16
ENDBRANCH  11  14
ENDBRANCH   1  11
TORSDOF 6
ENDMDL
MODEL 3
REMARK VINA RESULT:      -6.3      9.757     12.554
REMARK  Name = 6082
REMARK  6 active torsions:
REMARK  status: ('A' for Active; 'I' for Inactive)
REMARK    1  A    between atoms: C_1  and  C_11
REMARK    2  A    between atoms: C_2  and  O_7
REMARK    3  A    between atoms: C_4  and  O_9
REMARK    4  A    between atoms: C_11  and  O_12
REMARK    5  A    between atoms: C_11  and  C_14
REMARK    6  A    between atoms: C_14  and  N_16
REMARK                            x       y       z     vdW  Elec       q    Type
REMARK                         _______ _______ _______ _____ _____    ______ ____
ROOT
ATOM      1  C   UNL     1      33.859 -23.650 -14.439  0.00  0.00    +0.039 C 
ATOM      2  C   UNL     1      32.477 -23.567 -14.409  0.00  0.00    +0.137 C 
ATOM      3  C   UNL     1      34.566 -23.507 -15.620  0.00  0.00    +0.038 C 
ATOM      4  C   UNL     1      33.871 -23.275 -16.807  0.00  0.00    +0.139 C 
ATOM      5  C   UNL     1      31.782 -23.335 -15.595  0.00  0.00    +0.040 C 
ATOM      6  C   UNL     1      32.479 -23.189 -16.796  0.00  0.00    +0.040 C 
ENDROOT
BRANCH   2   7
ATOM      7  O   UNL     1      31.780 -23.707 -13.246  0.00  0.00    -0.472 OA
ATOM      8  C   UNL     1      30.559 -24.442 -13.307  0.00  0.00    +0.252 C 
ENDBRANCH   2   7
BRANCH   4   9
ATOM      9  O   UNL     1      34.552 -23.133 -17.977  0.00  0.00    -0.471 OA
ATOM     10  C   UNL     1      33.944 -22.332 -18.990  0.00  0.00    +0.252 C 
ENDBRANCH   4   9
BRANCH   1  11
ATOM     11  C   UNL     1      34.629 -23.902 -13.160  0.00  0.00    +0.116 C 
BRANCH  11  12
ATOM     12  O   UNL     1      34.022 -25.033 -12.529  0.00  0.00    -0.382 OA
ATOM     13  H   UNL     1      33.809 -25.701 -13.200  0.00  0.00    +0.211 HD
ENDBRANCH  11  12
BRANCH  11  14
ATOM     14  C   UNL     1      36.135 -24.167 -13.385  0.00  0.00    -0.034 C 
ATOM     15  C   UNL     1      37.023 -23.341 -12.452  0.00  0.00    -0.021 C 
BRANCH  14  16
ATOM     16  N   UNL     1      36.427 -25.586 -13.148  0.00  0.00    +0.384 N 
ATOM     17  H   UNL     1      37.005 -25.679 -12.314  0.00  0.00    -0.089 HD
ATOM     18  H   UNL     1      36.923 -25.970 -13.952  0.00  0.00    -0.089 HD
ATOM     19  H   UNL     1      35.552 -26.095 -13.014  0.00  0.00    -0.089 HD
ENDBRANCH  14  16
ENDBRANCH  11  14
ENDBRANCH   1  11
TORSDOF 6
ENDMDL
MODEL 4
REMARK VINA RESULT:      -6.3      1.442      3.700
REMARK  Name = 6082
REMARK  6 active torsions:
REMARK  status: ('A' for Active; 'I' for Inactive)
REMARK    1  A    between atoms: C_1  and  C_11
REMARK    2  A    between atoms: C_2  and  O_7
REMARK    3  A    between atoms: C_4  and  O_9
REMARK    4  A    between atoms: C_11  and  O_12
REMARK    5  A    between atoms: C_11  and  C_14
REMARK    6  A    between atoms: C_14  and  N_16
REMARK                            x       y       z     vdW  Elec       q    Type
REMARK                         _______ _______ _______ _____ _____    ______ ____
ROOT
ATOM      1  C   UNL     1      34.636 -16.036 -22.781  0.00  0.00    +0.039 C 
ATOM      2  C   UNL     1      35.090 -17.328 -22.578  0.00  0.00    +0.137 C 
ATOM      3  C   UNL     1      34.164 -15.620 -24.014  0.00  0.00    +0.038 C 
ATOM      4  C   UNL     1      34.145 -16.525 -25.076  0.00  0.00    +0.139 C 
ATOM      5  C   UNL     1      35.071 -18.232 -23.640  0.00  0.00    +0.040 C 
ATOM      6  C   UNL     1      34.598 -17.830 -24.890  0.00  0.00    +0.040 C 
ENDROOT
BRANCH   2   7
ATOM      7  O   UNL     1      35.556 -17.737 -21.364  0.00  0.00    -0.472 OA
ATOM      8  C   UNL     1      35.519 -19.137 -21.094  0.00  0.00    +0.252 C 
ENDBRANCH   2   7
BRANCH   4   9
ATOM      9  O   UNL     1      33.684 -16.133 -26.295  0.00  0.00    -0.471 OA
ATOM     10  C   UNL     1      32.869 -14.963 -26.337  0.00  0.00    +0.252 C 
ENDBRANCH   4   9
BRANCH   1  11
ATOM     11  C   UNL     1      34.651 -15.041 -21.640  0.00  0.00    +0.116 C 
BRANCH  11  12
ATOM     12  O   UNL     1      34.884 -13.754 -22.217  0.00  0.00    -0.382 OA
ATOM     13  H   UNL     1      34.751 -13.802 -23.178  0.00  0.00    +0.211 HD
ENDBRANCH  11  12
BRANCH  11  14
ATOM     14  C   UNL     1      33.343 -15.022 -20.816  0.00  0.00    -0.034 C 
ATOM     15  C   UNL     1      32.354 -13.963 -21.308  0.00  0.00    -0.021 C 
BRANCH  14  16
ATOM     16  N   UNL     1      32.686 -16.332 -20.904  0.00  0.00    +0.384 N 
ATOM     17  H   UNL     1      31.692 -16.201 -21.089  0.00  0.00    -0.089 HD
ATOM     18  H   UNL     1      32.806 -16.833 -20.024  0.00  0.00    -0.089 HD
ATOM     19  H   UNL     1      33.105 -16.872 -21.662  0.00  0.00    -0.089 HD
ENDBRANCH  14  16
ENDBRANCH  11  14
ENDBRANCH   1  11
TORSDOF 6
ENDMDL
MODEL 5
REMARK VINA RESULT:      -6.3      7.468     10.505
REMARK  Name = 6082
REMARK  6 active torsions:
REMARK  status: ('A' for Active; 'I' for Inactive)
REMARK    1  A    between atoms: C_1  and  C_11
REMARK    2  A    between atoms: C_2  and  O_7
REMARK    3  A    between atoms: C_4  and  O_9
REMARK    4  A    between atoms: C_11  and  O_12
REMARK    5  A    between atoms: C_11  and  C_14
REMARK    6  A    between atoms: C_14  and  N_16
REMARK                            x       y       z     vdW  Elec       q    Type
REMARK                         _______ _______ _______ _____ _____    ______ ____
ROOT
ATOM      1  C   UNL     1      33.764 -22.992 -17.390  0.00  0.00    +0.039 C 
ATOM      2  C   UNL     1      34.618 -23.191 -16.319  0.00  0.00    +0.137 C 
ATOM      3  C   UNL     1      32.389 -23.030 -17.236  0.00  0.00    +0.038 C 
ATOM      4  C   UNL     1      31.852 -23.276 -15.971  0.00  0.00    +0.139 C 
ATOM      5  C   UNL     1      34.082 -23.437 -15.055  0.00  0.00    +0.040 C 
ATOM      6  C   UNL     1      32.697 -23.479 -14.881  0.00  0.00    +0.040 C 
ENDROOT
BRANCH   2   7
ATOM      7  O   UNL     1      35.972 -23.154 -16.470  0.00  0.00    -0.472 OA
ATOM      8  C   UNL     1      36.761 -23.492 -15.332  0.00  0.00    +0.252 C 
ENDBRANCH   2   7
BRANCH   4   9
ATOM      9  O   UNL     1      30.502 -23.317 -15.803  0.00  0.00    -0.471 OA
ATOM     10  C   UNL     1      29.903 -24.604 -15.663  0.00  0.00    +0.252 C 
ENDBRANCH   4   9
BRANCH   1  11
ATOM     11  C   UNL     1      34.330 -22.726 -18.769  0.00  0.00    +0.116 C 
BRANCH  11  12
ATOM     12  O   UNL     1      33.855 -23.773 -19.619  0.00  0.00    -0.382 OA
ATOM     13  H   UNL     1      34.590 -24.112 -20.155  0.00  0.00    +0.211 HD
ENDBRANCH  11  12
BRANCH  11  14
ATOM     14  C   UNL     1      33.930 -21.350 -19.349  0.00  0.00    -0.034 C 
ATOM     15  C   UNL     1      35.055 -20.705 -20.161  0.00  0.00    -0.021 C 
BRANCH  14  16
ATOM     16  N   UNL     1      32.767 -21.507 -20.231  0.00  0.00    +0.384 N 
ATOM     17  H   UNL     1      31.914 -21.502 -19.672  0.00  0.00    -0.089 HD
ATOM     18  H   UNL     1      32.839 -22.390 -20.736  0.00  0.00    -0.089 HD
ATOM     19  H   UNL     1      32.741 -20.736 -20.899  0.00  0.00    -0.089 HD
ENDBRANCH  14  16
ENDBRANCH  11  14
ENDBRANCH   1  11
TORSDOF 6
ENDMDL
MODEL 6
REMARK VINA RESULT:      -6.3      2.330      4.492
REMARK  Name = 6082
REMARK  6 active torsions:
REMARK  status: ('A' for Active; 'I' for Inactive)
REMARK    1  A    between atoms: C_1  and  C_11
REMARK    2  A    between atoms: C_2  and  O_7
REMARK    3  A    between atoms: C_4  and  O_9
REMARK    4  A    between atoms: C_11  and  O_12
REMARK    5  A    between atoms: C_11  and  C_14
REMARK    6  A    between atoms: C_14  and  N_16
REMARK                            x       y       z     vdW  Elec       q    Type
REMARK                         _______ _______ _______ _____ _____    ______ ____
ROOT
ATOM      1  C   UNL     1      33.755 -15.624 -22.722  0.00  0.00    +0.039 C 
ATOM      2  C   UNL     1      33.484 -14.976 -23.915  0.00  0.00    +0.137 C 
ATOM      3  C   UNL     1      33.381 -15.083 -21.504  0.00  0.00    +0.038 C 
ATOM      4  C   UNL     1      32.715 -13.857 -21.479  0.00  0.00    +0.139 C 
ATOM      5  C   UNL     1      32.819 -13.751 -23.891  0.00  0.00    +0.040 C 
ATOM      6  C   UNL     1      32.434 -13.190 -22.671  0.00  0.00    +0.040 C 
ENDROOT
BRANCH   2   7
ATOM      7  O   UNL     1      33.853 -15.508 -25.115  0.00  0.00    -0.472 OA
ATOM      8  C   UNL     1      33.104 -15.107 -26.260  0.00  0.00    +0.252 C 
ENDBRANCH   2   7
BRANCH   4   9
ATOM      9  O   UNL     1      32.340 -13.311 -20.290  0.00  0.00    -0.471 OA
ATOM     10  C   UNL     1      31.739 -12.018 -20.329  0.00  0.00    +0.252 C 
ENDBRANCH   4   9
BRANCH   1  11
ATOM     11  C   UNL     1      34.477 -16.954 -22.731  0.00  0.00    +0.116 C 
BRANCH  11  12
ATOM     12  O   UNL     1      35.849 -16.677 -23.028  0.00  0.00    -0.382 OA
ATOM     13  H   UNL     1      35.946 -16.513 -23.980  0.00  0.00    +0.211 HD
ENDBRANCH  11  12
BRANCH  11  14
ATOM     14  C   UNL     1      34.371 -17.727 -21.397  0.00  0.00    -0.034 C 
ATOM     15  C   UNL     1      33.893 -19.168 -21.590  0.00  0.00    -0.021 C 
BRANCH  14  16
ATOM     16  N   UNL     1      35.685 -17.769 -20.745  0.00  0.00    +0.384 N 
ATOM     17  H   UNL     1      35.717 -17.074 -19.999  0.00  0.00    -0.089 HD
ATOM     18  H   UNL     1      36.412 -17.567 -21.431  0.00  0.00    -0.089 HD
ATOM     19  H   UNL     1      35.839 -18.698 -20.351  0.00  0.00    -0.089 HD
ENDBRANCH  14  16
ENDBRANCH  11  14
ENDBRANCH   1  11
TORSDOF 6
ENDMDL
MODEL 7
REMARK VINA RESULT:      -6.2      9.529     12.461
REMARK  Name = 6082
REMARK  6 active torsions:
REMARK  status: ('A' for Active; 'I' for Inactive)
REMARK    1  A    between atoms: C_1  and  C_11
REMARK    2  A    between atoms: C_2  and  O_7
REMARK    3  A    between atoms: C_4  and  O_9
REMARK    4  A    between atoms: C_11  and  O_12
REMARK    5  A    between atoms: C_11  and  C_14
REMARK    6  A    between atoms: C_14  and  N_16
REMARK                            x       y       z     vdW  Elec       q    Type
REMARK                         _______ _______ _______ _____ _____    ______ ____
ROOT
ATOM      1  C   UNL     1      33.503 -23.787 -14.429  0.00  0.00    +0.039 C 
ATOM      2  C   UNL     1      34.635 -23.931 -13.646  0.00  0.00    +0.137 C 
ATOM      3  C   UNL     1      33.585 -23.397 -15.754  0.00  0.00    +0.038 C 
ATOM      4  C   UNL     1      34.837 -23.143 -16.313  0.00  0.00    +0.139 C 
ATOM      5  C   UNL     1      35.888 -23.677 -14.205  0.00  0.00    +0.040 C 
ATOM      6  C   UNL     1      35.989 -23.282 -15.540  0.00  0.00    +0.040 C 
ENDROOT
BRANCH   2   7
ATOM      7  O   UNL     1      34.555 -24.315 -12.341  0.00  0.00    -0.472 OA
ATOM      8  C   UNL     1      35.766 -24.307 -11.587  0.00  0.00    +0.252 C 
ENDBRANCH   2   7
BRANCH   4   9
ATOM      9  O   UNL     1      34.935 -22.758 -17.615  0.00  0.00    -0.471 OA
ATOM     10  C   UNL     1      33.727 -22.706 -18.371  0.00  0.00    +0.252 C 
ENDBRANCH   4   9
BRANCH   1  11
ATOM     11  C   UNL     1      32.136 -24.058 -13.837  0.00  0.00    +0.116 C 
BRANCH  11  12
ATOM     12  O   UNL     1      31.905 -23.047 -12.852  0.00  0.00    -0.382 OA
ATOM     13  H   UNL     1      32.323 -22.218 -13.135  0.00  0.00    +0.211 HD
ENDBRANCH  11  12
BRANCH  11  14
ATOM     14  C   UNL     1      30.995 -24.049 -14.881  0.00  0.00    -0.034 C 
ATOM     15  C   UNL     1      30.101 -25.287 -14.783  0.00  0.00    -0.021 C 
BRANCH  14  16
ATOM     16  N   UNL     1      30.153 -22.864 -14.681  0.00  0.00    +0.384 N 
ATOM     17  H   UNL     1      30.688 -22.025 -14.903  0.00  0.00    -0.089 HD
ATOM     18  H   UNL     1      29.845 -22.825 -13.709  0.00  0.00    -0.089 HD
ATOM     19  H   UNL     1      29.338 -22.919 -15.293  0.00  0.00    -0.089 HD
ENDBRANCH  14  16
ENDBRANCH  11  14
ENDBRANCH   1  11
TORSDOF 6
ENDMDL
MODEL 8
REMARK VINA RESULT:      -6.1      3.168      5.112
REMARK  Name = 6082
REMARK  6 active torsions:
REMARK  status: ('A' for Active; 'I' for Inactive)
REMARK    1  A    between atoms: C_1  and  C_11
REMARK    2  A    between atoms: C_2  and  O_7
REMARK    3  A    between atoms: C_4  and  O_9
REMARK    4  A    between atoms: C_11  and  O_12
REMARK    5  A    between atoms: C_11  and  C_14
REMARK    6  A    between atoms: C_14  and  N_16
REMARK                            x       y       z     vdW  Elec       q    Type
REMARK                         _______ _______ _______ _____ _____    ______ ____
ROOT
ATOM      1  C   UNL     1      35.087 -18.114 -21.729  0.00  0.00    +0.039 C 
ATOM      2  C   UNL     1      35.080 -17.963 -23.105  0.00  0.00    +0.137 C 
ATOM      3  C   UNL     1      34.846 -17.045 -20.883  0.00  0.00    +0.038 C 
ATOM      4  C   UNL     1      34.593 -15.787 -21.431  0.00  0.00    +0.139 C 
ATOM      5  C   UNL     1      34.827 -16.706 -23.653  0.00  0.00    +0.040 C 
ATOM      6  C   UNL     1      34.582 -15.617 -22.815  0.00  0.00    +0.040 C 
ENDROOT
BRANCH   2   7
ATOM      7  O   UNL     1      35.317 -19.016 -23.938  0.00  0.00    -0.472 OA
ATOM      8  C   UNL     1      34.435 -19.176 -25.047  0.00  0.00    +0.252 C 
ENDBRANCH   2   7
BRANCH   4   9
ATOM      9  O   UNL     1      34.355 -14.725 -20.614  0.00  0.00    -0.471 OA
ATOM     10  C   UNL     1      33.050 -14.149 -20.659  0.00  0.00    +0.252 C 
ENDBRANCH   4   9
BRANCH   1  11
ATOM     11  C   UNL     1      35.362 -19.472 -21.118  0.00  0.00    +0.116 C 
BRANCH  11  12
ATOM     12  O   UNL     1      36.556 -19.341 -20.342  0.00  0.00    -0.382 OA
ATOM     13  H   UNL     1      36.686 -20.143 -19.812  0.00  0.00    +0.211 HD
ENDBRANCH  11  12
BRANCH  11  14
ATOM     14  C   UNL     1      34.210 -19.998 -20.232  0.00  0.00    -0.034 C 
ATOM     15  C   UNL     1      32.881 -20.083 -20.984  0.00  0.00    -0.021 C 
BRANCH  14  16
ATOM     16  N   UNL     1      34.540 -21.342 -19.742  0.00  0.00    +0.384 N 
ATOM     17  H   UNL     1      34.899 -21.906 -20.512  0.00  0.00    -0.089 HD
ATOM     18  H   UNL     1      33.702 -21.780 -19.360  0.00  0.00    -0.089 HD
ATOM     19  H   UNL     1      35.250 -21.273 -19.012  0.00  0.00    -0.089 HD
ENDBRANCH  14  16
ENDBRANCH  11  14
ENDBRANCH   1  11
TORSDOF 6
ENDMDL
MODEL 9
REMARK VINA RESULT:      -6.1      7.168      9.776
REMARK  Name = 6082
REMARK  6 active torsions:
REMARK  status: ('A' for Active; 'I' for Inactive)
REMARK    1  A    between atoms: C_1  and  C_11
REMARK    2  A    between atoms: C_2  and  O_7
REMARK    3  A    between atoms: C_4  and  O_9
REMARK    4  A    between atoms: C_11  and  O_12
REMARK    5  A    between atoms: C_11  and  C_14
REMARK    6  A    between atoms: C_14  and  N_16
REMARK                            x       y       z     vdW  Elec       q    Type
REMARK                         _______ _______ _______ _____ _____    ______ ____
ROOT
ATOM      1  C   UNL     1      32.814  -7.169 -21.887  0.00  0.00    +0.039 C 
ATOM      2  C   UNL     1      33.589  -7.396 -23.011  0.00  0.00    +0.137 C 
ATOM      3  C   UNL     1      31.817  -6.208 -21.878  0.00  0.00    +0.038 C 
ATOM      4  C   UNL     1      31.590  -5.451 -23.028  0.00  0.00    +0.139 C 
ATOM      5  C   UNL     1      33.363  -6.640 -24.160  0.00  0.00    +0.040 C 
ATOM      6  C   UNL     1      32.362  -5.667 -24.169  0.00  0.00    +0.040 C 
ENDROOT
BRANCH   2   7
ATOM      7  O   UNL     1      34.571  -8.342 -23.020  0.00  0.00    -0.472 OA
ATOM      8  C   UNL     1      34.514  -9.324 -24.051  0.00  0.00    +0.252 C 
ENDBRANCH   2   7
BRANCH   4   9
ATOM      9  O   UNL     1      30.614  -4.502 -23.036  0.00  0.00    -0.471 OA
ATOM     10  C   UNL     1      31.026  -3.148 -23.210  0.00  0.00    +0.252 C 
ENDBRANCH   4   9
BRANCH   1  11
ATOM     11  C   UNL     1      33.047  -7.980 -20.630  0.00  0.00    +0.116 C 
BRANCH  11  12
ATOM     12  O   UNL     1      33.162  -7.047 -19.552  0.00  0.00    -0.382 OA
ATOM     13  H   UNL     1      33.674  -6.276 -19.845  0.00  0.00    +0.211 HD
ENDBRANCH  11  12
BRANCH  11  14
ATOM     14  C   UNL     1      31.924  -8.999 -20.331  0.00  0.00    -0.034 C 
ATOM     15  C   UNL     1      31.750 -10.027 -21.451  0.00  0.00    -0.021 C 
BRANCH  14  16
ATOM     16  N   UNL     1      32.234  -9.725 -19.093  0.00  0.00    +0.384 N 
ATOM     17  H   UNL     1      31.377 -10.123 -18.709  0.00  0.00    -0.089 HD
ATOM     18  H   UNL     1      32.646  -9.083 -18.416  0.00  0.00    -0.089 HD
ATOM     19  H   UNL     1      32.896 -10.475 -19.296  0.00  0.00    -0.089 HD
ENDBRANCH  14  16
ENDBRANCH  11  14
ENDBRANCH   1  11
TORSDOF 6
ENDMDL
