MODEL 1
REMARK VINA RESULT:      -9.1      0.000      0.000
REMARK  Name = 91503
REMARK  5 active torsions:
REMARK  status: ('A' for Active; 'I' for Inactive)
REMARK    1  A    between atoms: C_1  and  C_3
REMARK    2  A    between atoms: C_1  and  C_17
REMARK    3  A    between atoms: C_1  and  O_25
REMARK    4  A    between atoms: C_10  and  O_12
REMARK    5  A    between atoms: C_16  and  C_23
REMARK                            x       y       z     vdW  Elec       q    Type
REMARK                         _______ _______ _______ _____ _____    ______ ____
ROOT
ATOM      1  C   UNL     1      36.070 -22.853 -15.472  0.00  0.00    +0.114 C 
ENDROOT
BRANCH   1   3
ATOM      2  N   UNL     1      32.960 -22.632 -18.402  0.00  0.00    -0.244 NA
ATOM      3  C   UNL     1      34.947 -22.784 -16.478  0.00  0.00    +0.005 C 
ATOM      4  C   UNL     1      33.619 -23.005 -16.115  0.00  0.00    +0.019 C 
ATOM      5  C   UNL     1      35.289 -22.491 -17.785  0.00  0.00    +0.019 C 
ATOM      6  C   UNL     1      32.640 -22.917 -17.126  0.00  0.00    +0.081 C 
ATOM      7  C   UNL     1      33.248 -23.304 -14.793  0.00  0.00    +0.038 C 
ATOM      8  C   UNL     1      34.263 -22.427 -18.705  0.00  0.00    +0.099 C 
ATOM      9  C   UNL     1      31.311 -23.135 -16.772  0.00  0.00    +0.022 C 
ATOM     10  C   UNL     1      31.913 -23.518 -14.466  0.00  0.00    +0.139 C 
ATOM     11  C   UNL     1      30.942 -23.433 -15.458  0.00  0.00    +0.038 C 
BRANCH  10  12
ATOM     12  O   UNL     1      31.558 -23.807 -13.186  0.00  0.00    -0.471 OA
ATOM     13  C   UNL     1      30.410 -24.634 -12.999  0.00  0.00    +0.252 C 
ENDBRANCH  10  12
ENDBRANCH   1   3
BRANCH   1  17
ATOM     14  N   UNL     1      36.035 -25.227 -14.662  0.00  0.00    +0.390 N 
ATOM     15  C   UNL     1      38.571 -25.264 -14.082  0.00  0.00    -0.006 C 
ATOM     16  C   UNL     1      37.714 -25.117 -12.804  0.00  0.00    -0.021 C 
ATOM     17  C   UNL     1      36.761 -24.218 -15.482  0.00  0.00    -0.026 C 
ATOM     18  C   UNL     1      38.241 -24.114 -15.051  0.00  0.00    -0.018 C 
ATOM     19  C   UNL     1      36.234 -24.956 -13.218  0.00  0.00    -0.077 C 
ATOM     20  C   UNL     1      38.136 -26.575 -14.764  0.00  0.00    -0.023 C 
ATOM     21  C   UNL     1      36.611 -26.560 -14.967  0.00  0.00    -0.077 C 
ATOM     22  H   UNL     1      35.040 -25.190 -14.879  0.00  0.00    -0.079 HD
BRANCH  16  23
ATOM     23  C   UNL     1      38.173 -23.978 -11.898  0.00  0.00    -0.002 C 
ATOM     24  C   UNL     1      37.067 -22.963 -11.681  0.00  0.00    -0.000 C 
ENDBRANCH  16  23
ENDBRANCH   1  17
BRANCH   1  25
ATOM     25  O   UNL     1      37.028 -21.841 -15.760  0.00  0.00    -0.382 OA
ATOM     26  H   UNL     1      36.593 -20.974 -15.759  0.00  0.00    +0.211 HD
ENDBRANCH   1  25
TORSDOF 5
ENDMDL
MODEL 2
REMARK VINA RESULT:      -8.8      2.848      6.592
REMARK  Name = 91503
REMARK  5 active torsions:
REMARK  status: ('A' for Active; 'I' for Inactive)
REMARK    1  A    between atoms: C_1  and  C_3
REMARK    2  A    between atoms: C_1  and  C_17
REMARK    3  A    between atoms: C_1  and  O_25
REMARK    4  A    between atoms: C_10  and  O_12
REMARK    5  A    between atoms: C_16  and  C_23
REMARK                            x       y       z     vdW  Elec       q    Type
REMARK                         _______ _______ _______ _____ _____    ______ ____
ROOT
ATOM      1  C   UNL     1      32.604 -23.475 -16.805  0.00  0.00    +0.114 C 
ENDROOT
BRANCH   1   3
ATOM      2  N   UNL     1      36.787 -22.585 -16.708  0.00  0.00    -0.244 NA
ATOM      3  C   UNL     1      34.075 -23.143 -16.805  0.00  0.00    +0.005 C 
ATOM      4  C   UNL     1      34.660 -22.391 -17.824  0.00  0.00    +0.019 C 
ATOM      5  C   UNL     1      34.828 -23.615 -15.746  0.00  0.00    +0.019 C 
ATOM      6  C   UNL     1      36.044 -22.130 -17.734  0.00  0.00    +0.081 C 
ATOM      7  C   UNL     1      33.915 -21.901 -18.909  0.00  0.00    +0.038 C 
ATOM      8  C   UNL     1      36.174 -23.310 -15.745  0.00  0.00    +0.099 C 
ATOM      9  C   UNL     1      36.636 -21.380 -18.747  0.00  0.00    +0.022 C 
ATOM     10  C   UNL     1      34.532 -21.154 -19.908  0.00  0.00    +0.139 C 
ATOM     11  C   UNL     1      35.895 -20.892 -19.826  0.00  0.00    +0.038 C 
BRANCH  10  12
ATOM     12  O   UNL     1      33.807 -20.680 -20.956  0.00  0.00    -0.471 OA
ATOM     13  C   UNL     1      32.723 -19.802 -20.654  0.00  0.00    +0.252 C 
ENDBRANCH  10  12
ENDBRANCH   1   3
BRANCH   1  17
ATOM     14  N   UNL     1      31.466 -24.971 -15.144  0.00  0.00    +0.390 N 
ATOM     15  C   UNL     1      29.830 -23.126 -14.319  0.00  0.00    -0.006 C 
ATOM     16  C   UNL     1      29.114 -24.114 -15.268  0.00  0.00    -0.021 C 
ATOM     17  C   UNL     1      32.053 -23.625 -15.386  0.00  0.00    -0.026 C 
ATOM     18  C   UNL     1      31.040 -22.509 -15.044  0.00  0.00    -0.018 C 
ATOM     19  C   UNL     1      30.162 -25.097 -15.838  0.00  0.00    -0.077 C 
ATOM     20  C   UNL     1      30.376 -23.954 -13.140  0.00  0.00    -0.023 C 
ATOM     21  C   UNL     1      31.231 -25.111 -13.686  0.00  0.00    -0.077 C 
ATOM     22  H   UNL     1      32.103 -25.688 -15.492  0.00  0.00    -0.079 HD
BRANCH  16  23
ATOM     23  C   UNL     1      28.329 -23.422 -16.379  0.00  0.00    -0.002 C 
ATOM     24  C   UNL     1      27.369 -22.389 -15.819  0.00  0.00    -0.000 C 
ENDBRANCH  16  23
ENDBRANCH   1  17
BRANCH   1  25
ATOM     25  O   UNL     1      31.885 -22.449 -17.481  0.00  0.00    -0.382 OA
ATOM     26  H   UNL     1      31.722 -22.718 -18.398  0.00  0.00    +0.211 HD
ENDBRANCH   1  25
TORSDOF 5
ENDMDL
MODEL 3
REMARK VINA RESULT:      -8.5      1.998      4.328
REMARK  Name = 91503
REMARK  5 active torsions:
REMARK  status: ('A' for Active; 'I' for Inactive)
REMARK    1  A    between atoms: C_1  and  C_3
REMARK    2  A    between atoms: C_1  and  C_17
REMARK    3  A    between atoms: C_1  and  O_25
REMARK    4  A    between atoms: C_10  and  O_12
REMARK    5  A    between atoms: C_16  and  C_23
REMARK                            x       y       z     vdW  Elec       q    Type
REMARK                         _______ _______ _______ _____ _____    ______ ____
ROOT
ATOM      1  C   UNL     1      36.008 -23.314 -15.441  0.00  0.00    +0.114 C 
ENDROOT
BRANCH   1   3
ATOM      2  N   UNL     1      32.334 -22.887 -17.589  0.00  0.00    -0.244 NA
ATOM      3  C   UNL     1      34.732 -23.145 -16.226  0.00  0.00    +0.005 C 
ATOM      4  C   UNL     1      34.710 -22.505 -17.466  0.00  0.00    +0.019 C 
ATOM      5  C   UNL     1      33.574 -23.653 -15.666  0.00  0.00    +0.019 C 
ATOM      6  C   UNL     1      33.468 -22.398 -18.125  0.00  0.00    +0.081 C 
ATOM      7  C   UNL     1      35.873 -21.982 -18.055  0.00  0.00    +0.038 C 
ATOM      8  C   UNL     1      32.407 -23.499 -16.384  0.00  0.00    +0.099 C 
ATOM      9  C   UNL     1      33.436 -21.761 -19.363  0.00  0.00    +0.022 C 
ATOM     10  C   UNL     1      35.813 -21.352 -19.294  0.00  0.00    +0.139 C 
ATOM     11  C   UNL     1      34.593 -21.241 -19.949  0.00  0.00    +0.038 C 
BRANCH  10  12
ATOM     12  O   UNL     1      36.942 -20.847 -19.860  0.00  0.00    -0.471 OA
ATOM     13  C   UNL     1      36.815 -19.625 -20.586  0.00  0.00    +0.252 C 
ENDBRANCH  10  12
ENDBRANCH   1   3
BRANCH   1  17
ATOM     14  N   UNL     1      36.592 -23.037 -13.017  0.00  0.00    +0.390 N 
ATOM     15  C   UNL     1      36.646 -25.594 -12.543  0.00  0.00    -0.006 C 
ATOM     16  C   UNL     1      38.078 -25.024 -12.658  0.00  0.00    -0.021 C 
ATOM     17  C   UNL     1      35.738 -23.756 -14.001  0.00  0.00    -0.026 C 
ATOM     18  C   UNL     1      35.871 -25.287 -13.837  0.00  0.00    -0.018 C 
ATOM     19  C   UNL     1      37.985 -23.540 -13.080  0.00  0.00    -0.077 C 
ATOM     20  C   UNL     1      35.950 -24.831 -11.401  0.00  0.00    -0.023 C 
ATOM     21  C   UNL     1      36.060 -23.318 -11.661  0.00  0.00    -0.077 C 
ATOM     22  H   UNL     1      36.584 -22.039 -13.224  0.00  0.00    -0.079 HD
BRANCH  16  23
ATOM     23  C   UNL     1      38.972 -25.824 -13.602  0.00  0.00    -0.002 C 
ATOM     24  C   UNL     1      39.717 -24.916 -14.562  0.00  0.00    -0.000 C 
ENDBRANCH  16  23
ENDBRANCH   1  17
BRANCH   1  25
ATOM     25  O   UNL     1      36.835 -24.282 -16.081  0.00  0.00    -0.382 OA
ATOM     26  H   UNL     1      36.831 -24.127 -17.038  0.00  0.00    +0.211 HD
ENDBRANCH   1  25
TORSDOF 5
ENDMDL
MODEL 4
REMARK VINA RESULT:      -8.5      1.461      3.589
REMARK  Name = 91503
REMARK  5 active torsions:
REMARK  status: ('A' for Active; 'I' for Inactive)
REMARK    1  A    between atoms: C_1  and  C_3
REMARK    2  A    between atoms: C_1  and  C_17
REMARK    3  A    between atoms: C_1  and  O_25
REMARK    4  A    between atoms: C_10  and  O_12
REMARK    5  A    between atoms: C_16  and  C_23
REMARK                            x       y       z     vdW  Elec       q    Type
REMARK                         _______ _______ _______ _____ _____    ______ ____
ROOT
ATOM      1  C   UNL     1      35.118 -23.403 -14.628  0.00  0.00    +0.114 C 
ENDROOT
BRANCH   1   3
ATOM      2  N   UNL     1      31.877 -23.175 -17.412  0.00  0.00    -0.244 NA
ATOM      3  C   UNL     1      34.000 -23.307 -15.636  0.00  0.00    +0.005 C 
ATOM      4  C   UNL     1      34.209 -22.813 -16.923  0.00  0.00    +0.019 C 
ATOM      5  C   UNL     1      32.748 -23.732 -15.230  0.00  0.00    +0.019 C 
ATOM      6  C   UNL     1      33.101 -22.765 -17.795  0.00  0.00    +0.081 C 
ATOM      7  C   UNL     1      35.473 -22.377 -17.357  0.00  0.00    +0.038 C 
ATOM      8  C   UNL     1      31.725 -23.645 -16.152  0.00  0.00    +0.099 C 
ATOM      9  C   UNL     1      33.302 -22.274 -19.083  0.00  0.00    +0.022 C 
ATOM     10  C   UNL     1      35.645 -21.891 -18.649  0.00  0.00    +0.139 C 
ATOM     11  C   UNL     1      34.557 -21.840 -19.514  0.00  0.00    +0.038 C 
BRANCH  10  12
ATOM     12  O   UNL     1      36.869 -21.470 -19.065  0.00  0.00    -0.471 OA
ATOM     13  C   UNL     1      36.902 -20.443 -20.056  0.00  0.00    +0.252 C 
ENDBRANCH  10  12
ENDBRANCH   1   3
BRANCH   1  17
ATOM     14  N   UNL     1      35.985 -25.701 -14.122  0.00  0.00    +0.390 N 
ATOM     15  C   UNL     1      38.485 -25.001 -14.293  0.00  0.00    -0.006 C 
ATOM     16  C   UNL     1      38.053 -25.151 -12.816  0.00  0.00    -0.021 C 
ATOM     17  C   UNL     1      36.120 -24.500 -14.991  0.00  0.00    -0.026 C 
ATOM     18  C   UNL     1      37.573 -23.974 -14.989  0.00  0.00    -0.018 C 
ATOM     19  C   UNL     1      36.533 -25.424 -12.773  0.00  0.00    -0.077 C 
ATOM     20  C   UNL     1      38.241 -26.362 -14.971  0.00  0.00    -0.023 C 
ATOM     21  C   UNL     1      36.783 -26.795 -14.730  0.00  0.00    -0.077 C 
ATOM     22  H   UNL     1      35.001 -25.955 -14.042  0.00  0.00    -0.079 HD
BRANCH  16  23
ATOM     23  C   UNL     1      38.435 -23.952 -11.952  0.00  0.00    -0.002 C 
ATOM     24  C   UNL     1      37.211 -23.164 -11.525  0.00  0.00    -0.000 C 
ENDBRANCH  16  23
ENDBRANCH   1  17
BRANCH   1  25
ATOM     25  O   UNL     1      35.798 -22.154 -14.553  0.00  0.00    -0.382 OA
ATOM     26  H   UNL     1      35.556 -21.703 -13.729  0.00  0.00    +0.211 HD
ENDBRANCH   1  25
TORSDOF 5
ENDMDL
MODEL 5
REMARK VINA RESULT:      -8.2      2.275      5.922
REMARK  Name = 91503
REMARK  5 active torsions:
REMARK  status: ('A' for Active; 'I' for Inactive)
REMARK    1  A    between atoms: C_1  and  C_3
REMARK    2  A    between atoms: C_1  and  C_17
REMARK    3  A    between atoms: C_1  and  O_25
REMARK    4  A    between atoms: C_10  and  O_12
REMARK    5  A    between atoms: C_16  and  C_23
REMARK                            x       y       z     vdW  Elec       q    Type
REMARK                         _______ _______ _______ _____ _____    ______ ____
ROOT
ATOM      1  C   UNL     1      32.607 -23.558 -16.985  0.00  0.00    +0.114 C 
ENDROOT
BRANCH   1   3
ATOM      2  N   UNL     1      36.611 -22.102 -17.380  0.00  0.00    -0.244 NA
ATOM      3  C   UNL     1      34.026 -23.057 -17.089  0.00  0.00    +0.005 C 
ATOM      4  C   UNL     1      34.939 -23.212 -16.045  0.00  0.00    +0.019 C 
ATOM      5  C   UNL     1      34.390 -22.434 -18.268  0.00  0.00    +0.019 C 
ATOM      6  C   UNL     1      36.244 -22.712 -16.237  0.00  0.00    +0.081 C 
ATOM      7  C   UNL     1      34.591 -23.842 -14.839  0.00  0.00    +0.038 C 
ATOM      8  C   UNL     1      35.688 -21.976 -18.362  0.00  0.00    +0.099 C 
ATOM      9  C   UNL     1      37.162 -22.863 -15.201  0.00  0.00    +0.022 C 
ATOM     10  C   UNL     1      35.528 -23.980 -13.820  0.00  0.00    +0.139 C 
ATOM     11  C   UNL     1      36.816 -23.489 -14.001  0.00  0.00    +0.038 C 
BRANCH  10  12
ATOM     12  O   UNL     1      35.188 -24.591 -12.654  0.00  0.00    -0.471 OA
ATOM     13  C   UNL     1      35.891 -24.188 -11.479  0.00  0.00    +0.252 C 
ENDBRANCH  10  12
ENDBRANCH   1   3
BRANCH   1  17
ATOM     14  N   UNL     1      31.541 -24.936 -15.181  0.00  0.00    +0.390 N 
ATOM     15  C   UNL     1      29.964 -23.024 -14.390  0.00  0.00    -0.006 C 
ATOM     16  C   UNL     1      29.193 -24.059 -15.240  0.00  0.00    -0.021 C 
ATOM     17  C   UNL     1      32.126 -23.614 -15.534  0.00  0.00    -0.026 C 
ATOM     18  C   UNL     1      31.142 -22.468 -15.211  0.00  0.00    -0.018 C 
ATOM     19  C   UNL     1      30.202 -25.088 -15.799  0.00  0.00    -0.077 C 
ATOM     20  C   UNL     1      30.562 -23.785 -13.191  0.00  0.00    -0.023 C 
ATOM     21  C   UNL     1      31.378 -24.983 -13.707  0.00  0.00    -0.077 C 
ATOM     22  H   UNL     1      32.153 -25.680 -15.514  0.00  0.00    -0.079 HD
BRANCH  16  23
ATOM     23  C   UNL     1      28.359 -23.427 -16.351  0.00  0.00    -0.002 C 
ATOM     24  C   UNL     1      27.404 -22.384 -15.802  0.00  0.00    -0.000 C 
ENDBRANCH  16  23
ENDBRANCH   1  17
BRANCH   1  25
ATOM     25  O   UNL     1      31.746 -22.704 -17.731  0.00  0.00    -0.382 OA
ATOM     26  H   UNL     1      30.851 -23.076 -17.742  0.00  0.00    +0.211 HD
ENDBRANCH   1  25
TORSDOF 5
ENDMDL
MODEL 6
REMARK VINA RESULT:      -8.1      2.032      3.932
REMARK  Name = 91503
REMARK  5 active torsions:
REMARK  status: ('A' for Active; 'I' for Inactive)
REMARK    1  A    between atoms: C_1  and  C_3
REMARK    2  A    between atoms: C_1  and  C_17
REMARK    3  A    between atoms: C_1  and  O_25
REMARK    4  A    between atoms: C_10  and  O_12
REMARK    5  A    between atoms: C_16  and  C_23
REMARK                            x       y       z     vdW  Elec       q    Type
REMARK                         _______ _______ _______ _____ _____    ______ ____
ROOT
ATOM      1  C   UNL     1      35.184 -24.836 -14.804  0.00  0.00    +0.114 C 
ENDROOT
BRANCH   1   3
ATOM      2  N   UNL     1      31.051 -23.776 -14.494  0.00  0.00    -0.244 NA
ATOM      3  C   UNL     1      33.729 -24.445 -14.729  0.00  0.00    +0.005 C 
ATOM      4  C   UNL     1      33.103 -23.741 -15.758  0.00  0.00    +0.019 C 
ATOM      5  C   UNL     1      33.035 -24.814 -13.592  0.00  0.00    +0.019 C 
ATOM      6  C   UNL     1      31.738 -23.422 -15.597  0.00  0.00    +0.081 C 
ATOM      7  C   UNL     1      33.788 -23.355 -16.922  0.00  0.00    +0.038 C 
ATOM      8  C   UNL     1      31.704 -24.457 -13.524  0.00  0.00    +0.099 C 
ATOM      9  C   UNL     1      31.104 -22.721 -16.619  0.00  0.00    +0.022 C 
ATOM     10  C   UNL     1      33.130 -22.655 -17.928  0.00  0.00    +0.139 C 
ATOM     11  C   UNL     1      31.786 -22.337 -17.776  0.00  0.00    +0.038 C 
BRANCH  10  12
ATOM     12  O   UNL     1      33.798 -22.284 -19.053  0.00  0.00    -0.471 OA
ATOM     13  C   UNL     1      35.186 -21.984 -18.917  0.00  0.00    +0.252 C 
ENDBRANCH  10  12
ENDBRANCH   1   3
BRANCH   1  17
ATOM     14  N   UNL     1      36.825 -23.327 -13.655  0.00  0.00    +0.390 N 
ATOM     15  C   UNL     1      38.105 -25.279 -12.508  0.00  0.00    -0.006 C 
ATOM     16  C   UNL     1      38.895 -24.739 -13.722  0.00  0.00    -0.021 C 
ATOM     17  C   UNL     1      35.930 -24.507 -13.509  0.00  0.00    -0.026 C 
ATOM     18  C   UNL     1      36.707 -25.729 -12.970  0.00  0.00    -0.018 C 
ATOM     19  C   UNL     1      38.027 -23.686 -14.446  0.00  0.00    -0.077 C 
ATOM     20  C   UNL     1      37.909 -24.098 -11.540  0.00  0.00    -0.023 C 
ATOM     21  C   UNL     1      37.269 -22.922 -12.298  0.00  0.00    -0.077 C 
ATOM     22  H   UNL     1      36.324 -22.575 -14.125  0.00  0.00    -0.079 HD
BRANCH  16  23
ATOM     23  C   UNL     1      39.361 -25.837 -14.675  0.00  0.00    -0.002 C 
ATOM     24  C   UNL     1      40.743 -26.342 -14.306  0.00  0.00    -0.000 C 
ENDBRANCH  16  23
ENDBRANCH   1  17
BRANCH   1  25
ATOM     25  O   UNL     1      35.288 -26.232 -15.063  0.00  0.00    -0.382 OA
ATOM     26  H   UNL     1      34.412 -26.642 -14.982  0.00  0.00    +0.211 HD
ENDBRANCH   1  25
TORSDOF 5
ENDMDL
MODEL 7
REMARK VINA RESULT:      -8.1      1.238      1.969
REMARK  Name = 91503
REMARK  5 active torsions:
REMARK  status: ('A' for Active; 'I' for Inactive)
REMARK    1  A    between atoms: C_1  and  C_3
REMARK    2  A    between atoms: C_1  and  C_17
REMARK    3  A    between atoms: C_1  and  O_25
REMARK    4  A    between atoms: C_10  and  O_12
REMARK    5  A    between atoms: C_16  and  C_23
REMARK                            x       y       z     vdW  Elec       q    Type
REMARK                         _______ _______ _______ _____ _____    ______ ____
ROOT
ATOM      1  C   UNL     1      36.856 -22.913 -15.288  0.00  0.00    +0.114 C 
ENDROOT
BRANCH   1   3
ATOM      2  N   UNL     1      33.971 -22.399 -18.406  0.00  0.00    -0.244 NA
ATOM      3  C   UNL     1      35.812 -22.746 -16.364  0.00  0.00    +0.005 C 
ATOM      4  C   UNL     1      34.471 -23.063 -16.143  0.00  0.00    +0.019 C 
ATOM      5  C   UNL     1      36.238 -22.261 -17.587  0.00  0.00    +0.019 C 
ATOM      6  C   UNL     1      33.568 -22.870 -17.210  0.00  0.00    +0.081 C 
ATOM      7  C   UNL     1      34.016 -23.556 -14.909  0.00  0.00    +0.038 C 
ATOM      8  C   UNL     1      35.282 -22.107 -18.570  0.00  0.00    +0.099 C 
ATOM      9  C   UNL     1      32.228 -23.183 -16.999  0.00  0.00    +0.022 C 
ATOM     10  C   UNL     1      32.670 -23.860 -14.725  0.00  0.00    +0.139 C 
ATOM     11  C   UNL     1      31.775 -23.674 -15.772  0.00  0.00    +0.038 C 
BRANCH  10  12
ATOM     12  O   UNL     1      32.234 -24.337 -13.529  0.00  0.00    -0.471 OA
ATOM     13  C   UNL     1      30.850 -24.674 -13.429  0.00  0.00    +0.252 C 
ENDBRANCH  10  12
ENDBRANCH   1   3
BRANCH   1  17
ATOM     14  N   UNL     1      36.975 -23.934 -13.000  0.00  0.00    +0.390 N 
ATOM     15  C   UNL     1      37.931 -26.198 -13.854  0.00  0.00    -0.006 C 
ATOM     16  C   UNL     1      39.042 -25.336 -13.214  0.00  0.00    -0.021 C 
ATOM     17  C   UNL     1      36.590 -24.146 -14.422  0.00  0.00    -0.026 C 
ATOM     18  C   UNL     1      37.270 -25.409 -14.999  0.00  0.00    -0.018 C 
ATOM     19  C   UNL     1      38.451 -23.953 -12.858  0.00  0.00    -0.077 C 
ATOM     20  C   UNL     1      36.857 -26.420 -12.772  0.00  0.00    -0.023 C 
ATOM     21  C   UNL     1      36.419 -25.057 -12.206  0.00  0.00    -0.077 C 
ATOM     22  H   UNL     1      36.617 -23.035 -12.681  0.00  0.00    -0.079 HD
BRANCH  16  23
ATOM     23  C   UNL     1      40.286 -25.208 -14.090  0.00  0.00    -0.002 C 
ATOM     24  C   UNL     1      40.907 -26.562 -14.373  0.00  0.00    -0.000 C 
ENDBRANCH  16  23
ENDBRANCH   1  17
BRANCH   1  25
ATOM     25  O   UNL     1      38.142 -23.031 -15.889  0.00  0.00    -0.382 OA
ATOM     26  H   UNL     1      38.610 -23.788 -15.504  0.00  0.00    +0.211 HD
ENDBRANCH   1  25
TORSDOF 5
ENDMDL
MODEL 8
REMARK VINA RESULT:      -7.8     13.738     17.020
REMARK  Name = 91503
REMARK  5 active torsions:
REMARK  status: ('A' for Active; 'I' for Inactive)
REMARK    1  A    between atoms: C_1  and  C_3
REMARK    2  A    between atoms: C_1  and  C_17
REMARK    3  A    between atoms: C_1  and  O_25
REMARK    4  A    between atoms: C_10  and  O_12
REMARK    5  A    between atoms: C_16  and  C_23
REMARK                            x       y       z     vdW  Elec       q    Type
REMARK                         _______ _______ _______ _____ _____    ______ ____
ROOT
ATOM      1  C   UNL     1      31.947  -9.830 -23.101  0.00  0.00    +0.114 C 
ENDROOT
BRANCH   1   3
ATOM      2  N   UNL     1      31.907 -12.767 -19.991  0.00  0.00    -0.244 NA
ATOM      3  C   UNL     1      31.944 -10.892 -22.030  0.00  0.00    +0.005 C 
ATOM      4  C   UNL     1      32.309 -12.211 -22.301  0.00  0.00    +0.019 C 
ATOM      5  C   UNL     1      31.563 -10.504 -20.759  0.00  0.00    +0.019 C 
ATOM      6  C   UNL     1      32.277 -13.132 -21.233  0.00  0.00    +0.081 C 
ATOM      7  C   UNL     1      32.699 -12.627 -23.585  0.00  0.00    +0.038 C 
ATOM      8  C   UNL     1      31.562 -11.476 -19.779  0.00  0.00    +0.099 C 
ATOM      9  C   UNL     1      32.640 -14.450 -21.494  0.00  0.00    +0.022 C 
ATOM     10  C   UNL     1      33.058 -13.951 -23.818  0.00  0.00    +0.139 C 
ATOM     11  C   UNL     1      33.028 -14.864 -22.770  0.00  0.00    +0.038 C 
BRANCH  10  12
ATOM     12  O   UNL     1      33.436 -14.349 -25.062  0.00  0.00    -0.471 OA
ATOM     13  C   UNL     1      33.784 -15.724 -25.227  0.00  0.00    +0.252 C 
ENDBRANCH  10  12
ENDBRANCH   1   3
BRANCH   1  17
ATOM     14  N   UNL     1      30.890  -7.576 -23.412  0.00  0.00    +0.390 N 
ATOM     15  C   UNL     1      32.998  -6.270 -22.627  0.00  0.00    -0.006 C 
ATOM     16  C   UNL     1      32.864  -6.227 -24.166  0.00  0.00    -0.021 C 
ATOM     17  C   UNL     1      31.718  -8.433 -22.520  0.00  0.00    -0.026 C 
ATOM     18  C   UNL     1      33.050  -7.736 -22.160  0.00  0.00    -0.018 C 
ATOM     19  C   UNL     1      31.685  -7.134 -24.583  0.00  0.00    -0.077 C 
ATOM     20  C   UNL     1      31.712  -5.651 -22.048  0.00  0.00    -0.023 C 
ATOM     21  C   UNL     1      30.490  -6.372 -22.643  0.00  0.00    -0.077 C 
ATOM     22  H   UNL     1      30.079  -8.103 -23.733  0.00  0.00    -0.079 HD
BRANCH  16  23
ATOM     23  C   UNL     1      34.151  -6.606 -24.894  0.00  0.00    -0.002 C 
ATOM     24  C   UNL     1      34.399  -5.703 -26.087  0.00  0.00    -0.000 C 
ENDBRANCH  16  23
ENDBRANCH   1  17
BRANCH   1  25
ATOM     25  O   UNL     1      33.194  -9.852 -23.789  0.00  0.00    -0.382 OA
ATOM     26  H   UNL     1      33.360 -10.746 -24.128  0.00  0.00    +0.211 HD
ENDBRANCH   1  25
TORSDOF 5
ENDMDL
MODEL 9
REMARK VINA RESULT:      -7.6     13.063     16.193
REMARK  Name = 91503
REMARK  5 active torsions:
REMARK  status: ('A' for Active; 'I' for Inactive)
REMARK    1  A    between atoms: C_1  and  C_3
REMARK    2  A    between atoms: C_1  and  C_17
REMARK    3  A    between atoms: C_1  and  O_25
REMARK    4  A    between atoms: C_10  and  O_12
REMARK    5  A    between atoms: C_16  and  C_23
REMARK                            x       y       z     vdW  Elec       q    Type
REMARK                         _______ _______ _______ _____ _____    ______ ____
ROOT
ATOM      1  C   UNL     1      33.177 -10.514 -23.293  0.00  0.00    +0.114 C 
ENDROOT
BRANCH   1   3
ATOM      2  N   UNL     1      33.666 -13.627 -26.187  0.00  0.00    -0.244 NA
ATOM      3  C   UNL     1      33.350 -11.637 -24.285  0.00  0.00    +0.005 C 
ATOM      4  C   UNL     1      33.445 -12.969 -23.879  0.00  0.00    +0.019 C 
ATOM      5  C   UNL     1      33.413 -11.294 -25.622  0.00  0.00    +0.019 C 
ATOM      6  C   UNL     1      33.603 -13.949 -24.881  0.00  0.00    +0.081 C 
ATOM      7  C   UNL     1      33.384 -13.341 -22.526  0.00  0.00    +0.038 C 
ATOM      8  C   UNL     1      33.570 -12.322 -26.529  0.00  0.00    +0.099 C 
ATOM      9  C   UNL     1      33.698 -15.281 -24.485  0.00  0.00    +0.022 C 
ATOM     10  C   UNL     1      33.480 -14.680 -22.158  0.00  0.00    +0.139 C 
ATOM     11  C   UNL     1      33.637 -15.651 -23.139  0.00  0.00    +0.038 C 
BRANCH  10  12
ATOM     12  O   UNL     1      33.420 -15.036 -20.847  0.00  0.00    -0.471 OA
ATOM     13  C   UNL     1      34.572 -15.670 -20.292  0.00  0.00    +0.252 C 
ENDBRANCH  10  12
ENDBRANCH   1   3
BRANCH   1  17
ATOM     14  N   UNL     1      34.332  -8.296 -23.485  0.00  0.00    +0.390 N 
ATOM     15  C   UNL     1      32.119  -6.930 -23.485  0.00  0.00    -0.006 C 
ATOM     16  C   UNL     1      32.816  -6.851 -22.108  0.00  0.00    -0.021 C 
ATOM     17  C   UNL     1      33.210  -9.144 -23.973  0.00  0.00    -0.026 C 
ATOM     18  C   UNL     1      31.859  -8.405 -23.841  0.00  0.00    -0.018 C 
ATOM     19  C   UNL     1      34.042  -7.792 -22.121  0.00  0.00    -0.077 C 
ATOM     20  C   UNL     1      33.114  -6.377 -24.523  0.00  0.00    -0.023 C 
ATOM     21  C   UNL     1      34.450  -7.129 -24.394  0.00  0.00    -0.077 C 
ATOM     22  H   UNL     1      35.191  -8.845 -23.466  0.00  0.00    -0.079 HD
BRANCH  16  23
ATOM     23  C   UNL     1      31.882  -7.160 -20.941  0.00  0.00    -0.002 C 
ATOM     24  C   UNL     1      32.392  -8.325 -20.115  0.00  0.00    -0.000 C 
ENDBRANCH  16  23
ENDBRANCH   1  17
BRANCH   1  25
ATOM     25  O   UNL     1      31.936 -10.669 -22.612  0.00  0.00    -0.382 OA
ATOM     26  H   UNL     1      31.405  -9.865 -22.721  0.00  0.00    +0.211 HD
ENDBRANCH   1  25
TORSDOF 5
ENDMDL
