MODEL 1
REMARK VINA RESULT:     -10.0      0.000      0.000
REMARK  Name = 16221501
REMARK  7 active torsions:
REMARK  status: ('A' for Active; 'I' for Inactive)
REMARK    1  A    between atoms: C_1  and  C_4
REMARK    2  A    between atoms: C_1  and  N_16
REMARK    3  A    between atoms: N_3  and  C_6
REMARK    4  A    between atoms: C_7  and  C_13
REMARK    5  A    between atoms: C_13  and  O_14
REMARK    6  A    between atoms: N_16  and  C_20
REMARK    7  A    between atoms: C_21  and  C_27
REMARK                            x       y       z     vdW  Elec       q    Type
REMARK                         _______ _______ _______ _____ _____    ______ ____
ROOT
ATOM      1  C   UNL     1      33.447 -12.895 -23.501  0.00  0.00    +0.174 C 
ENDROOT
BRANCH   1   4
ATOM      2  O   UNL     1      32.350 -14.645 -22.267  0.00  0.00    -0.273 OA
ATOM      3  N   UNL     1      34.480 -15.046 -23.183  0.00  0.00    -0.282 N 
ATOM      4  C   UNL     1      33.334 -14.286 -22.906  0.00  0.00    +0.246 C 
ATOM      5  H   UNL     1      35.180 -14.595 -23.706  0.00  0.00    +0.155 HD
BRANCH   3   6
ATOM      6  C   UNL     1      34.751 -16.365 -22.809  0.00  0.00    +0.057 C 
ATOM      7  C   UNL     1      34.761 -17.393 -23.752  0.00  0.00    +0.089 C 
ATOM      8  C   UNL     1      35.014 -16.647 -21.468  0.00  0.00    +0.015 C 
ATOM      9  C   UNL     1      35.033 -18.702 -23.355  0.00  0.00    +0.008 C 
ATOM     10  C   UNL     1      35.287 -17.956 -21.071  0.00  0.00    +0.001 C 
ATOM     11  C   UNL     1      35.296 -18.984 -22.014  0.00  0.00    +0.000 C 
BRANCH   7  13
ATOM     12  O   UNL     1      35.005 -16.238 -25.833  0.00  0.00    -0.245 OA
ATOM     13  C   UNL     1      34.489 -17.133 -25.161  0.00  0.00    +0.339 C 
BRANCH  13  14
ATOM     14  O   UNL     1      33.581 -18.002 -25.680  0.00  0.00    -0.477 OA
ATOM     15  H   UNL     1      32.782 -18.174 -25.221  0.00  0.00    +0.295 HD
ENDBRANCH  13  14
ENDBRANCH   7  13
ENDBRANCH   3   6
ENDBRANCH   1   4
BRANCH   1  16
ATOM     16  N   UNL     1      32.421 -12.044 -22.956  0.00  0.00    -0.325 N 
ATOM     17  H   UNL     1      31.546 -12.446 -22.749  0.00  0.00    +0.147 HD
BRANCH  16  20
ATOM     18 CL   UNL     1      34.546  -7.620 -24.410  0.00  0.00    -0.080 Cl
ATOM     19  F   UNL     1      33.132  -6.630 -22.000  0.00  0.00    -0.203 F 
ATOM     20  C   UNL     1      32.592 -10.689 -22.707  0.00  0.00    +0.049 C 
ATOM     21  C   UNL     1      31.990 -10.057 -21.602  0.00  0.00    +0.050 C 
ATOM     22  C   UNL     1      33.385  -9.910 -23.570  0.00  0.00    +0.028 C 
ATOM     23  C   UNL     1      32.175  -8.694 -21.369  0.00  0.00    +0.035 C 
ATOM     24  C   UNL     1      33.569  -8.547 -23.337  0.00  0.00    +0.086 C 
ATOM     25  C   UNL     1      32.965  -7.939 -22.237  0.00  0.00    +0.151 C 
BRANCH  21  27
ATOM     26  O   UNL     1      30.197 -11.497 -21.079  0.00  0.00    -0.291 OA
ATOM     27  C   UNL     1      31.160 -10.817 -20.676  0.00  0.00    +0.175 C 
ATOM     28  C   UNL     1      31.459 -10.793 -19.184  0.00  0.00    +0.077 C 
ENDBRANCH  21  27
ENDBRANCH  16  20
ENDBRANCH   1  16
TORSDOF 7
ENDMDL
MODEL 2
REMARK VINA RESULT:      -9.9      1.307      2.258
REMARK  Name = 16221501
REMARK  7 active torsions:
REMARK  status: ('A' for Active; 'I' for Inactive)
REMARK    1  A    between atoms: C_1  and  C_4
REMARK    2  A    between atoms: C_1  and  N_16
REMARK    3  A    between atoms: N_3  and  C_6
REMARK    4  A    between atoms: C_7  and  C_13
REMARK    5  A    between atoms: C_13  and  O_14
REMARK    6  A    between atoms: N_16  and  C_20
REMARK    7  A    between atoms: C_21  and  C_27
REMARK                            x       y       z     vdW  Elec       q    Type
REMARK                         _______ _______ _______ _____ _____    ______ ____
ROOT
ATOM      1  C   UNL     1      33.821 -12.265 -23.970  0.00  0.00    +0.174 C 
ENDROOT
BRANCH   1   4
ATOM      2  O   UNL     1      32.551 -14.162 -24.729  0.00  0.00    -0.273 OA
ATOM      3  N   UNL     1      34.504 -14.518 -23.467  0.00  0.00    -0.282 N 
ATOM      4  C   UNL     1      33.530 -13.746 -24.117  0.00  0.00    +0.246 C 
ATOM      5  H   UNL     1      35.221 -14.016 -23.016  0.00  0.00    +0.155 HD
BRANCH   3   6
ATOM      6  C   UNL     1      34.584 -15.910 -23.378  0.00  0.00    +0.057 C 
ATOM      7  C   UNL     1      34.473 -16.560 -22.148  0.00  0.00    +0.089 C 
ATOM      8  C   UNL     1      34.779 -16.652 -24.543  0.00  0.00    +0.015 C 
ATOM      9  C   UNL     1      34.558 -17.951 -22.084  0.00  0.00    +0.008 C 
ATOM     10  C   UNL     1      34.863 -18.043 -24.479  0.00  0.00    +0.001 C 
ATOM     11  C   UNL     1      34.753 -18.693 -23.250  0.00  0.00    +0.000 C 
BRANCH   7  13
ATOM     12  O   UNL     1      35.034 -15.819 -19.944  0.00  0.00    -0.245 OA
ATOM     13  C   UNL     1      34.270 -15.815 -20.911  0.00  0.00    +0.339 C 
BRANCH  13  14
ATOM     14  O   UNL     1      33.118 -15.092 -20.927  0.00  0.00    -0.477 OA
ATOM     15  H   UNL     1      32.576 -15.057 -20.163  0.00  0.00    +0.295 HD
ENDBRANCH  13  14
ENDBRANCH   7  13
ENDBRANCH   3   6
ENDBRANCH   1   4
BRANCH   1  16
ATOM     16  N   UNL     1      32.804 -11.643 -23.162  0.00  0.00    -0.325 N 
ATOM     17  H   UNL     1      32.083 -12.211 -22.805  0.00  0.00    +0.147 HD
BRANCH  16  20
ATOM     18 CL   UNL     1      34.354  -6.917 -24.368  0.00  0.00    -0.080 Cl
ATOM     19  F   UNL     1      32.732  -6.227 -21.984  0.00  0.00    -0.203 F 
ATOM     20  C   UNL     1      32.779 -10.289 -22.857  0.00  0.00    +0.049 C 
ATOM     21  C   UNL     1      32.057  -9.790 -21.757  0.00  0.00    +0.050 C 
ATOM     22  C   UNL     1      33.488  -9.375 -23.659  0.00  0.00    +0.028 C 
ATOM     23  C   UNL     1      32.045  -8.426 -21.468  0.00  0.00    +0.035 C 
ATOM     24  C   UNL     1      33.476  -8.011 -23.370  0.00  0.00    +0.086 C 
ATOM     25  C   UNL     1      32.754  -7.535 -22.275  0.00  0.00    +0.151 C 
BRANCH  21  27
ATOM     26  O   UNL     1      30.418 -11.437 -21.352  0.00  0.00    -0.291 OA
ATOM     27  C   UNL     1      31.306 -10.693 -20.894  0.00  0.00    +0.175 C 
ATOM     28  C   UNL     1      31.596 -10.743 -19.400  0.00  0.00    +0.077 C 
ENDBRANCH  21  27
ENDBRANCH  16  20
ENDBRANCH   1  16
TORSDOF 7
ENDMDL
MODEL 3
REMARK VINA RESULT:      -9.8      9.162     12.205
REMARK  Name = 16221501
REMARK  7 active torsions:
REMARK  status: ('A' for Active; 'I' for Inactive)
REMARK    1  A    between atoms: C_1  and  C_4
REMARK    2  A    between atoms: C_1  and  N_16
REMARK    3  A    between atoms: N_3  and  C_6
REMARK    4  A    between atoms: C_7  and  C_13
REMARK    5  A    between atoms: C_13  and  O_14
REMARK    6  A    between atoms: N_16  and  C_20
REMARK    7  A    between atoms: C_21  and  C_27
REMARK                            x       y       z     vdW  Elec       q    Type
REMARK                         _______ _______ _______ _____ _____    ______ ____
ROOT
ATOM      1  C   UNL     1      36.834 -21.785 -17.082  0.00  0.00    +0.174 C 
ENDROOT
BRANCH   1   4
ATOM      2  O   UNL     1      35.539 -23.645 -16.276  0.00  0.00    -0.273 OA
ATOM      3  N   UNL     1      37.280 -22.794 -14.943  0.00  0.00    -0.282 N 
ATOM      4  C   UNL     1      36.458 -22.857 -16.077  0.00  0.00    +0.246 C 
ATOM      5  H   UNL     1      37.967 -22.089 -14.947  0.00  0.00    +0.155 HD
BRANCH   3   6
ATOM      6  C   UNL     1      37.246 -23.607 -13.806  0.00  0.00    +0.057 C 
ATOM      7  C   UNL     1      38.062 -24.734 -13.704  0.00  0.00    +0.089 C 
ATOM      8  C   UNL     1      36.378 -23.276 -12.764  0.00  0.00    +0.015 C 
ATOM      9  C   UNL     1      38.009 -25.531 -12.561  0.00  0.00    +0.008 C 
ATOM     10  C   UNL     1      36.327 -24.073 -11.621  0.00  0.00    +0.001 C 
ATOM     11  C   UNL     1      37.141 -25.201 -11.519  0.00  0.00    +0.000 C 
BRANCH   7  13
ATOM     12  O   UNL     1      40.021 -24.515 -15.059  0.00  0.00    -0.245 OA
ATOM     13  C   UNL     1      38.978 -25.108 -14.774  0.00  0.00    +0.339 C 
BRANCH  13  14
ATOM     14  O   UNL     1      38.558 -26.210 -15.452  0.00  0.00    -0.477 OA
ATOM     15  H   UNL     1      39.025 -26.498 -16.213  0.00  0.00    +0.295 HD
ENDBRANCH  13  14
ENDBRANCH   7  13
ENDBRANCH   3   6
ENDBRANCH   1   4
BRANCH   1  16
ATOM     16  N   UNL     1      36.447 -22.197 -18.407  0.00  0.00    -0.325 N 
ATOM     17  H   UNL     1      36.743 -23.080 -18.724  0.00  0.00    +0.147 HD
BRANCH  16  20
ATOM     18 CL   UNL     1      36.269 -18.255 -21.668  0.00  0.00    -0.080 Cl
ATOM     19  F   UNL     1      33.423 -19.069 -21.843  0.00  0.00    -0.203 F 
ATOM     20  C   UNL     1      35.680 -21.420 -19.265  0.00  0.00    +0.049 C 
ATOM     21  C   UNL     1      34.309 -21.669 -19.464  0.00  0.00    +0.050 C 
ATOM     22  C   UNL     1      36.271 -20.351 -19.963  0.00  0.00    +0.028 C 
ATOM     23  C   UNL     1      33.556 -20.877 -20.330  0.00  0.00    +0.035 C 
ATOM     24  C   UNL     1      35.518 -19.558 -20.829  0.00  0.00    +0.086 C 
ATOM     25  C   UNL     1      34.161 -19.821 -21.013  0.00  0.00    +0.151 C 
BRANCH  21  27
ATOM     26  O   UNL     1      33.892 -23.953 -19.046  0.00  0.00    -0.291 OA
ATOM     27  C   UNL     1      33.647 -22.764 -18.766  0.00  0.00    +0.175 C 
ATOM     28  C   UNL     1      32.631 -22.470 -17.670  0.00  0.00    +0.077 C 
ENDBRANCH  21  27
ENDBRANCH  16  20
ENDBRANCH   1  16
TORSDOF 7
ENDMDL
MODEL 4
REMARK VINA RESULT:      -9.7      4.046      7.982
REMARK  Name = 16221501
REMARK  7 active torsions:
REMARK  status: ('A' for Active; 'I' for Inactive)
REMARK    1  A    between atoms: C_1  and  C_4
REMARK    2  A    between atoms: C_1  and  N_16
REMARK    3  A    between atoms: N_3  and  C_6
REMARK    4  A    between atoms: C_7  and  C_13
REMARK    5  A    between atoms: C_13  and  O_14
REMARK    6  A    between atoms: N_16  and  C_20
REMARK    7  A    between atoms: C_21  and  C_27
REMARK                            x       y       z     vdW  Elec       q    Type
REMARK                         _______ _______ _______ _____ _____    ______ ____
ROOT
ATOM      1  C   UNL     1      33.234 -14.072 -24.393  0.00  0.00    +0.174 C 
ENDROOT
BRANCH   1   4
ATOM      2  O   UNL     1      33.709 -12.255 -25.897  0.00  0.00    -0.273 OA
ATOM      3  N   UNL     1      33.435 -11.806 -23.604  0.00  0.00    -0.282 N 
ATOM      4  C   UNL     1      33.486 -12.618 -24.747  0.00  0.00    +0.246 C 
ATOM      5  H   UNL     1      33.250 -12.269 -22.755  0.00  0.00    +0.155 HD
BRANCH   3   6
ATOM      6  C   UNL     1      33.614 -10.423 -23.520  0.00  0.00    +0.057 C 
ATOM      7  C   UNL     1      32.782  -9.637 -22.722  0.00  0.00    +0.089 C 
ATOM      8  C   UNL     1      34.644  -9.829 -24.251  0.00  0.00    +0.015 C 
ATOM      9  C   UNL     1      32.980  -8.258 -22.655  0.00  0.00    +0.008 C 
ATOM     10  C   UNL     1      34.841  -8.450 -24.183  0.00  0.00    +0.001 C 
ATOM     11  C   UNL     1      34.009  -7.664 -23.386  0.00  0.00    +0.000 C 
BRANCH   7  13
ATOM     12  O   UNL     1      30.878 -11.042 -22.374  0.00  0.00    -0.245 OA
ATOM     13  C   UNL     1      31.697 -10.226 -21.947  0.00  0.00    +0.339 C 
BRANCH  13  14
ATOM     14  O   UNL     1      31.674  -9.773 -20.664  0.00  0.00    -0.477 OA
ATOM     15  H   UNL     1      32.269 -10.127 -20.032  0.00  0.00    +0.295 HD
ENDBRANCH  13  14
ENDBRANCH   7  13
ENDBRANCH   3   6
ENDBRANCH   1   4
BRANCH   1  16
ATOM     16  N   UNL     1      34.311 -14.573 -23.579  0.00  0.00    -0.325 N 
ATOM     17  H   UNL     1      35.019 -13.944 -23.308  0.00  0.00    +0.147 HD
BRANCH  16  20
ATOM     18 CL   UNL     1      34.932 -19.489 -24.863  0.00  0.00    -0.080 Cl
ATOM     19  F   UNL     1      34.716 -19.849 -21.928  0.00  0.00    -0.203 F 
ATOM     20  C   UNL     1      34.411 -15.890 -23.154  0.00  0.00    +0.049 C 
ATOM     21  C   UNL     1      34.328 -16.238 -21.792  0.00  0.00    +0.050 C 
ATOM     22  C   UNL     1      34.600 -16.920 -24.094  0.00  0.00    +0.028 C 
ATOM     23  C   UNL     1      34.431 -17.569 -21.386  0.00  0.00    +0.035 C 
ATOM     24  C   UNL     1      34.702 -18.250 -23.688  0.00  0.00    +0.086 C 
ATOM     25  C   UNL     1      34.618 -18.575 -22.335  0.00  0.00    +0.151 C 
BRANCH  21  27
ATOM     26  O   UNL     1      35.096 -14.589 -20.292  0.00  0.00    -0.291 OA
ATOM     27  C   UNL     1      34.132 -15.212 -20.777  0.00  0.00    +0.175 C 
ATOM     28  C   UNL     1      32.730 -14.879 -20.285  0.00  0.00    +0.077 C 
ENDBRANCH  21  27
ENDBRANCH  16  20
ENDBRANCH   1  16
TORSDOF 7
ENDMDL
MODEL 5
REMARK VINA RESULT:      -9.7      9.511     12.945
REMARK  Name = 16221501
REMARK  7 active torsions:
REMARK  status: ('A' for Active; 'I' for Inactive)
REMARK    1  A    between atoms: C_1  and  C_4
REMARK    2  A    between atoms: C_1  and  N_16
REMARK    3  A    between atoms: N_3  and  C_6
REMARK    4  A    between atoms: C_7  and  C_13
REMARK    5  A    between atoms: C_13  and  O_14
REMARK    6  A    between atoms: N_16  and  C_20
REMARK    7  A    between atoms: C_21  and  C_27
REMARK                            x       y       z     vdW  Elec       q    Type
REMARK                         _______ _______ _______ _____ _____    ______ ____
ROOT
ATOM      1  C   UNL     1      37.470 -22.619 -16.596  0.00  0.00    +0.174 C 
ENDROOT
BRANCH   1   4
ATOM      2  O   UNL     1      37.407 -20.292 -17.207  0.00  0.00    -0.273 OA
ATOM      3  N   UNL     1      36.212 -21.852 -18.500  0.00  0.00    -0.282 N 
ATOM      4  C   UNL     1      37.046 -21.439 -17.451  0.00  0.00    +0.246 C 
ATOM      5  H   UNL     1      36.018 -22.816 -18.542  0.00  0.00    +0.155 HD
BRANCH   3   6
ATOM      6  C   UNL     1      35.621 -21.067 -19.494  0.00  0.00    +0.057 C 
ATOM      7  C   UNL     1      34.258 -21.165 -19.774  0.00  0.00    +0.089 C 
ATOM      8  C   UNL     1      36.418 -20.173 -20.211  0.00  0.00    +0.015 C 
ATOM      9  C   UNL     1      33.692 -20.372 -20.771  0.00  0.00    +0.008 C 
ATOM     10  C   UNL     1      35.851 -19.380 -21.208  0.00  0.00    +0.001 C 
ATOM     11  C   UNL     1      34.488 -19.479 -21.489  0.00  0.00    +0.000 C 
BRANCH   7  13
ATOM     12  O   UNL     1      32.359 -21.782 -18.456  0.00  0.00    -0.245 OA
ATOM     13  C   UNL     1      33.398 -22.089 -19.043  0.00  0.00    +0.339 C 
BRANCH  13  14
ATOM     14  O   UNL     1      33.868 -23.365 -19.073  0.00  0.00    -0.477 OA
ATOM     15  H   UNL     1      34.791 -23.526 -19.030  0.00  0.00    +0.295 HD
ENDBRANCH  13  14
ENDBRANCH   7  13
ENDBRANCH   3   6
ENDBRANCH   1   4
BRANCH   1  16
ATOM     16  N   UNL     1      37.012 -22.433 -15.243  0.00  0.00    -0.325 N 
ATOM     17  H   UNL     1      37.523 -21.827 -14.659  0.00  0.00    +0.147 HD
BRANCH  16  20
ATOM     18 CL   UNL     1      32.059 -23.606 -15.781  0.00  0.00    -0.080 Cl
ATOM     19  F   UNL     1      32.516 -24.922 -13.164  0.00  0.00    -0.203 F 
ATOM     20  C   UNL     1      35.893 -23.059 -14.713  0.00  0.00    +0.049 C 
ATOM     21  C   UNL     1      35.936 -23.732 -13.477  0.00  0.00    +0.050 C 
ATOM     22  C   UNL     1      34.674 -23.033 -15.415  0.00  0.00    +0.028 C 
ATOM     23  C   UNL     1      34.799 -24.355 -12.961  0.00  0.00    +0.035 C 
ATOM     24  C   UNL     1      33.537 -23.656 -14.899  0.00  0.00    +0.086 C 
ATOM     25  C   UNL     1      33.599 -24.318 -13.673  0.00  0.00    +0.151 C 
BRANCH  21  27
ATOM     26  O   UNL     1      37.760 -22.751 -12.349  0.00  0.00    -0.291 OA
ATOM     27  C   UNL     1      37.172 -23.789 -12.708  0.00  0.00    +0.175 C 
ATOM     28  C   UNL     1      37.776 -25.134 -12.327  0.00  0.00    +0.077 C 
ENDBRANCH  21  27
ENDBRANCH  16  20
ENDBRANCH   1  16
TORSDOF 7
ENDMDL
MODEL 6
REMARK VINA RESULT:      -9.7      3.730      8.648
REMARK  Name = 16221501
REMARK  7 active torsions:
REMARK  status: ('A' for Active; 'I' for Inactive)
REMARK    1  A    between atoms: C_1  and  C_4
REMARK    2  A    between atoms: C_1  and  N_16
REMARK    3  A    between atoms: N_3  and  C_6
REMARK    4  A    between atoms: C_7  and  C_13
REMARK    5  A    between atoms: C_13  and  O_14
REMARK    6  A    between atoms: N_16  and  C_20
REMARK    7  A    between atoms: C_21  and  C_27
REMARK                            x       y       z     vdW  Elec       q    Type
REMARK                         _______ _______ _______ _____ _____    ______ ____
ROOT
ATOM      1  C   UNL     1      31.880 -12.072 -22.107  0.00  0.00    +0.174 C 
ENDROOT
BRANCH   1   4
ATOM      2  O   UNL     1      33.211 -10.599 -23.465  0.00  0.00    -0.273 OA
ATOM      3  N   UNL     1      31.500  -9.695 -22.128  0.00  0.00    -0.282 N 
ATOM      4  C   UNL     1      32.292 -10.722 -22.662  0.00  0.00    +0.246 C 
ATOM      5  H   UNL     1      30.807  -9.974 -21.487  0.00  0.00    +0.155 HD
BRANCH   3   6
ATOM      6  C   UNL     1      31.571  -8.325 -22.392  0.00  0.00    +0.057 C 
ATOM      7  C   UNL     1      31.994  -7.425 -21.414  0.00  0.00    +0.089 C 
ATOM      8  C   UNL     1      31.210  -7.860 -23.658  0.00  0.00    +0.015 C 
ATOM      9  C   UNL     1      32.054  -6.061 -21.700  0.00  0.00    +0.008 C 
ATOM     10  C   UNL     1      31.272  -6.497 -23.944  0.00  0.00    +0.001 C 
ATOM     11  C   UNL     1      31.694  -5.597 -22.966  0.00  0.00    +0.000 C 
BRANCH   7  13
ATOM     12  O   UNL     1      31.882  -8.834 -19.484  0.00  0.00    -0.245 OA
ATOM     13  C   UNL     1      32.377  -7.876 -20.082  0.00  0.00    +0.339 C 
BRANCH  13  14
ATOM     14  O   UNL     1      33.365  -7.114 -19.542  0.00  0.00    -0.477 OA
ATOM     15  H   UNL     1      33.906  -6.586 -20.097  0.00  0.00    +0.295 HD
ENDBRANCH  13  14
ENDBRANCH   7  13
ENDBRANCH   3   6
ENDBRANCH   1   4
BRANCH   1  16
ATOM     16  N   UNL     1      32.051 -13.090 -23.112  0.00  0.00    -0.325 N 
ATOM     17  H   UNL     1      31.458 -13.071 -23.897  0.00  0.00    +0.147 HD
BRANCH  16  20
ATOM     18 CL   UNL     1      34.820 -16.205 -20.141  0.00  0.00    -0.080 Cl
ATOM     19  F   UNL     1      35.853 -17.109 -22.769  0.00  0.00    -0.203 F 
ATOM     20  C   UNL     1      33.004 -14.096 -23.038  0.00  0.00    +0.049 C 
ATOM     21  C   UNL     1      33.599 -14.640 -24.192  0.00  0.00    +0.050 C 
ATOM     22  C   UNL     1      33.400 -14.599 -21.785  0.00  0.00    +0.028 C 
ATOM     23  C   UNL     1      34.555 -15.651 -24.096  0.00  0.00    +0.035 C 
ATOM     24  C   UNL     1      34.356 -15.610 -21.689  0.00  0.00    +0.086 C 
ATOM     25  C   UNL     1      34.933 -16.137 -22.844  0.00  0.00    +0.151 C 
BRANCH  21  27
ATOM     26  O   UNL     1      33.337 -12.952 -25.818  0.00  0.00    -0.291 OA
ATOM     27  C   UNL     1      33.226 -14.155 -25.515  0.00  0.00    +0.175 C 
ATOM     28  C   UNL     1      32.687 -15.121 -26.561  0.00  0.00    +0.077 C 
ENDBRANCH  21  27
ENDBRANCH  16  20
ENDBRANCH   1  16
TORSDOF 7
ENDMDL
MODEL 7
REMARK VINA RESULT:      -9.7      1.889      3.026
REMARK  Name = 16221501
REMARK  7 active torsions:
REMARK  status: ('A' for Active; 'I' for Inactive)
REMARK    1  A    between atoms: C_1  and  C_4
REMARK    2  A    between atoms: C_1  and  N_16
REMARK    3  A    between atoms: N_3  and  C_6
REMARK    4  A    between atoms: C_7  and  C_13
REMARK    5  A    between atoms: C_13  and  O_14
REMARK    6  A    between atoms: N_16  and  C_20
REMARK    7  A    between atoms: C_21  and  C_27
REMARK                            x       y       z     vdW  Elec       q    Type
REMARK                         _______ _______ _______ _____ _____    ______ ____
ROOT
ATOM      1  C   UNL     1      32.168 -12.696 -21.891  0.00  0.00    +0.174 C 
ENDROOT
BRANCH   1   4
ATOM      2  O   UNL     1      31.982 -15.035 -21.360  0.00  0.00    -0.273 OA
ATOM      3  N   UNL     1      33.456 -14.359 -23.063  0.00  0.00    -0.282 N 
ATOM      4  C   UNL     1      32.502 -14.167 -22.054  0.00  0.00    +0.246 C 
ATOM      5  H   UNL     1      33.773 -13.544 -23.517  0.00  0.00    +0.155 HD
BRANCH   3   6
ATOM      6  C   UNL     1      34.014 -15.561 -23.507  0.00  0.00    +0.057 C 
ATOM      7  C   UNL     1      33.948 -15.932 -24.850  0.00  0.00    +0.089 C 
ATOM      8  C   UNL     1      34.643 -16.396 -22.583  0.00  0.00    +0.015 C 
ATOM      9  C   UNL     1      34.511 -17.137 -25.269  0.00  0.00    +0.008 C 
ATOM     10  C   UNL     1      35.206 -17.600 -23.002  0.00  0.00    +0.001 C 
ATOM     11  C   UNL     1      35.140 -17.972 -24.345  0.00  0.00    +0.000 C 
BRANCH   7  13
ATOM     12  O   UNL     1      33.619 -14.999 -27.028  0.00  0.00    -0.245 OA
ATOM     13  C   UNL     1      33.297 -15.084 -25.841  0.00  0.00    +0.339 C 
BRANCH  13  14
ATOM     14  O   UNL     1      32.267 -14.370 -25.313  0.00  0.00    -0.477 OA
ATOM     15  H   UNL     1      32.443 -13.627 -24.768  0.00  0.00    +0.295 HD
ENDBRANCH  13  14
ENDBRANCH   7  13
ENDBRANCH   3   6
ENDBRANCH   1   4
BRANCH   1  16
ATOM     16  N   UNL     1      32.555 -11.972 -23.075  0.00  0.00    -0.325 N 
ATOM     17  H   UNL     1      32.583 -12.461 -23.929  0.00  0.00    +0.147 HD
BRANCH  16  20
ATOM     18 CL   UNL     1      31.892  -7.345 -20.988  0.00  0.00    -0.080 Cl
ATOM     19  F   UNL     1      33.869  -6.587 -23.064  0.00  0.00    -0.203 F 
ATOM     20  C   UNL     1      32.891 -10.626 -23.082  0.00  0.00    +0.049 C 
ATOM     21  C   UNL     1      33.815 -10.097 -24.003  0.00  0.00    +0.050 C 
ATOM     22  C   UNL     1      32.304  -9.749 -22.150  0.00  0.00    +0.028 C 
ATOM     23  C   UNL     1      34.139  -8.740 -23.993  0.00  0.00    +0.035 C 
ATOM     24  C   UNL     1      32.628  -8.393 -22.140  0.00  0.00    +0.086 C 
ATOM     25  C   UNL     1      33.546  -7.888 -23.061  0.00  0.00    +0.151 C 
BRANCH  21  27
ATOM     26  O   UNL     1      34.135 -12.160 -25.100  0.00  0.00    -0.291 OA
ATOM     27  C   UNL     1      34.452 -10.960 -24.990  0.00  0.00    +0.175 C 
ATOM     28  C   UNL     1      35.528 -10.404 -25.912  0.00  0.00    +0.077 C 
ENDBRANCH  21  27
ENDBRANCH  16  20
ENDBRANCH   1  16
TORSDOF 7
ENDMDL
MODEL 8
REMARK VINA RESULT:      -9.5      3.507      5.003
REMARK  Name = 16221501
REMARK  7 active torsions:
REMARK  status: ('A' for Active; 'I' for Inactive)
REMARK    1  A    between atoms: C_1  and  C_4
REMARK    2  A    between atoms: C_1  and  N_16
REMARK    3  A    between atoms: N_3  and  C_6
REMARK    4  A    between atoms: C_7  and  C_13
REMARK    5  A    between atoms: C_13  and  O_14
REMARK    6  A    between atoms: N_16  and  C_20
REMARK    7  A    between atoms: C_21  and  C_27
REMARK                            x       y       z     vdW  Elec       q    Type
REMARK                         _______ _______ _______ _____ _____    ______ ____
ROOT
ATOM      1  C   UNL     1      35.070 -17.503 -24.219  0.00  0.00    +0.174 C 
ENDROOT
BRANCH   1   4
ATOM      2  O   UNL     1      35.168 -19.903 -24.082  0.00  0.00    -0.273 OA
ATOM      3  N   UNL     1      35.379 -18.630 -22.114  0.00  0.00    -0.282 N 
ATOM      4  C   UNL     1      35.212 -18.827 -23.493  0.00  0.00    +0.246 C 
ATOM      5  H   UNL     1      35.382 -17.694 -21.810  0.00  0.00    +0.155 HD
BRANCH   3   6
ATOM      6  C   UNL     1      35.542 -19.597 -21.118  0.00  0.00    +0.057 C 
ATOM      7  C   UNL     1      34.440 -20.162 -20.477  0.00  0.00    +0.089 C 
ATOM      8  C   UNL     1      36.833 -19.995 -20.767  0.00  0.00    +0.015 C 
ATOM      9  C   UNL     1      34.628 -21.124 -19.484  0.00  0.00    +0.008 C 
ATOM     10  C   UNL     1      37.020 -20.957 -19.775  0.00  0.00    +0.001 C 
ATOM     11  C   UNL     1      35.918 -21.521 -19.133  0.00  0.00    +0.000 C 
BRANCH   7  13
ATOM     12  O   UNL     1      32.154 -20.544 -21.072  0.00  0.00    -0.245 OA
ATOM     13  C   UNL     1      33.079 -19.768 -20.819  0.00  0.00    +0.339 C 
BRANCH  13  14
ATOM     14  O   UNL     1      32.920 -18.417 -20.834  0.00  0.00    -0.477 OA
ATOM     15  H   UNL     1      32.609 -17.991 -21.609  0.00  0.00    +0.295 HD
ENDBRANCH  13  14
ENDBRANCH   7  13
ENDBRANCH   3   6
ENDBRANCH   1   4
BRANCH   1  16
ATOM     16  N   UNL     1      33.948 -16.771 -23.690  0.00  0.00    -0.325 N 
ATOM     17  H   UNL     1      33.255 -17.273 -23.203  0.00  0.00    +0.147 HD
BRANCH  16  20
ATOM     18 CL   UNL     1      33.360 -12.785 -26.847  0.00  0.00    -0.080 Cl
ATOM     19  F   UNL     1      33.300 -11.297 -24.283  0.00  0.00    -0.203 F 
ATOM     20  C   UNL     1      33.787 -15.399 -23.826  0.00  0.00    +0.049 C 
ATOM     21  C   UNL     1      33.737 -14.544 -22.709  0.00  0.00    +0.050 C 
ATOM     22  C   UNL     1      33.666 -14.829 -25.107  0.00  0.00    +0.028 C 
ATOM     23  C   UNL     1      33.574 -13.168 -22.868  0.00  0.00    +0.035 C 
ATOM     24  C   UNL     1      33.503 -13.453 -25.266  0.00  0.00    +0.086 C 
ATOM     25  C   UNL     1      33.457 -12.622 -24.147  0.00  0.00    +0.151 C 
BRANCH  21  27
ATOM     26  O   UNL     1      34.817 -15.807 -21.036  0.00  0.00    -0.291 OA
ATOM     27  C   UNL     1      33.858 -15.081 -21.360  0.00  0.00    +0.175 C 
ATOM     28  C   UNL     1      32.800 -14.763 -20.312  0.00  0.00    +0.077 C 
ENDBRANCH  21  27
ENDBRANCH  16  20
ENDBRANCH   1  16
TORSDOF 7
ENDMDL
MODEL 9
REMARK VINA RESULT:      -9.5      3.655      8.381
REMARK  Name = 16221501
REMARK  7 active torsions:
REMARK  status: ('A' for Active; 'I' for Inactive)
REMARK    1  A    between atoms: C_1  and  C_4
REMARK    2  A    between atoms: C_1  and  N_16
REMARK    3  A    between atoms: N_3  and  C_6
REMARK    4  A    between atoms: C_7  and  C_13
REMARK    5  A    between atoms: C_13  and  O_14
REMARK    6  A    between atoms: N_16  and  C_20
REMARK    7  A    between atoms: C_21  and  C_27
REMARK                            x       y       z     vdW  Elec       q    Type
REMARK                         _______ _______ _______ _____ _____    ______ ____
ROOT
ATOM      1  C   UNL     1      31.937 -12.311 -22.225  0.00  0.00    +0.174 C 
ENDROOT
BRANCH   1   4
ATOM      2  O   UNL     1      33.342 -10.770 -23.424  0.00  0.00    -0.273 OA
ATOM      3  N   UNL     1      31.505  -9.942 -22.210  0.00  0.00    -0.282 N 
ATOM      4  C   UNL     1      32.362 -10.936 -22.705  0.00  0.00    +0.246 C 
ATOM      5  H   UNL     1      30.768 -10.255 -21.637  0.00  0.00    +0.155 HD
BRANCH   3   6
ATOM      6  C   UNL     1      31.566  -8.563 -22.428  0.00  0.00    +0.057 C 
ATOM      7  C   UNL     1      32.025  -7.697 -21.434  0.00  0.00    +0.089 C 
ATOM      8  C   UNL     1      31.159  -8.055 -23.662  0.00  0.00    +0.015 C 
ATOM      9  C   UNL     1      32.075  -6.324 -21.675  0.00  0.00    +0.008 C 
ATOM     10  C   UNL     1      31.210  -6.682 -23.902  0.00  0.00    +0.001 C 
ATOM     11  C   UNL     1      31.668  -5.816 -22.909  0.00  0.00    +0.000 C 
BRANCH   7  13
ATOM     12  O   UNL     1      32.055  -9.230 -19.598  0.00  0.00    -0.245 OA
ATOM     13  C   UNL     1      32.457  -8.195 -20.134  0.00  0.00    +0.339 C 
BRANCH  13  14
ATOM     14  O   UNL     1      33.376  -7.381 -19.549  0.00  0.00    -0.477 OA
ATOM     15  H   UNL     1      34.290  -7.514 -19.711  0.00  0.00    +0.295 HD
ENDBRANCH  13  14
ENDBRANCH   7  13
ENDBRANCH   3   6
ENDBRANCH   1   4
BRANCH   1  16
ATOM     16  N   UNL     1      33.091 -13.162 -22.088  0.00  0.00    -0.325 N 
ATOM     17  H   UNL     1      33.663 -13.043 -21.296  0.00  0.00    +0.147 HD
BRANCH  16  20
ATOM     18 CL   UNL     1      32.864 -14.820 -26.925  0.00  0.00    -0.080 Cl
ATOM     19  F   UNL     1      34.478 -17.039 -25.799  0.00  0.00    -0.203 F 
ATOM     20  C   UNL     1      33.444 -14.139 -23.008  0.00  0.00    +0.049 C 
ATOM     21  C   UNL     1      34.208 -15.262 -22.641  0.00  0.00    +0.050 C 
ATOM     22  C   UNL     1      33.036 -14.021 -24.350  0.00  0.00    +0.028 C 
ATOM     23  C   UNL     1      34.552 -16.233 -23.581  0.00  0.00    +0.035 C 
ATOM     24  C   UNL     1      33.380 -14.992 -25.291  0.00  0.00    +0.086 C 
ATOM     25  C   UNL     1      34.138 -16.097 -24.907  0.00  0.00    +0.151 C 
BRANCH  21  27
ATOM     26  O   UNL     1      34.890 -14.453 -20.533  0.00  0.00    -0.291 OA
ATOM     27  C   UNL     1      34.656 -15.433 -21.265  0.00  0.00    +0.175 C 
ATOM     28  C   UNL     1      34.850 -16.830 -20.691  0.00  0.00    +0.077 C 
ENDBRANCH  21  27
ENDBRANCH  16  20
ENDBRANCH   1  16
TORSDOF 7
ENDMDL
