MODEL 1
REMARK VINA RESULT:      -7.9      0.000      0.000
REMARK  Name = 8376
REMARK  3 active torsions:
REMARK  status: ('A' for Active; 'I' for Inactive)
REMARK    1  A    between atoms: C_2  and  N_10
REMARK    2  A    between atoms: C_3  and  N_13
REMARK    3  A    between atoms: C_4  and  N_16
REMARK                            x       y       z     vdW  Elec       q    Type
REMARK                         _______ _______ _______ _____ _____    ______ ____
ROOT
ATOM      1  C   UNL     1      36.598 -25.426 -13.126  0.00  0.00    +0.023 C 
ATOM      2  C   UNL     1      35.735 -24.625 -12.379  0.00  0.00    +0.142 C 
ATOM      3  C   UNL     1      36.401 -25.572 -14.499  0.00  0.00    +0.142 C 
ATOM      4  C   UNL     1      34.477 -24.115 -14.378  0.00  0.00    +0.146 C 
ATOM      5  C   UNL     1      34.674 -23.970 -13.005  0.00  0.00    +0.048 C 
ATOM      6  C   UNL     1      35.340 -24.916 -15.125  0.00  0.00    +0.048 C 
ATOM      7  C   UNL     1      37.739 -26.128 -12.453  0.00  0.00    +0.035 C 
ENDROOT
BRANCH   2  10
ATOM      8  O   UNL     1      35.204 -25.131 -10.192  0.00  0.00    -0.126 OA
ATOM      9  O   UNL     1      36.778 -23.647 -10.569  0.00  0.00    -0.126 OA
ATOM     10  N   UNL     1      35.914 -24.459 -10.977  0.00  0.00    +0.057 N 
ENDBRANCH   2  10
BRANCH   3  13
ATOM     11  O   UNL     1      38.506 -26.186 -15.216  0.00  0.00    -0.126 OA
ATOM     12  O   UNL     1      36.771 -27.267 -16.018  0.00  0.00    -0.126 OA
ATOM     13  N   UNL     1      37.269 -26.382 -15.284  0.00  0.00    +0.057 N 
ENDBRANCH   3  13
BRANCH   4  16
ATOM     14  O   UNL     1      32.405 -23.105 -14.328  0.00  0.00    -0.126 OA
ATOM     15  O   UNL     1      33.466 -23.221 -16.247  0.00  0.00    -0.126 OA
ATOM     16  N   UNL     1      33.398 -23.448 -15.016  0.00  0.00    +0.058 N 
ENDBRANCH   4  16
TORSDOF 3
ENDMDL
MODEL 2
REMARK VINA RESULT:      -7.9      0.072      3.882
REMARK  Name = 8376
REMARK  3 active torsions:
REMARK  status: ('A' for Active; 'I' for Inactive)
REMARK    1  A    between atoms: C_2  and  N_10
REMARK    2  A    between atoms: C_3  and  N_13
REMARK    3  A    between atoms: C_4  and  N_16
REMARK                            x       y       z     vdW  Elec       q    Type
REMARK                         _______ _______ _______ _____ _____    ______ ____
ROOT
ATOM      1  C   UNL     1      36.599 -25.378 -13.152  0.00  0.00    +0.023 C 
ATOM      2  C   UNL     1      36.398 -25.555 -14.520  0.00  0.00    +0.142 C 
ATOM      3  C   UNL     1      35.738 -24.559 -12.420  0.00  0.00    +0.142 C 
ATOM      4  C   UNL     1      34.474 -24.096 -14.427  0.00  0.00    +0.146 C 
ATOM      5  C   UNL     1      35.336 -24.914 -15.158  0.00  0.00    +0.048 C 
ATOM      6  C   UNL     1      34.676 -23.918 -13.059  0.00  0.00    +0.048 C 
ATOM      7  C   UNL     1      37.739 -26.068 -12.466  0.00  0.00    +0.035 C 
ENDROOT
BRANCH   2  10
ATOM      8  O   UNL     1      38.499 -26.202 -15.217  0.00  0.00    -0.126 OA
ATOM      9  O   UNL     1      36.757 -27.276 -16.013  0.00  0.00    -0.126 OA
ATOM     10  N   UNL     1      37.261 -26.385 -15.288  0.00  0.00    +0.057 N 
ENDBRANCH   2  10
BRANCH   3  13
ATOM     11  O   UNL     1      35.252 -25.056 -10.222  0.00  0.00    -0.126 OA
ATOM     12  O   UNL     1      36.746 -23.503 -10.636  0.00  0.00    -0.126 OA
ATOM     13  N   UNL     1      35.921 -24.362 -11.023  0.00  0.00    +0.057 N 
ENDBRANCH   3  13
BRANCH   4  16
ATOM     14  O   UNL     1      33.473 -23.214 -16.307  0.00  0.00    -0.126 OA
ATOM     15  O   UNL     1      32.388 -23.115 -14.402  0.00  0.00    -0.126 OA
ATOM     16  N   UNL     1      33.393 -23.443 -15.076  0.00  0.00    +0.058 N 
ENDBRANCH   4  16
TORSDOF 3
ENDMDL
MODEL 3
REMARK VINA RESULT:      -7.8      1.857      4.198
REMARK  Name = 8376
REMARK  3 active torsions:
REMARK  status: ('A' for Active; 'I' for Inactive)
REMARK    1  A    between atoms: C_2  and  N_10
REMARK    2  A    between atoms: C_3  and  N_13
REMARK    3  A    between atoms: C_4  and  N_16
REMARK                            x       y       z     vdW  Elec       q    Type
REMARK                         _______ _______ _______ _____ _____    ______ ____
ROOT
ATOM      1  C   UNL     1      35.953 -24.031 -13.451  0.00  0.00    +0.023 C 
ATOM      2  C   UNL     1      36.729 -24.503 -12.393  0.00  0.00    +0.142 C 
ATOM      3  C   UNL     1      36.457 -24.059 -14.752  0.00  0.00    +0.142 C 
ATOM      4  C   UNL     1      38.512 -25.033 -13.935  0.00  0.00    +0.146 C 
ATOM      5  C   UNL     1      38.008 -25.003 -12.635  0.00  0.00    +0.048 C 
ATOM      6  C   UNL     1      37.737 -24.560 -14.993  0.00  0.00    +0.048 C 
ATOM      7  C   UNL     1      34.577 -23.495 -13.192  0.00  0.00    +0.035 C 
ENDROOT
BRANCH   2  10
ATOM      8  O   UNL     1      35.351 -25.308 -10.728  0.00  0.00    -0.126 OA
ATOM      9  O   UNL     1      36.708 -23.649 -10.250  0.00  0.00    -0.126 OA
ATOM     10  N   UNL     1      36.237 -24.486 -11.057  0.00  0.00    +0.057 N 
ENDBRANCH   2  10
BRANCH   3  13
ATOM     11  O   UNL     1      35.882 -22.419 -16.268  0.00  0.00    -0.126 OA
ATOM     12  O   UNL     1      34.832 -24.345 -16.363  0.00  0.00    -0.126 OA
ATOM     13  N   UNL     1      35.685 -23.585 -15.849  0.00  0.00    +0.057 N 
ENDBRANCH   3  13
BRANCH   4  16
ATOM     14  O   UNL     1      39.941 -26.740 -14.532  0.00  0.00    -0.126 OA
ATOM     15  O   UNL     1      40.801 -24.781 -14.041  0.00  0.00    -0.126 OA
ATOM     16  N   UNL     1      39.814 -25.542 -14.181  0.00  0.00    +0.058 N 
ENDBRANCH   4  16
TORSDOF 3
ENDMDL
MODEL 4
REMARK VINA RESULT:      -7.7      1.924      5.367
REMARK  Name = 8376
REMARK  3 active torsions:
REMARK  status: ('A' for Active; 'I' for Inactive)
REMARK    1  A    between atoms: C_2  and  N_10
REMARK    2  A    between atoms: C_3  and  N_13
REMARK    3  A    between atoms: C_4  and  N_16
REMARK                            x       y       z     vdW  Elec       q    Type
REMARK                         _______ _______ _______ _____ _____    ______ ____
ROOT
ATOM      1  C   UNL     1      36.147 -24.068 -13.586  0.00  0.00    +0.023 C 
ATOM      2  C   UNL     1      36.651 -24.099 -14.885  0.00  0.00    +0.142 C 
ATOM      3  C   UNL     1      36.929 -24.521 -12.522  0.00  0.00    +0.142 C 
ATOM      4  C   UNL     1      38.719 -25.037 -14.060  0.00  0.00    +0.146 C 
ATOM      5  C   UNL     1      37.937 -24.584 -15.122  0.00  0.00    +0.048 C 
ATOM      6  C   UNL     1      38.215 -25.006 -12.761  0.00  0.00    +0.048 C 
ATOM      7  C   UNL     1      34.765 -23.544 -13.330  0.00  0.00    +0.035 C 
ENDROOT
BRANCH   2  10
ATOM      8  O   UNL     1      34.873 -24.307 -16.339  0.00  0.00    -0.126 OA
ATOM      9  O   UNL     1      36.216 -22.585 -16.570  0.00  0.00    -0.126 OA
ATOM     10  N   UNL     1      35.875 -23.641 -15.986  0.00  0.00    +0.057 N 
ENDBRANCH   2  10
BRANCH   3  13
ATOM     11  O   UNL     1      35.627 -25.384 -10.826  0.00  0.00    -0.126 OA
ATOM     12  O   UNL     1      36.829 -23.594 -10.414  0.00  0.00    -0.126 OA
ATOM     13  N   UNL     1      36.437 -24.499 -11.187  0.00  0.00    +0.057 N 
ENDBRANCH   3  13
BRANCH   4  16
ATOM     14  O   UNL     1      40.187 -26.760 -14.502  0.00  0.00    -0.126 OA
ATOM     15  O   UNL     1      40.990 -24.726 -14.309  0.00  0.00    -0.126 OA
ATOM     16  N   UNL     1      40.029 -25.531 -14.301  0.00  0.00    +0.058 N 
ENDBRANCH   4  16
TORSDOF 3
ENDMDL
MODEL 5
REMARK VINA RESULT:      -7.6      2.232      2.659
REMARK  Name = 8376
REMARK  3 active torsions:
REMARK  status: ('A' for Active; 'I' for Inactive)
REMARK    1  A    between atoms: C_2  and  N_10
REMARK    2  A    between atoms: C_3  and  N_13
REMARK    3  A    between atoms: C_4  and  N_16
REMARK                            x       y       z     vdW  Elec       q    Type
REMARK                         _______ _______ _______ _____ _____    ______ ____
ROOT
ATOM      1  C   UNL     1      37.950 -24.921 -13.197  0.00  0.00    +0.023 C 
ATOM      2  C   UNL     1      36.766 -24.209 -13.008  0.00  0.00    +0.142 C 
ATOM      3  C   UNL     1      38.642 -24.816 -14.405  0.00  0.00    +0.142 C 
ATOM      4  C   UNL     1      36.965 -23.286 -15.232  0.00  0.00    +0.146 C 
ATOM      5  C   UNL     1      36.273 -23.392 -14.025  0.00  0.00    +0.048 C 
ATOM      6  C   UNL     1      38.148 -23.999 -15.422  0.00  0.00    +0.048 C 
ATOM      7  C   UNL     1      38.481 -25.798 -12.103  0.00  0.00    +0.035 C 
ENDROOT
BRANCH   2  10
ATOM      8  O   UNL     1      34.918 -24.850 -11.787  0.00  0.00    -0.126 OA
ATOM      9  O   UNL     1      36.554 -23.822 -10.744  0.00  0.00    -0.126 OA
ATOM     10  N   UNL     1      36.043 -24.298 -11.786  0.00  0.00    +0.057 N 
ENDBRANCH   2  10
BRANCH   3  13
ATOM     11  O   UNL     1      39.794 -26.762 -14.857  0.00  0.00    -0.126 OA
ATOM     12  O   UNL     1      40.939 -24.911 -14.573  0.00  0.00    -0.126 OA
ATOM     13  N   UNL     1      39.852 -25.532 -14.622  0.00  0.00    +0.057 N 
ENDBRANCH   3  13
BRANCH   4  16
ATOM     14  O   UNL     1      35.443 -22.821 -16.901  0.00  0.00    -0.126 OA
ATOM     15  O   UNL     1      37.051 -21.376 -16.520  0.00  0.00    -0.126 OA
ATOM     16  N   UNL     1      36.463 -22.454 -16.267  0.00  0.00    +0.058 N 
ENDBRANCH   4  16
TORSDOF 3
ENDMDL
MODEL 6
REMARK VINA RESULT:      -7.5      2.394      4.144
REMARK  Name = 8376
REMARK  3 active torsions:
REMARK  status: ('A' for Active; 'I' for Inactive)
REMARK    1  A    between atoms: C_2  and  N_10
REMARK    2  A    between atoms: C_3  and  N_13
REMARK    3  A    between atoms: C_4  and  N_16
REMARK                            x       y       z     vdW  Elec       q    Type
REMARK                         _______ _______ _______ _____ _____    ______ ____
ROOT
ATOM      1  C   UNL     1      37.222 -24.791 -13.464  0.00  0.00    +0.023 C 
ATOM      2  C   UNL     1      38.197 -24.668 -14.453  0.00  0.00    +0.142 C 
ATOM      3  C   UNL     1      36.047 -24.042 -13.546  0.00  0.00    +0.142 C 
ATOM      4  C   UNL     1      36.823 -23.051 -15.608  0.00  0.00    +0.146 C 
ATOM      5  C   UNL     1      37.998 -23.798 -15.525  0.00  0.00    +0.048 C 
ATOM      6  C   UNL     1      35.849 -23.173 -14.618  0.00  0.00    +0.048 C 
ATOM      7  C   UNL     1      37.436 -25.727 -12.313  0.00  0.00    +0.035 C 
ENDROOT
BRANCH   2  10
ATOM      8  O   UNL     1      39.389 -26.618 -14.762  0.00  0.00    -0.126 OA
ATOM      9  O   UNL     1      40.445 -24.862 -13.972  0.00  0.00    -0.126 OA
ATOM     10  N   UNL     1      39.404 -25.420 -14.392  0.00  0.00    +0.057 N 
ENDBRANCH   2  10
BRANCH   3  13
ATOM     11  O   UNL     1      33.910 -24.591 -12.877  0.00  0.00    -0.126 OA
ATOM     12  O   UNL     1      35.304 -23.801 -11.377  0.00  0.00    -0.126 OA
ATOM     13  N   UNL     1      35.037 -24.150 -12.550  0.00  0.00    +0.057 N 
ENDBRANCH   3  13
BRANCH   4  16
ATOM     14  O   UNL     1      37.331 -21.134 -16.785  0.00  0.00    -0.126 OA
ATOM     15  O   UNL     1      35.738 -22.438 -17.548  0.00  0.00    -0.126 OA
ATOM     16  N   UNL     1      36.620 -22.166 -16.699  0.00  0.00    +0.058 N 
ENDBRANCH   4  16
TORSDOF 3
ENDMDL
MODEL 7
REMARK VINA RESULT:      -7.5     10.115     12.219
REMARK  Name = 8376
REMARK  3 active torsions:
REMARK  status: ('A' for Active; 'I' for Inactive)
REMARK    1  A    between atoms: C_2  and  N_10
REMARK    2  A    between atoms: C_3  and  N_13
REMARK    3  A    between atoms: C_4  and  N_16
REMARK                            x       y       z     vdW  Elec       q    Type
REMARK                         _______ _______ _______ _____ _____    ______ ____
ROOT
ATOM      1  C   UNL     1      34.324 -16.260 -22.937  0.00  0.00    +0.023 C 
ATOM      2  C   UNL     1      34.519 -16.242 -21.556  0.00  0.00    +0.142 C 
ATOM      3  C   UNL     1      34.695 -17.382 -23.679  0.00  0.00    +0.142 C 
ATOM      4  C   UNL     1      35.456 -18.466 -21.658  0.00  0.00    +0.146 C 
ATOM      5  C   UNL     1      35.085 -17.345 -20.917  0.00  0.00    +0.048 C 
ATOM      6  C   UNL     1      35.262 -18.485 -23.038  0.00  0.00    +0.048 C 
ATOM      7  C   UNL     1      33.713 -15.076 -23.623  0.00  0.00    +0.035 C 
ENDROOT
BRANCH   2  10
ATOM      8  O   UNL     1      32.947 -14.973 -20.444  0.00  0.00    -0.126 OA
ATOM      9  O   UNL     1      35.033 -14.286 -20.446  0.00  0.00    -0.126 OA
ATOM     10  N   UNL     1      34.148 -15.111 -20.777  0.00  0.00    +0.057 N 
ENDBRANCH   2  10
BRANCH   3  13
ATOM     11  O   UNL     1      35.212 -16.690 -25.817  0.00  0.00    -0.126 OA
ATOM     12  O   UNL     1      33.639 -18.199 -25.558  0.00  0.00    -0.126 OA
ATOM     13  N   UNL     1      34.506 -17.426 -25.088  0.00  0.00    +0.057 N 
ENDBRANCH   3  13
BRANCH   4  16
ATOM     14  O   UNL     1      37.239 -19.538 -20.662  0.00  0.00    -0.126 OA
ATOM     15  O   UNL     1      35.322 -20.600 -20.794  0.00  0.00    -0.126 OA
ATOM     16  N   UNL     1      36.033 -19.589 -21.007  0.00  0.00    +0.058 N 
ENDBRANCH   4  16
TORSDOF 3
ENDMDL
MODEL 8
REMARK VINA RESULT:      -7.5     10.116     12.785
REMARK  Name = 8376
REMARK  3 active torsions:
REMARK  status: ('A' for Active; 'I' for Inactive)
REMARK    1  A    between atoms: C_2  and  N_10
REMARK    2  A    between atoms: C_3  and  N_13
REMARK    3  A    between atoms: C_4  and  N_16
REMARK                            x       y       z     vdW  Elec       q    Type
REMARK                         _______ _______ _______ _____ _____    ______ ____
ROOT
ATOM      1  C   UNL     1      34.321 -16.257 -22.934  0.00  0.00    +0.023 C 
ATOM      2  C   UNL     1      34.689 -17.378 -23.677  0.00  0.00    +0.142 C 
ATOM      3  C   UNL     1      34.519 -16.240 -21.553  0.00  0.00    +0.142 C 
ATOM      4  C   UNL     1      35.452 -18.466 -21.660  0.00  0.00    +0.146 C 
ATOM      5  C   UNL     1      35.254 -18.483 -23.040  0.00  0.00    +0.048 C 
ATOM      6  C   UNL     1      35.084 -17.345 -20.916  0.00  0.00    +0.048 C 
ATOM      7  C   UNL     1      33.716 -15.069 -23.619  0.00  0.00    +0.035 C 
ENDROOT
BRANCH   2  10
ATOM      8  O   UNL     1      35.213 -16.691 -25.815  0.00  0.00    -0.126 OA
ATOM      9  O   UNL     1      33.623 -18.184 -25.558  0.00  0.00    -0.126 OA
ATOM     10  N   UNL     1      34.499 -17.419 -25.087  0.00  0.00    +0.057 N 
ENDBRANCH   2  10
BRANCH   3  13
ATOM     11  O   UNL     1      32.952 -14.962 -20.444  0.00  0.00    -0.126 OA
ATOM     12  O   UNL     1      35.043 -14.292 -20.437  0.00  0.00    -0.126 OA
ATOM     13  N   UNL     1      34.153 -15.108 -20.772  0.00  0.00    +0.057 N 
ENDBRANCH   3  13
BRANCH   4  16
ATOM     14  O   UNL     1      37.233 -19.543 -20.668  0.00  0.00    -0.126 OA
ATOM     15  O   UNL     1      35.314 -20.600 -20.798  0.00  0.00    -0.126 OA
ATOM     16  N   UNL     1      36.027 -19.591 -21.011  0.00  0.00    +0.058 N 
ENDBRANCH   4  16
TORSDOF 3
ENDMDL
MODEL 9
REMARK VINA RESULT:      -7.5      2.574      4.337
REMARK  Name = 8376
REMARK  3 active torsions:
REMARK  status: ('A' for Active; 'I' for Inactive)
REMARK    1  A    between atoms: C_2  and  N_10
REMARK    2  A    between atoms: C_3  and  N_13
REMARK    3  A    between atoms: C_4  and  N_16
REMARK                            x       y       z     vdW  Elec       q    Type
REMARK                         _______ _______ _______ _____ _____    ______ ____
ROOT
ATOM      1  C   UNL     1      34.586 -23.909 -14.164  0.00  0.00    +0.023 C 
ATOM      2  C   UNL     1      35.564 -23.679 -15.130  0.00  0.00    +0.142 C 
ATOM      3  C   UNL     1      33.236 -23.798 -14.498  0.00  0.00    +0.142 C 
ATOM      4  C   UNL     1      33.844 -23.227 -16.765  0.00  0.00    +0.146 C 
ATOM      5  C   UNL     1      35.193 -23.338 -16.431  0.00  0.00    +0.048 C 
ATOM      6  C   UNL     1      32.865 -23.457 -15.799  0.00  0.00    +0.048 C 
ATOM      7  C   UNL     1      34.985 -24.278 -12.767  0.00  0.00    +0.035 C 
ENDROOT
BRANCH   2  10
ATOM      8  O   UNL     1      37.520 -24.891 -14.971  0.00  0.00    -0.126 OA
ATOM      9  O   UNL     1      37.553 -22.774 -14.392  0.00  0.00    -0.126 OA
ATOM     10  N   UNL     1      36.948 -23.787 -14.815  0.00  0.00    +0.057 N 
ENDBRANCH   2  10
BRANCH   3  13
ATOM     11  O   UNL     1      31.764 -23.054 -12.886  0.00  0.00    -0.126 OA
ATOM     12  O   UNL     1      31.807 -25.199 -13.352  0.00  0.00    -0.126 OA
ATOM     13  N   UNL     1      32.218 -24.029 -13.530  0.00  0.00    +0.057 N 
ENDBRANCH   3  13
BRANCH   4  16
ATOM     14  O   UNL     1      34.252 -23.140 -19.033  0.00  0.00    -0.126 OA
ATOM     15  O   UNL     1      32.359 -22.324 -18.279  0.00  0.00    -0.126 OA
ATOM     16  N   UNL     1      33.466 -22.880 -18.089  0.00  0.00    +0.058 N 
ENDBRANCH   4  16
TORSDOF 3
ENDMDL
