MODEL 1
REMARK VINA RESULT:      -8.7      0.000      0.000
REMARK  Name = 2710
REMARK  3 active torsions:
REMARK  status: ('A' for Active; 'I' for Inactive)
REMARK    1  A    between atoms: C_1  and  N_2
REMARK    2  A    between atoms: C_1  and  C_12
REMARK    3  A    between atoms: C_1  and  C_18
REMARK                            x       y       z     vdW  Elec       q    Type
REMARK                         _______ _______ _______ _____ _____    ______ ____
ROOT
ATOM      1  C   UNL     1      34.215 -23.107 -15.574  0.00  0.00    -0.012 C 
ENDROOT
BRANCH   1   2
ATOM      2  N   UNL     1      32.965 -23.862 -15.537  0.00  0.00    +0.390 N 
ATOM      3  N   UNL     1      30.257 -24.319 -14.633  0.00  0.00    +0.383 N 
ATOM      4  C   UNL     1      31.849 -23.047 -16.031  0.00  0.00    -0.100 C 
ATOM      5  C   UNL     1      32.686 -24.341 -14.178  0.00  0.00    -0.100 C 
ATOM      6  C   UNL     1      30.537 -23.839 -15.991  0.00  0.00    -0.101 C 
ATOM      7  C   UNL     1      31.374 -25.132 -14.136  0.00  0.00    -0.101 C 
ATOM      8  C   UNL     1      29.007 -25.076 -14.597  0.00  0.00    -0.101 C 
ATOM      9  H   UNL     1      33.068 -24.672 -16.148  0.00  0.00    -0.079 HD
ATOM     10  H   UNL     1      30.152 -23.510 -14.021  0.00  0.00    -0.080 HD
ENDBRANCH   1   2
BRANCH   1  12
ATOM     11 CL   UNL     1      38.679 -25.926 -12.718  0.00  0.00    -0.082 Cl
ATOM     12  C   UNL     1      35.347 -23.822 -14.849  0.00  0.00    -0.038 C 
ATOM     13  C   UNL     1      35.986 -23.177 -13.810  0.00  0.00    -0.005 C 
ATOM     14  C   UNL     1      35.700 -25.094 -15.253  0.00  0.00    -0.005 C 
ATOM     15  C   UNL     1      37.024 -23.832 -13.147  0.00  0.00    +0.011 C 
ATOM     16  C   UNL     1      36.737 -25.748 -14.590  0.00  0.00    +0.011 C 
ATOM     17  C   UNL     1      37.399 -25.117 -13.536  0.00  0.00    +0.058 C 
ENDBRANCH   1  12
BRANCH   1  18
ATOM     18  C   UNL     1      34.611 -22.709 -16.988  0.00  0.00    -0.038 C 
ATOM     19  C   UNL     1      33.727 -22.948 -18.021  0.00  0.00    -0.006 C 
ATOM     20  C   UNL     1      35.841 -22.120 -17.197  0.00  0.00    -0.006 C 
ATOM     21  C   UNL     1      34.089 -22.585 -19.317  0.00  0.00    -0.000 C 
ATOM     22  C   UNL     1      36.203 -21.755 -18.494  0.00  0.00    -0.000 C 
ATOM     23  C   UNL     1      35.328 -21.987 -19.554  0.00  0.00    -0.000 C 
ENDBRANCH   1  18
TORSDOF 3
ENDMDL
MODEL 2
REMARK VINA RESULT:      -8.3      1.466      4.648
REMARK  Name = 2710
REMARK  3 active torsions:
REMARK  status: ('A' for Active; 'I' for Inactive)
REMARK    1  A    between atoms: C_1  and  N_2
REMARK    2  A    between atoms: C_1  and  C_12
REMARK    3  A    between atoms: C_1  and  C_18
REMARK                            x       y       z     vdW  Elec       q    Type
REMARK                         _______ _______ _______ _____ _____    ______ ____
ROOT
ATOM      1  C   UNL     1      34.071 -24.054 -15.819  0.00  0.00    -0.012 C 
ENDROOT
BRANCH   1   2
ATOM      2  N   UNL     1      34.296 -22.975 -16.777  0.00  0.00    +0.390 N 
ATOM      3  N   UNL     1      35.280 -21.917 -19.282  0.00  0.00    +0.383 N 
ATOM      4  C   UNL     1      33.606 -23.248 -18.043  0.00  0.00    -0.100 C 
ATOM      5  C   UNL     1      35.732 -22.776 -17.010  0.00  0.00    -0.100 C 
ATOM      6  C   UNL     1      33.844 -22.116 -19.050  0.00  0.00    -0.101 C 
ATOM      7  C   UNL     1      35.971 -21.645 -18.016  0.00  0.00    -0.101 C 
ATOM      8  C   UNL     1      35.505 -20.836 -20.240  0.00  0.00    -0.101 C 
ATOM      9  H   UNL     1      33.913 -22.116 -16.381  0.00  0.00    -0.079 HD
ATOM     10  H   UNL     1      35.663 -22.774 -19.680  0.00  0.00    -0.080 HD
ENDBRANCH   1   2
BRANCH   1  12
ATOM     11 CL   UNL     1      38.607 -24.646 -11.933  0.00  0.00    -0.082 Cl
ATOM     12  C   UNL     1      35.220 -24.205 -14.834  0.00  0.00    -0.038 C 
ATOM     13  C   UNL     1      35.423 -23.218 -13.890  0.00  0.00    -0.005 C 
ATOM     14  C   UNL     1      36.026 -25.323 -14.913  0.00  0.00    -0.005 C 
ATOM     15  C   UNL     1      36.478 -23.355 -12.987  0.00  0.00    +0.011 C 
ATOM     16  C   UNL     1      37.080 -25.459 -14.010  0.00  0.00    +0.011 C 
ATOM     17  C   UNL     1      37.306 -24.476 -13.047  0.00  0.00    +0.058 C 
ENDBRANCH   1  12
BRANCH   1  18
ATOM     18  C   UNL     1      32.730 -23.928 -15.110  0.00  0.00    -0.038 C 
ATOM     19  C   UNL     1      31.941 -22.825 -15.364  0.00  0.00    -0.006 C 
ATOM     20  C   UNL     1      32.343 -24.922 -14.234  0.00  0.00    -0.006 C 
ATOM     21  C   UNL     1      30.712 -22.710 -14.714  0.00  0.00    -0.000 C 
ATOM     22  C   UNL     1      31.113 -24.807 -13.585  0.00  0.00    -0.000 C 
ATOM     23  C   UNL     1      30.298 -23.701 -13.824  0.00  0.00    -0.000 C 
ENDBRANCH   1  18
TORSDOF 3
ENDMDL
MODEL 3
REMARK VINA RESULT:      -8.3      2.482      5.590
REMARK  Name = 2710
REMARK  3 active torsions:
REMARK  status: ('A' for Active; 'I' for Inactive)
REMARK    1  A    between atoms: C_1  and  N_2
REMARK    2  A    between atoms: C_1  and  C_12
REMARK    3  A    between atoms: C_1  and  C_18
REMARK                            x       y       z     vdW  Elec       q    Type
REMARK                         _______ _______ _______ _____ _____    ______ ____
ROOT
ATOM      1  C   UNL     1      33.643 -23.319 -14.793  0.00  0.00    -0.012 C 
ENDROOT
BRANCH   1   2
ATOM      2  N   UNL     1      34.478 -24.324 -14.140  0.00  0.00    +0.390 N 
ATOM      3  N   UNL     1      36.993 -25.310 -13.111  0.00  0.00    +0.383 N 
ATOM      4  C   UNL     1      35.051 -23.798 -12.896  0.00  0.00    -0.100 C 
ATOM      5  C   UNL     1      35.543 -24.781 -15.041  0.00  0.00    -0.100 C 
ATOM      6  C   UNL     1      35.928 -24.852 -12.211  0.00  0.00    -0.101 C 
ATOM      7  C   UNL     1      36.421 -25.835 -14.357  0.00  0.00    -0.101 C 
ATOM      8  C   UNL     1      37.827 -26.317 -12.457  0.00  0.00    -0.101 C 
ATOM      9  H   UNL     1      33.887 -25.124 -13.910  0.00  0.00    -0.079 HD
ATOM     10  H   UNL     1      37.585 -24.512 -13.340  0.00  0.00    -0.080 HD
ENDBRANCH   1   2
BRANCH   1  12
ATOM     11 CL   UNL     1      35.694 -21.823 -20.233  0.00  0.00    -0.082 Cl
ATOM     12  C   UNL     1      34.163 -22.940 -16.173  0.00  0.00    -0.038 C 
ATOM     13  C   UNL     1      35.427 -22.397 -16.282  0.00  0.00    -0.005 C 
ATOM     14  C   UNL     1      33.355 -23.151 -17.272  0.00  0.00    -0.005 C 
ATOM     15  C   UNL     1      35.904 -22.049 -17.547  0.00  0.00    +0.011 C 
ATOM     16  C   UNL     1      33.832 -22.803 -18.535  0.00  0.00    +0.011 C 
ATOM     17  C   UNL     1      35.107 -22.252 -18.673  0.00  0.00    +0.058 C 
ENDBRANCH   1  12
BRANCH   1  18
ATOM     18  C   UNL     1      32.175 -23.721 -14.832  0.00  0.00    -0.038 C 
ATOM     19  C   UNL     1      31.825 -25.007 -14.475  0.00  0.00    -0.006 C 
ATOM     20  C   UNL     1      31.238 -22.786 -15.223  0.00  0.00    -0.006 C 
ATOM     21  C   UNL     1      30.481 -25.375 -14.510  0.00  0.00    -0.000 C 
ATOM     22  C   UNL     1      29.892 -23.154 -15.257  0.00  0.00    -0.000 C 
ATOM     23  C   UNL     1      29.514 -24.448 -14.901  0.00  0.00    -0.000 C 
ENDBRANCH   1  18
TORSDOF 3
ENDMDL
MODEL 4
REMARK VINA RESULT:      -8.3     10.264     13.005
REMARK  Name = 2710
REMARK  3 active torsions:
REMARK  status: ('A' for Active; 'I' for Inactive)
REMARK    1  A    between atoms: C_1  and  N_2
REMARK    2  A    between atoms: C_1  and  C_12
REMARK    3  A    between atoms: C_1  and  C_18
REMARK                            x       y       z     vdW  Elec       q    Type
REMARK                         _______ _______ _______ _____ _____    ______ ____
ROOT
ATOM      1  C   UNL     1      32.783 -14.294 -23.162  0.00  0.00    -0.012 C 
ENDROOT
BRANCH   1   2
ATOM      2  N   UNL     1      33.872 -15.132 -22.667  0.00  0.00    +0.390 N 
ATOM      3  N   UNL     1      35.095 -17.685 -22.074  0.00  0.00    +0.383 N 
ATOM      4  C   UNL     1      34.395 -15.993 -23.734  0.00  0.00    -0.100 C 
ATOM      5  C   UNL     1      33.429 -15.944 -21.527  0.00  0.00    -0.100 C 
ATOM      6  C   UNL     1      35.537 -16.874 -23.215  0.00  0.00    -0.101 C 
ATOM      7  C   UNL     1      34.570 -16.825 -21.006  0.00  0.00    -0.101 C 
ATOM      8  C   UNL     1      36.186 -18.522 -21.579  0.00  0.00    -0.101 C 
ATOM      9  H   UNL     1      34.624 -14.519 -22.351  0.00  0.00    -0.079 HD
ATOM     10  H   UNL     1      34.345 -18.300 -22.389  0.00  0.00    -0.080 HD
ENDBRANCH   1   2
BRANCH   1  12
ATOM     11 CL   UNL     1      30.884 -10.349 -19.056  0.00  0.00    -0.082 Cl
ATOM     12  C   UNL     1      32.301 -13.295 -22.120  0.00  0.00    -0.038 C 
ATOM     13  C   UNL     1      31.591 -12.187 -22.538  0.00  0.00    -0.005 C 
ATOM     14  C   UNL     1      32.589 -13.525 -20.790  0.00  0.00    -0.005 C 
ATOM     15  C   UNL     1      31.151 -11.269 -21.584  0.00  0.00    +0.011 C 
ATOM     16  C   UNL     1      32.147 -12.608 -19.837  0.00  0.00    +0.011 C 
ATOM     17  C   UNL     1      31.428 -11.480 -20.234  0.00  0.00    +0.058 C 
ENDBRANCH   1  12
BRANCH   1  18
ATOM     18  C   UNL     1      33.126 -13.617 -24.481  0.00  0.00    -0.038 C 
ATOM     19  C   UNL     1      32.745 -14.222 -25.661  0.00  0.00    -0.006 C 
ATOM     20  C   UNL     1      33.808 -12.417 -24.457  0.00  0.00    -0.006 C 
ATOM     21  C   UNL     1      33.060 -13.601 -26.870  0.00  0.00    -0.000 C 
ATOM     22  C   UNL     1      34.121 -11.795 -25.666  0.00  0.00    -0.000 C 
ATOM     23  C   UNL     1      33.748 -12.388 -26.873  0.00  0.00    -0.000 C 
ENDBRANCH   1  18
TORSDOF 3
ENDMDL
MODEL 5
REMARK VINA RESULT:      -8.1      6.355      9.024
REMARK  Name = 2710
REMARK  3 active torsions:
REMARK  status: ('A' for Active; 'I' for Inactive)
REMARK    1  A    between atoms: C_1  and  N_2
REMARK    2  A    between atoms: C_1  and  C_12
REMARK    3  A    between atoms: C_1  and  C_18
REMARK                            x       y       z     vdW  Elec       q    Type
REMARK                         _______ _______ _______ _____ _____    ______ ____
ROOT
ATOM      1  C   UNL     1      35.082 -17.905 -21.482  0.00  0.00    -0.012 C 
ENDROOT
BRANCH   1   2
ATOM      2  N   UNL     1      34.376 -16.774 -20.884  0.00  0.00    +0.390 N 
ATOM      3  N   UNL     1      32.860 -14.316 -21.028  0.00  0.00    +0.383 N 
ATOM      4  C   UNL     1      32.963 -16.772 -21.282  0.00  0.00    -0.100 C 
ATOM      5  C   UNL     1      35.013 -15.506 -21.257  0.00  0.00    -0.100 C 
ATOM      6  C   UNL     1      32.222 -15.585 -20.656  0.00  0.00    -0.101 C 
ATOM      7  C   UNL     1      34.274 -14.318 -20.632  0.00  0.00    -0.101 C 
ATOM      8  C   UNL     1      32.154 -13.186 -20.428  0.00  0.00    -0.101 C 
ATOM      9  H   UNL     1      34.424 -16.873 -19.870  0.00  0.00    -0.079 HD
ATOM     10  H   UNL     1      32.810 -14.216 -22.041  0.00  0.00    -0.080 HD
ENDBRANCH   1   2
BRANCH   1  12
ATOM     11 CL   UNL     1      33.794 -23.102 -18.768  0.00  0.00    -0.082 Cl
ATOM     12  C   UNL     1      34.755 -19.222 -20.793  0.00  0.00    -0.038 C 
ATOM     13  C   UNL     1      35.792 -20.035 -20.382  0.00  0.00    -0.005 C 
ATOM     14  C   UNL     1      33.432 -19.565 -20.601  0.00  0.00    -0.005 C 
ATOM     15  C   UNL     1      35.493 -21.243 -19.752  0.00  0.00    +0.011 C 
ATOM     16  C   UNL     1      33.133 -20.773 -19.971  0.00  0.00    +0.011 C 
ATOM     17  C   UNL     1      34.164 -21.612 -19.546  0.00  0.00    +0.058 C 
ENDBRANCH   1  12
BRANCH   1  18
ATOM     18  C   UNL     1      34.875 -17.987 -22.988  0.00  0.00    -0.038 C 
ATOM     19  C   UNL     1      34.913 -16.825 -23.731  0.00  0.00    -0.006 C 
ATOM     20  C   UNL     1      34.658 -19.221 -23.565  0.00  0.00    -0.006 C 
ATOM     21  C   UNL     1      34.724 -16.899 -25.110  0.00  0.00    -0.000 C 
ATOM     22  C   UNL     1      34.470 -19.296 -24.946  0.00  0.00    -0.000 C 
ATOM     23  C   UNL     1      34.502 -18.135 -25.719  0.00  0.00    -0.000 C 
ENDBRANCH   1  18
TORSDOF 3
ENDMDL
MODEL 6
REMARK VINA RESULT:      -8.0     14.485     16.961
REMARK  Name = 2710
REMARK  3 active torsions:
REMARK  status: ('A' for Active; 'I' for Inactive)
REMARK    1  A    between atoms: C_1  and  N_2
REMARK    2  A    between atoms: C_1  and  C_12
REMARK    3  A    between atoms: C_1  and  C_18
REMARK                            x       y       z     vdW  Elec       q    Type
REMARK                         _______ _______ _______ _____ _____    ______ ____
ROOT
ATOM      1  C   UNL     1      33.040  -9.933 -22.877  0.00  0.00    -0.012 C 
ENDROOT
BRANCH   1   2
ATOM      2  N   UNL     1      32.816 -11.035 -23.809  0.00  0.00    +0.390 N 
ATOM      3  N   UNL     1      33.629 -13.433 -25.207  0.00  0.00    +0.383 N 
ATOM      4  C   UNL     1      32.903 -12.328 -23.119  0.00  0.00    -0.100 C 
ATOM      5  C   UNL     1      33.776 -10.983 -24.919  0.00  0.00    -0.100 C 
ATOM      6  C   UNL     1      32.670 -13.485 -24.097  0.00  0.00    -0.101 C 
ATOM      7  C   UNL     1      33.545 -12.139 -25.897  0.00  0.00    -0.101 C 
ATOM      8  C   UNL     1      33.404 -14.535 -26.140  0.00  0.00    -0.101 C 
ATOM      9  H   UNL     1      31.876 -10.938 -24.194  0.00  0.00    -0.079 HD
ATOM     10  H   UNL     1      34.569 -13.532 -24.824  0.00  0.00    -0.080 HD
ENDBRANCH   1   2
BRANCH   1  12
ATOM     11 CL   UNL     1      32.127  -4.570 -25.414  0.00  0.00    -0.082 Cl
ATOM     12  C   UNL     1      32.808  -8.573 -23.521  0.00  0.00    -0.038 C 
ATOM     13  C   UNL     1      33.899  -7.781 -23.817  0.00  0.00    -0.005 C 
ATOM     14  C   UNL     1      31.515  -8.173 -23.789  0.00  0.00    -0.005 C 
ATOM     15  C   UNL     1      33.687  -6.534 -24.405  0.00  0.00    +0.011 C 
ATOM     16  C   UNL     1      31.303  -6.927 -24.378  0.00  0.00    +0.011 C 
ATOM     17  C   UNL     1      32.390  -6.107 -24.687  0.00  0.00    +0.058 C 
ENDBRANCH   1  12
BRANCH   1  18
ATOM     18  C   UNL     1      32.245 -10.092 -21.589  0.00  0.00    -0.038 C 
ATOM     19  C   UNL     1      31.273 -11.070 -21.521  0.00  0.00    -0.006 C 
ATOM     20  C   UNL     1      32.519  -9.255 -20.528  0.00  0.00    -0.006 C 
ATOM     21  C   UNL     1      30.544 -11.217 -20.342  0.00  0.00    -0.000 C 
ATOM     22  C   UNL     1      31.791  -9.402 -19.346  0.00  0.00    -0.000 C 
ATOM     23  C   UNL     1      30.803 -10.383 -19.253  0.00  0.00    -0.000 C 
ENDBRANCH   1  18
TORSDOF 3
ENDMDL
MODEL 7
REMARK VINA RESULT:      -7.9      2.664      5.971
REMARK  Name = 2710
REMARK  3 active torsions:
REMARK  status: ('A' for Active; 'I' for Inactive)
REMARK    1  A    between atoms: C_1  and  N_2
REMARK    2  A    between atoms: C_1  and  C_12
REMARK    3  A    between atoms: C_1  and  C_18
REMARK                            x       y       z     vdW  Elec       q    Type
REMARK                         _______ _______ _______ _____ _____    ______ ____
ROOT
ATOM      1  C   UNL     1      34.670 -23.266 -14.919  0.00  0.00    -0.012 C 
ENDROOT
BRANCH   1   2
ATOM      2  N   UNL     1      35.153 -23.108 -16.289  0.00  0.00    +0.390 N 
ATOM      3  N   UNL     1      35.572 -21.591 -18.714  0.00  0.00    +0.383 N 
ATOM      4  C   UNL     1      36.176 -22.059 -16.364  0.00  0.00    -0.100 C 
ATOM      5  C   UNL     1      34.043 -22.807 -17.201  0.00  0.00    -0.100 C 
ATOM      6  C   UNL     1      36.682 -21.892 -17.802  0.00  0.00    -0.101 C 
ATOM      7  C   UNL     1      34.547 -22.640 -18.638  0.00  0.00    -0.101 C 
ATOM      8  C   UNL     1      36.055 -21.436 -20.085  0.00  0.00    -0.101 C 
ATOM      9  H   UNL     1      35.575 -23.991 -16.578  0.00  0.00    -0.079 HD
ATOM     10  H   UNL     1      35.150 -20.708 -18.428  0.00  0.00    -0.080 HD
ENDBRANCH   1   2
BRANCH   1  12
ATOM     11 CL   UNL     1      28.932 -25.013 -14.701  0.00  0.00    -0.082 Cl
ATOM     12  C   UNL     1      33.216 -23.710 -14.864  0.00  0.00    -0.038 C 
ATOM     13  C   UNL     1      32.285 -23.042 -15.635  0.00  0.00    -0.005 C 
ATOM     14  C   UNL     1      32.870 -24.765 -14.045  0.00  0.00    -0.005 C 
ATOM     15  C   UNL     1      30.951 -23.447 -15.584  0.00  0.00    +0.011 C 
ATOM     16  C   UNL     1      31.536 -25.171 -13.995  0.00  0.00    +0.011 C 
ATOM     17  C   UNL     1      30.577 -24.512 -14.764  0.00  0.00    +0.058 C 
ENDBRANCH   1  12
BRANCH   1  18
ATOM     18  C   UNL     1      35.570 -24.170 -14.088  0.00  0.00    -0.038 C 
ATOM     19  C   UNL     1      35.809 -23.843 -12.769  0.00  0.00    -0.006 C 
ATOM     20  C   UNL     1      36.118 -25.290 -14.678  0.00  0.00    -0.006 C 
ATOM     21  C   UNL     1      36.633 -24.671 -12.007  0.00  0.00    -0.000 C 
ATOM     22  C   UNL     1      36.942 -26.120 -13.916  0.00  0.00    -0.000 C 
ATOM     23  C   UNL     1      37.200 -25.810 -12.581  0.00  0.00    -0.000 C 
ENDBRANCH   1  18
TORSDOF 3
ENDMDL
MODEL 8
REMARK VINA RESULT:      -7.8     11.949     14.305
REMARK  Name = 2710
REMARK  3 active torsions:
REMARK  status: ('A' for Active; 'I' for Inactive)
REMARK    1  A    between atoms: C_1  and  N_2
REMARK    2  A    between atoms: C_1  and  C_12
REMARK    3  A    between atoms: C_1  and  C_18
REMARK                            x       y       z     vdW  Elec       q    Type
REMARK                         _______ _______ _______ _____ _____    ______ ____
ROOT
ATOM      1  C   UNL     1      32.594 -12.578 -24.069  0.00  0.00    -0.012 C 
ENDROOT
BRANCH   1   2
ATOM      2  N   UNL     1      32.934 -13.997 -24.125  0.00  0.00    +0.390 N 
ATOM      3  N   UNL     1      34.589 -16.220 -24.951  0.00  0.00    +0.383 N 
ATOM      4  C   UNL     1      34.240 -14.247 -23.504  0.00  0.00    -0.100 C 
ATOM      5  C   UNL     1      32.926 -14.480 -25.512  0.00  0.00    -0.100 C 
ATOM      6  C   UNL     1      34.598 -15.736 -23.565  0.00  0.00    -0.101 C 
ATOM      7  C   UNL     1      33.283 -15.969 -25.574  0.00  0.00    -0.101 C 
ATOM      8  C   UNL     1      34.928 -17.641 -25.007  0.00  0.00    -0.101 C 
ATOM      9  H   UNL     1      32.225 -14.512 -23.602  0.00  0.00    -0.079 HD
ATOM     10  H   UNL     1      35.299 -15.707 -25.474  0.00  0.00    -0.080 HD
ENDBRANCH   1   2
BRANCH   1  12
ATOM     11 CL   UNL     1      31.177 -10.783 -18.519  0.00  0.00    -0.082 Cl
ATOM     12  C   UNL     1      32.235 -12.123 -22.661  0.00  0.00    -0.038 C 
ATOM     13  C   UNL     1      31.884 -10.804 -22.456  0.00  0.00    -0.005 C 
ATOM     14  C   UNL     1      32.270 -13.043 -21.633  0.00  0.00    -0.005 C 
ATOM     15  C   UNL     1      31.555 -10.387 -21.166  0.00  0.00    +0.011 C 
ATOM     16  C   UNL     1      31.941 -12.626 -20.344  0.00  0.00    +0.011 C 
ATOM     17  C   UNL     1      31.583 -11.297 -20.110  0.00  0.00    +0.058 C 
ENDBRANCH   1  12
BRANCH   1  18
ATOM     18  C   UNL     1      33.671 -11.699 -24.689  0.00  0.00    -0.038 C 
ATOM     19  C   UNL     1      34.041 -11.922 -26.000  0.00  0.00    -0.006 C 
ATOM     20  C   UNL     1      34.245 -10.705 -23.923  0.00  0.00    -0.006 C 
ATOM     21  C   UNL     1      35.028 -11.117 -26.569  0.00  0.00    -0.000 C 
ATOM     22  C   UNL     1      35.231  -9.899 -24.493  0.00  0.00    -0.000 C 
ATOM     23  C   UNL     1      35.623 -10.105 -25.815  0.00  0.00    -0.000 C 
ENDBRANCH   1  18
TORSDOF 3
ENDMDL
MODEL 9
REMARK VINA RESULT:      -7.7      2.854      5.197
REMARK  Name = 2710
REMARK  3 active torsions:
REMARK  status: ('A' for Active; 'I' for Inactive)
REMARK    1  A    between atoms: C_1  and  N_2
REMARK    2  A    between atoms: C_1  and  C_12
REMARK    3  A    between atoms: C_1  and  C_18
REMARK                            x       y       z     vdW  Elec       q    Type
REMARK                         _______ _______ _______ _____ _____    ______ ____
ROOT
ATOM      1  C   UNL     1      34.281 -23.967 -16.039  0.00  0.00    -0.012 C 
ENDROOT
BRANCH   1   2
ATOM      2  N   UNL     1      35.030 -24.222 -14.811  0.00  0.00    +0.390 N 
ATOM      3  N   UNL     1      37.460 -24.312 -13.247  0.00  0.00    +0.383 N 
ATOM      4  C   UNL     1      35.670 -22.994 -14.326  0.00  0.00    -0.100 C 
ATOM      5  C   UNL     1      36.033 -25.273 -15.021  0.00  0.00    -0.100 C 
ATOM      6  C   UNL     1      36.457 -23.261 -13.038  0.00  0.00    -0.101 C 
ATOM      7  C   UNL     1      36.820 -25.541 -13.734  0.00  0.00    -0.101 C 
ATOM      8  C   UNL     1      38.207 -24.568 -12.017  0.00  0.00    -0.101 C 
ATOM      9  H   UNL     1      34.371 -24.544 -14.101  0.00  0.00    -0.079 HD
ATOM     10  H   UNL     1      38.120 -23.990 -13.955  0.00  0.00    -0.080 HD
ENDBRANCH   1   2
BRANCH   1  12
ATOM     11 CL   UNL     1      28.673 -22.119 -14.956  0.00  0.00    -0.082 Cl
ATOM     12  C   UNL     1      32.859 -23.498 -15.765  0.00  0.00    -0.038 C 
ATOM     13  C   UNL     1      32.439 -23.375 -14.457  0.00  0.00    -0.005 C 
ATOM     14  C   UNL     1      32.033 -23.210 -16.833  0.00  0.00    -0.005 C 
ATOM     15  C   UNL     1      31.135 -22.946 -14.204  0.00  0.00    +0.011 C 
ATOM     16  C   UNL     1      30.731 -22.781 -16.581  0.00  0.00    +0.011 C 
ATOM     17  C   UNL     1      30.282 -22.649 -15.266  0.00  0.00    +0.058 C 
ENDBRANCH   1  12
BRANCH   1  18
ATOM     18  C   UNL     1      35.016 -23.025 -16.982  0.00  0.00    -0.038 C 
ATOM     19  C   UNL     1      34.436 -22.704 -18.192  0.00  0.00    -0.006 C 
ATOM     20  C   UNL     1      36.241 -22.518 -16.597  0.00  0.00    -0.006 C 
ATOM     21  C   UNL     1      35.110 -21.841 -19.055  0.00  0.00    -0.000 C 
ATOM     22  C   UNL     1      36.915 -21.653 -17.460  0.00  0.00    -0.000 C 
ATOM     23  C   UNL     1      36.349 -21.315 -18.690  0.00  0.00    -0.000 C 
ENDBRANCH   1  18
TORSDOF 3
ENDMDL
