MODEL 1
REMARK VINA RESULT:      -6.0      0.000      0.000
REMARK  Name = 159055
REMARK  0 active torsions:
REMARK  status: ('A' for Active; 'I' for Inactive)
REMARK                            x       y       z     vdW  Elec       q    Type
REMARK                         _______ _______ _______ _____ _____    ______ ____
ROOT
ATOM      1  O   UNL     1      37.170 -26.416 -11.702  0.00  0.00    -0.296 OA
ATOM      2  C   UNL     1      37.825 -24.639 -14.641  0.00  0.00    +0.007 C 
ATOM      3  C   UNL     1      37.075 -24.535 -13.284  0.00  0.00    +0.052 C 
ATOM      4  C   UNL     1      36.889 -25.769 -15.150  0.00  0.00    +0.008 C 
ATOM      5  C   UNL     1      35.600 -24.321 -13.692  0.00  0.00    +0.007 C 
ATOM      6  C   UNL     1      35.477 -25.150 -14.989  0.00  0.00    +0.001 C 
ATOM      7  C   UNL     1      37.024 -26.885 -14.083  0.00  0.00    +0.064 C 
ATOM      8  C   UNL     1      37.108 -26.005 -12.851  0.00  0.00    +0.150 C 
ATOM      9  C   UNL     1      37.786 -23.363 -15.504  0.00  0.00    +0.000 C 
ATOM     10  C   UNL     1      39.310 -25.045 -14.525  0.00  0.00    +0.000 C 
ATOM     11  C   UNL     1      37.603 -23.564 -12.256  0.00  0.00    +0.007 C 
ENDROOT
TORSDOF 0
ENDMDL
MODEL 2
REMARK VINA RESULT:      -6.0      1.536      3.013
REMARK  Name = 159055
REMARK  0 active torsions:
REMARK  status: ('A' for Active; 'I' for Inactive)
REMARK                            x       y       z     vdW  Elec       q    Type
REMARK                         _______ _______ _______ _____ _____    ______ ____
ROOT
ATOM      1  O   UNL     1      36.143 -26.479 -15.794  0.00  0.00    -0.296 OA
ATOM      2  C   UNL     1      36.930 -24.474 -13.041  0.00  0.00    +0.007 C 
ATOM      3  C   UNL     1      37.117 -24.575 -14.580  0.00  0.00    +0.052 C 
ATOM      4  C   UNL     1      37.805 -25.732 -12.784  0.00  0.00    +0.008 C 
ATOM      5  C   UNL     1      38.651 -24.616 -14.765  0.00  0.00    +0.007 C 
ATOM      6  C   UNL     1      39.128 -25.391 -13.517  0.00  0.00    +0.001 C 
ATOM      7  C   UNL     1      37.107 -26.853 -13.594  0.00  0.00    +0.064 C 
ATOM      8  C   UNL     1      36.698 -26.032 -14.801  0.00  0.00    +0.150 C 
ATOM      9  C   UNL     1      37.488 -23.187 -12.401  0.00  0.00    +0.000 C 
ATOM     10  C   UNL     1      35.470 -24.605 -12.560  0.00  0.00    +0.000 C 
ATOM     11  C   UNL     1      36.394 -23.573 -15.447  0.00  0.00    +0.007 C 
ENDROOT
TORSDOF 0
ENDMDL
MODEL 3
REMARK VINA RESULT:      -5.8      1.130      2.618
REMARK  Name = 159055
REMARK  0 active torsions:
REMARK  status: ('A' for Active; 'I' for Inactive)
REMARK                            x       y       z     vdW  Elec       q    Type
REMARK                         _______ _______ _______ _____ _____    ______ ____
ROOT
ATOM      1  O   UNL     1      36.996 -26.743 -11.827  0.00  0.00    -0.296 OA
ATOM      2  C   UNL     1      36.788 -24.018 -14.008  0.00  0.00    +0.007 C 
ATOM      3  C   UNL     1      37.800 -24.842 -13.164  0.00  0.00    +0.052 C 
ATOM      4  C   UNL     1      36.072 -23.473 -12.742  0.00  0.00    +0.008 C 
ATOM      5  C   UNL     1      38.414 -23.799 -12.202  0.00  0.00    +0.007 C 
ATOM      6  C   UNL     1      37.232 -22.843 -11.929  0.00  0.00    +0.001 C 
ATOM      7  C   UNL     1      35.619 -24.745 -11.983  0.00  0.00    +0.064 C 
ATOM      8  C   UNL     1      36.827 -25.615 -12.267  0.00  0.00    +0.150 C 
ATOM      9  C   UNL     1      37.417 -22.920 -14.888  0.00  0.00    +0.000 C 
ATOM     10  C   UNL     1      35.888 -24.862 -14.936  0.00  0.00    +0.000 C 
ATOM     11  C   UNL     1      38.799 -25.702 -13.899  0.00  0.00    +0.007 C 
ENDROOT
TORSDOF 0
ENDMDL
MODEL 4
REMARK VINA RESULT:      -5.7     18.697     20.101
REMARK  Name = 159055
REMARK  0 active torsions:
REMARK  status: ('A' for Active; 'I' for Inactive)
REMARK                            x       y       z     vdW  Elec       q    Type
REMARK                         _______ _______ _______ _____ _____    ______ ____
ROOT
ATOM      1  O   UNL     1      33.793  -9.894 -24.188  0.00  0.00    -0.296 OA
ATOM      2  C   UNL     1      31.940  -7.143 -23.085  0.00  0.00    +0.007 C 
ATOM      3  C   UNL     1      33.397  -7.649 -23.264  0.00  0.00    +0.052 C 
ATOM      4  C   UNL     1      31.636  -8.198 -21.986  0.00  0.00    +0.008 C 
ATOM      5  C   UNL     1      33.983  -7.605 -21.834  0.00  0.00    +0.007 C 
ATOM      6  C   UNL     1      32.766  -7.958 -20.951  0.00  0.00    +0.001 C 
ATOM      7  C   UNL     1      31.923  -9.556 -22.672  0.00  0.00    +0.064 C 
ATOM      8  C   UNL     1      33.132  -9.142 -23.487  0.00  0.00    +0.150 C 
ATOM      9  C   UNL     1      31.813  -5.685 -22.600  0.00  0.00    +0.000 C 
ATOM     10  C   UNL     1      31.057  -7.264 -24.345  0.00  0.00    +0.000 C 
ATOM     11  C   UNL     1      34.248  -6.995 -24.325  0.00  0.00    +0.007 C 
ENDROOT
TORSDOF 0
ENDMDL
MODEL 5
REMARK VINA RESULT:      -5.7      1.455      2.667
REMARK  Name = 159055
REMARK  0 active torsions:
REMARK  status: ('A' for Active; 'I' for Inactive)
REMARK                            x       y       z     vdW  Elec       q    Type
REMARK                         _______ _______ _______ _____ _____    ______ ____
ROOT
ATOM      1  O   UNL     1      39.792 -24.768 -13.816  0.00  0.00    -0.296 OA
ATOM      2  C   UNL     1      36.335 -25.154 -14.169  0.00  0.00    +0.007 C 
ATOM      3  C   UNL     1      37.457 -24.080 -14.170  0.00  0.00    +0.052 C 
ATOM      4  C   UNL     1      36.542 -25.467 -12.661  0.00  0.00    +0.008 C 
ATOM      5  C   UNL     1      37.056 -23.124 -13.024  0.00  0.00    +0.007 C 
ATOM      6  C   UNL     1      36.404 -24.074 -11.995  0.00  0.00    +0.001 C 
ATOM      7  C   UNL     1      38.032 -25.878 -12.558  0.00  0.00    +0.064 C 
ATOM      8  C   UNL     1      38.604 -24.895 -13.561  0.00  0.00    +0.150 C 
ATOM      9  C   UNL     1      34.928 -24.625 -14.507  0.00  0.00    +0.000 C 
ATOM     10  C   UNL     1      36.590 -26.352 -15.108  0.00  0.00    +0.000 C 
ATOM     11  C   UNL     1      37.790 -23.407 -15.479  0.00  0.00    +0.007 C 
ENDROOT
TORSDOF 0
ENDMDL
MODEL 6
REMARK VINA RESULT:      -5.7      1.578      3.039
REMARK  Name = 159055
REMARK  0 active torsions:
REMARK  status: ('A' for Active; 'I' for Inactive)
REMARK                            x       y       z     vdW  Elec       q    Type
REMARK                         _______ _______ _______ _____ _____    ______ ____
ROOT
ATOM      1  O   UNL     1      39.079 -24.518 -15.003  0.00  0.00    -0.296 OA
ATOM      2  C   UNL     1      36.178 -23.875 -13.160  0.00  0.00    +0.007 C 
ATOM      3  C   UNL     1      36.954 -25.018 -13.870  0.00  0.00    +0.052 C 
ATOM      4  C   UNL     1      35.873 -23.156 -14.503  0.00  0.00    +0.008 C 
ATOM      5  C   UNL     1      35.955 -25.543 -14.926  0.00  0.00    +0.007 C 
ATOM      6  C   UNL     1      35.193 -24.266 -15.346  0.00  0.00    +0.001 C 
ATOM      7  C   UNL     1      37.268 -22.899 -15.124  0.00  0.00    +0.064 C 
ATOM      8  C   UNL     1      37.940 -24.191 -14.702  0.00  0.00    +0.150 C 
ATOM      9  C   UNL     1      34.918 -24.322 -12.394  0.00  0.00    +0.000 C 
ATOM     10  C   UNL     1      37.021 -23.043 -12.170  0.00  0.00    +0.000 C 
ATOM     11  C   UNL     1      37.592 -26.081 -13.009  0.00  0.00    +0.007 C 
ENDROOT
TORSDOF 0
ENDMDL
MODEL 7
REMARK VINA RESULT:      -5.5      9.290     10.796
REMARK  Name = 159055
REMARK  0 active torsions:
REMARK  status: ('A' for Active; 'I' for Inactive)
REMARK                            x       y       z     vdW  Elec       q    Type
REMARK                         _______ _______ _______ _____ _____    ______ ____
ROOT
ATOM      1  O   UNL     1      35.525 -20.237 -20.092  0.00  0.00    -0.296 OA
ATOM      2  C   UNL     1      34.718 -17.331 -21.860  0.00  0.00    +0.007 C 
ATOM      3  C   UNL     1      34.257 -18.797 -21.631  0.00  0.00    +0.052 C 
ATOM      4  C   UNL     1      36.029 -17.781 -22.561  0.00  0.00    +0.008 C 
ATOM      5  C   UNL     1      34.314 -19.428 -23.040  0.00  0.00    +0.007 C 
ATOM      6  C   UNL     1      35.518 -18.712 -23.690  0.00  0.00    +0.001 C 
ATOM      7  C   UNL     1      36.733 -18.677 -21.512  0.00  0.00    +0.064 C 
ATOM      8  C   UNL     1      35.506 -19.362 -20.944  0.00  0.00    +0.150 C 
ATOM      9  C   UNL     1      33.789 -16.491 -22.758  0.00  0.00    +0.000 C 
ATOM     10  C   UNL     1      34.934 -16.515 -20.568  0.00  0.00    +0.000 C 
ATOM     11  C   UNL     1      32.968 -19.024 -20.879  0.00  0.00    +0.007 C 
ENDROOT
TORSDOF 0
ENDMDL
MODEL 8
REMARK VINA RESULT:      -5.5     18.532     20.060
REMARK  Name = 159055
REMARK  0 active torsions:
REMARK  status: ('A' for Active; 'I' for Inactive)
REMARK                            x       y       z     vdW  Elec       q    Type
REMARK                         _______ _______ _______ _____ _____    ______ ____
ROOT
ATOM      1  O   UNL     1      32.185  -8.814 -20.470  0.00  0.00    -0.296 OA
ATOM      2  C   UNL     1      33.144  -7.337 -23.490  0.00  0.00    +0.007 C 
ATOM      3  C   UNL     1      32.190  -7.148 -22.279  0.00  0.00    +0.052 C 
ATOM      4  C   UNL     1      32.386  -8.602 -23.977  0.00  0.00    +0.008 C 
ATOM      5  C   UNL     1      30.782  -7.122 -22.917  0.00  0.00    +0.007 C 
ATOM      6  C   UNL     1      30.922  -8.105 -24.100  0.00  0.00    +0.001 C 
ATOM      7  C   UNL     1      32.441  -9.568 -22.767  0.00  0.00    +0.064 C 
ATOM      8  C   UNL     1      32.268  -8.548 -21.660  0.00  0.00    +0.150 C 
ATOM      9  C   UNL     1      33.141  -6.180 -24.508  0.00  0.00    +0.000 C 
ATOM     10  C   UNL     1      34.620  -7.585 -23.114  0.00  0.00    +0.000 C 
ATOM     11  C   UNL     1      32.480  -6.018 -21.320  0.00  0.00    +0.007 C 
ENDROOT
TORSDOF 0
ENDMDL
MODEL 9
REMARK VINA RESULT:      -5.5      1.373      2.726
REMARK  Name = 159055
REMARK  0 active torsions:
REMARK  status: ('A' for Active; 'I' for Inactive)
REMARK                            x       y       z     vdW  Elec       q    Type
REMARK                         _______ _______ _______ _____ _____    ______ ____
ROOT
ATOM      1  O   UNL     1      38.640 -23.155 -11.771  0.00  0.00    -0.296 OA
ATOM      2  C   UNL     1      36.975 -25.556 -13.691  0.00  0.00    +0.007 C 
ATOM      3  C   UNL     1      38.120 -24.507 -13.758  0.00  0.00    +0.052 C 
ATOM      4  C   UNL     1      35.887 -24.458 -13.533  0.00  0.00    +0.008 C 
ATOM      5  C   UNL     1      37.681 -23.552 -14.892  0.00  0.00    +0.007 C 
ATOM      6  C   UNL     1      36.143 -23.536 -14.753  0.00  0.00    +0.001 C 
ATOM      7  C   UNL     1      36.318 -23.674 -12.268  0.00  0.00    +0.064 C 
ATOM      8  C   UNL     1      37.817 -23.705 -12.488  0.00  0.00    +0.150 C 
ATOM      9  C   UNL     1      36.809 -26.418 -14.958  0.00  0.00    +0.000 C 
ATOM     10  C   UNL     1      37.069 -26.535 -12.503  0.00  0.00    +0.000 C 
ATOM     11  C   UNL     1      39.538 -25.014 -13.861  0.00  0.00    +0.007 C 
ENDROOT
TORSDOF 0
ENDMDL
