MODEL 1
REMARK VINA RESULT:      -7.8      0.000      0.000
REMARK  Name = 3311
REMARK  5 active torsions:
REMARK  status: ('A' for Active; 'I' for Inactive)
REMARK    1  A    between atoms: C_1  and  C_18
REMARK    2  A    between atoms: C_2  and  N_7
REMARK    3  A    between atoms: N_7  and  C_9
REMARK    4  A    between atoms: C_9  and  S_12
REMARK    5  A    between atoms: S_12  and  C_13
REMARK                            x       y       z     vdW  Elec       q    Type
REMARK                         _______ _______ _______ _____ _____    ______ ____
ROOT
ATOM      1  C   UNL     1      34.858 -19.981 -20.651  0.00  0.00    +0.072 C 
ATOM      2  C   UNL     1      34.084 -22.233 -19.199  0.00  0.00    +0.073 C 
ATOM      3  C   UNL     1      35.824 -20.857 -20.157  0.00  0.00    +0.005 C 
ATOM      4  C   UNL     1      33.506 -20.230 -20.420  0.00  0.00    +0.005 C 
ATOM      5  C   UNL     1      35.438 -21.983 -19.430  0.00  0.00    +0.017 C 
ATOM      6  C   UNL     1      33.118 -21.357 -19.694  0.00  0.00    +0.017 C 
ENDROOT
BRANCH   1  10
ATOM      7  F   UNL     1      34.945 -18.876 -22.742  0.00  0.00    -0.166 F 
ATOM      8  F   UNL     1      34.691 -17.639 -20.972  0.00  0.00    -0.166 F 
ATOM      9  F   UNL     1      36.613 -18.589 -21.367  0.00  0.00    -0.166 F 
ATOM     10  C   UNL     1      35.271 -18.776 -21.429  0.00  0.00    +0.419 C 
ENDBRANCH   1  10
BRANCH   2  11
ATOM     11  N   UNL     1      33.696 -23.363 -18.470  0.00  0.00    -0.191 NA
BRANCH  11  13
ATOM     12  N   UNL     1      34.511 -23.154 -16.206  0.00  0.00    -0.380 N 
ATOM     13  C   UNL     1      33.551 -23.253 -17.182  0.00  0.00    +0.150 C 
ATOM     14  H   UNL     1      34.246 -23.076 -15.262  0.00  0.00    +0.158 HD
ATOM     15  H   UNL     1      35.464 -23.162 -16.452  0.00  0.00    +0.158 HD
BRANCH  13  16
ATOM     16  S   UNL     1      31.901 -23.200 -16.529  0.00  0.00    -0.081 S 
BRANCH  16  17
ATOM     17  C   UNL     1      32.203 -23.534 -14.780  0.00  0.00    +0.065 C 
ATOM     18  C   UNL     1      30.915 -23.418 -13.986  0.00  0.00    +0.013 C 
ENDBRANCH  16  17
ENDBRANCH  13  16
ENDBRANCH  11  13
ENDBRANCH   2  11
TORSDOF 5
ENDMDL
MODEL 2
REMARK VINA RESULT:      -7.8      4.794      6.535
REMARK  Name = 3311
REMARK  5 active torsions:
REMARK  status: ('A' for Active; 'I' for Inactive)
REMARK    1  A    between atoms: C_1  and  C_18
REMARK    2  A    between atoms: C_2  and  N_7
REMARK    3  A    between atoms: N_7  and  C_9
REMARK    4  A    between atoms: C_9  and  S_12
REMARK    5  A    between atoms: S_12  and  C_13
REMARK                            x       y       z     vdW  Elec       q    Type
REMARK                         _______ _______ _______ _____ _____    ______ ____
ROOT
ATOM      1  C   UNL     1      34.484 -21.272 -19.643  0.00  0.00    +0.072 C 
ATOM      2  C   UNL     1      35.417 -19.099 -21.121  0.00  0.00    +0.073 C 
ATOM      3  C   UNL     1      35.856 -21.055 -19.774  0.00  0.00    +0.005 C 
ATOM      4  C   UNL     1      33.579 -20.403 -20.252  0.00  0.00    +0.005 C 
ATOM      5  C   UNL     1      36.323 -19.968 -20.513  0.00  0.00    +0.017 C 
ATOM      6  C   UNL     1      34.046 -19.315 -20.991  0.00  0.00    +0.017 C 
ENDROOT
BRANCH   1  10
ATOM      7  F   UNL     1      33.948 -23.575 -19.585  0.00  0.00    -0.166 F 
ATOM      8  F   UNL     1      34.758 -22.695 -17.769  0.00  0.00    -0.166 F 
ATOM      9  F   UNL     1      32.727 -22.214 -18.397  0.00  0.00    -0.166 F 
ATOM     10  C   UNL     1      33.985 -22.434 -18.852  0.00  0.00    +0.419 C 
ENDBRANCH   1  10
BRANCH   2  11
ATOM     11  N   UNL     1      35.885 -18.008 -21.863  0.00  0.00    -0.191 NA
BRANCH  11  13
ATOM     12  N   UNL     1      35.087 -18.489 -24.092  0.00  0.00    -0.380 N 
ATOM     13  C   UNL     1      35.285 -17.711 -22.978  0.00  0.00    +0.150 C 
ATOM     14  H   UNL     1      34.609 -18.122 -24.869  0.00  0.00    +0.158 HD
ATOM     15  H   UNL     1      35.424 -19.414 -24.111  0.00  0.00    +0.158 HD
BRANCH  13  16
ATOM     16  S   UNL     1      34.585 -16.088 -23.143  0.00  0.00    -0.081 S 
BRANCH  16  17
ATOM     17  C   UNL     1      34.494 -15.564 -21.417  0.00  0.00    +0.065 C 
ATOM     18  C   UNL     1      33.061 -15.613 -20.920  0.00  0.00    +0.013 C 
ENDBRANCH  16  17
ENDBRANCH  13  16
ENDBRANCH  11  13
ENDBRANCH   2  11
TORSDOF 5
ENDMDL
MODEL 3
REMARK VINA RESULT:      -7.7      4.854      6.883
REMARK  Name = 3311
REMARK  5 active torsions:
REMARK  status: ('A' for Active; 'I' for Inactive)
REMARK    1  A    between atoms: C_1  and  C_18
REMARK    2  A    between atoms: C_2  and  N_7
REMARK    3  A    between atoms: N_7  and  C_9
REMARK    4  A    between atoms: C_9  and  S_12
REMARK    5  A    between atoms: S_12  and  C_13
REMARK                            x       y       z     vdW  Elec       q    Type
REMARK                         _______ _______ _______ _____ _____    ______ ____
ROOT
ATOM      1  C   UNL     1      34.548 -21.097 -19.808  0.00  0.00    +0.072 C 
ATOM      2  C   UNL     1      35.311 -18.887 -21.330  0.00  0.00    +0.073 C 
ATOM      3  C   UNL     1      35.899 -20.778 -19.945  0.00  0.00    +0.005 C 
ATOM      4  C   UNL     1      33.579 -20.312 -20.432  0.00  0.00    +0.005 C 
ATOM      5  C   UNL     1      36.281 -19.673 -20.706  0.00  0.00    +0.017 C 
ATOM      6  C   UNL     1      33.960 -19.206 -21.193  0.00  0.00    +0.017 C 
ENDROOT
BRANCH   1  10
ATOM      7  F   UNL     1      34.102 -23.419 -19.727  0.00  0.00    -0.166 F 
ATOM      8  F   UNL     1      34.985 -22.513 -17.959  0.00  0.00    -0.166 F 
ATOM      9  F   UNL     1      32.904 -22.106 -18.464  0.00  0.00    -0.166 F 
ATOM     10  C   UNL     1      34.140 -22.278 -18.993  0.00  0.00    +0.419 C 
ENDBRANCH   1  10
BRANCH   2  11
ATOM     11  N   UNL     1      35.693 -17.779 -22.094  0.00  0.00    -0.191 NA
BRANCH  11  13
ATOM     12  N   UNL     1      34.811 -15.895 -20.866  0.00  0.00    -0.380 N 
ATOM     13  C   UNL     1      35.011 -16.678 -21.976  0.00  0.00    +0.150 C 
ATOM     14  H   UNL     1      34.265 -15.080 -20.931  0.00  0.00    +0.158 HD
ATOM     15  H   UNL     1      35.216 -16.151 -20.005  0.00  0.00    +0.158 HD
BRANCH  13  16
ATOM     16  S   UNL     1      34.214 -16.029 -23.424  0.00  0.00    -0.081 S 
BRANCH  16  17
ATOM     17  C   UNL     1      35.013 -16.991 -24.728  0.00  0.00    +0.065 C 
ATOM     18  C   UNL     1      34.174 -18.204 -25.084  0.00  0.00    +0.013 C 
ENDBRANCH  16  17
ENDBRANCH  13  16
ENDBRANCH  11  13
ENDBRANCH   2  11
TORSDOF 5
ENDMDL
MODEL 4
REMARK VINA RESULT:      -7.7      4.787      6.655
REMARK  Name = 3311
REMARK  5 active torsions:
REMARK  status: ('A' for Active; 'I' for Inactive)
REMARK    1  A    between atoms: C_1  and  C_18
REMARK    2  A    between atoms: C_2  and  N_7
REMARK    3  A    between atoms: N_7  and  C_9
REMARK    4  A    between atoms: C_9  and  S_12
REMARK    5  A    between atoms: S_12  and  C_13
REMARK                            x       y       z     vdW  Elec       q    Type
REMARK                         _______ _______ _______ _____ _____    ______ ____
ROOT
ATOM      1  C   UNL     1      34.418 -21.288 -19.646  0.00  0.00    +0.072 C 
ATOM      2  C   UNL     1      35.369 -19.190 -21.218  0.00  0.00    +0.073 C 
ATOM      3  C   UNL     1      33.521 -20.408 -20.250  0.00  0.00    +0.005 C 
ATOM      4  C   UNL     1      35.791 -21.119 -19.826  0.00  0.00    +0.005 C 
ATOM      5  C   UNL     1      33.996 -19.359 -21.037  0.00  0.00    +0.017 C 
ATOM      6  C   UNL     1      36.267 -20.070 -20.614  0.00  0.00    +0.017 C 
ENDROOT
BRANCH   1  10
ATOM      7  F   UNL     1      33.819 -23.572 -19.500  0.00  0.00    -0.166 F 
ATOM      8  F   UNL     1      34.707 -22.662 -17.737  0.00  0.00    -0.166 F 
ATOM      9  F   UNL     1      32.673 -22.140 -18.321  0.00  0.00    -0.166 F 
ATOM     10  C   UNL     1      33.910 -22.411 -18.805  0.00  0.00    +0.419 C 
ENDBRANCH   1  10
BRANCH   2  11
ATOM     11  N   UNL     1      35.846 -18.138 -22.007  0.00  0.00    -0.191 NA
BRANCH  11  13
ATOM     12  N   UNL     1      34.932 -18.639 -24.186  0.00  0.00    -0.380 N 
ATOM     13  C   UNL     1      35.210 -17.843 -23.103  0.00  0.00    +0.150 C 
ATOM     14  H   UNL     1      34.435 -18.273 -24.952  0.00  0.00    +0.158 HD
ATOM     15  H   UNL     1      35.229 -19.578 -24.195  0.00  0.00    +0.158 HD
BRANCH  13  16
ATOM     16  S   UNL     1      34.569 -16.197 -23.280  0.00  0.00    -0.081 S 
BRANCH  16  17
ATOM     17  C   UNL     1      34.561 -15.633 -21.564  0.00  0.00    +0.065 C 
ATOM     18  C   UNL     1      33.153 -15.660 -21.001  0.00  0.00    +0.013 C 
ENDBRANCH  16  17
ENDBRANCH  13  16
ENDBRANCH  11  13
ENDBRANCH   2  11
TORSDOF 5
ENDMDL
MODEL 5
REMARK VINA RESULT:      -7.7      4.861      6.950
REMARK  Name = 3311
REMARK  5 active torsions:
REMARK  status: ('A' for Active; 'I' for Inactive)
REMARK    1  A    between atoms: C_1  and  C_18
REMARK    2  A    between atoms: C_2  and  N_7
REMARK    3  A    between atoms: N_7  and  C_9
REMARK    4  A    between atoms: C_9  and  S_12
REMARK    5  A    between atoms: S_12  and  C_13
REMARK                            x       y       z     vdW  Elec       q    Type
REMARK                         _______ _______ _______ _____ _____    ______ ____
ROOT
ATOM      1  C   UNL     1      34.418 -21.070 -19.810  0.00  0.00    +0.072 C 
ATOM      2  C   UNL     1      35.015 -18.826 -21.356  0.00  0.00    +0.073 C 
ATOM      3  C   UNL     1      33.388 -20.322 -20.378  0.00  0.00    +0.005 C 
ATOM      4  C   UNL     1      35.746 -20.697 -20.014  0.00  0.00    +0.005 C 
ATOM      5  C   UNL     1      33.686 -19.199 -21.152  0.00  0.00    +0.017 C 
ATOM      6  C   UNL     1      36.045 -19.575 -20.787  0.00  0.00    +0.017 C 
ENDROOT
BRANCH   1  10
ATOM      7  F   UNL     1      35.004 -22.466 -17.992  0.00  0.00    -0.166 F 
ATOM      8  F   UNL     1      32.885 -22.183 -18.386  0.00  0.00    -0.166 F 
ATOM      9  F   UNL     1      34.089 -23.397 -19.738  0.00  0.00    -0.166 F 
ATOM     10  C   UNL     1      34.099 -22.271 -18.984  0.00  0.00    +0.419 C 
ENDBRANCH   1  10
BRANCH   2  11
ATOM     11  N   UNL     1      35.314 -17.701 -22.131  0.00  0.00    -0.191 NA
BRANCH  11  13
ATOM     12  N   UNL     1      34.835 -15.961 -20.525  0.00  0.00    -0.380 N 
ATOM     13  C   UNL     1      34.834 -16.548 -21.766  0.00  0.00    +0.150 C 
ATOM     14  H   UNL     1      34.428 -15.074 -20.400  0.00  0.00    +0.158 HD
ATOM     15  H   UNL     1      35.243 -16.429 -19.761  0.00  0.00    +0.158 HD
BRANCH  13  16
ATOM     16  S   UNL     1      34.068 -15.532 -23.004  0.00  0.00    -0.081 S 
BRANCH  16  17
ATOM     17  C   UNL     1      32.707 -14.800 -22.069  0.00  0.00    +0.065 C 
ATOM     18  C   UNL     1      32.424 -13.391 -22.555  0.00  0.00    +0.013 C 
ENDBRANCH  16  17
ENDBRANCH  13  16
ENDBRANCH  11  13
ENDBRANCH   2  11
TORSDOF 5
ENDMDL
MODEL 6
REMARK VINA RESULT:      -7.7      1.601      2.396
REMARK  Name = 3311
REMARK  5 active torsions:
REMARK  status: ('A' for Active; 'I' for Inactive)
REMARK    1  A    between atoms: C_1  and  C_18
REMARK    2  A    between atoms: C_2  and  N_7
REMARK    3  A    between atoms: N_7  and  C_9
REMARK    4  A    between atoms: C_9  and  S_12
REMARK    5  A    between atoms: S_12  and  C_13
REMARK                            x       y       z     vdW  Elec       q    Type
REMARK                         _______ _______ _______ _____ _____    ______ ____
ROOT
ATOM      1  C   UNL     1      34.608 -20.056 -20.536  0.00  0.00    +0.072 C 
ATOM      2  C   UNL     1      34.230 -22.322 -18.954  0.00  0.00    +0.073 C 
ATOM      3  C   UNL     1      33.318 -20.456 -20.189  0.00  0.00    +0.005 C 
ATOM      4  C   UNL     1      35.709 -20.789 -20.093  0.00  0.00    +0.005 C 
ATOM      5  C   UNL     1      33.128 -21.590 -19.398  0.00  0.00    +0.017 C 
ATOM      6  C   UNL     1      35.520 -21.922 -19.302  0.00  0.00    +0.017 C 
ENDROOT
BRANCH   1  10
ATOM      7  F   UNL     1      33.928 -17.857 -21.083  0.00  0.00    -0.166 F 
ATOM      8  F   UNL     1      36.049 -18.310 -21.236  0.00  0.00    -0.166 F 
ATOM      9  F   UNL     1      34.654 -19.131 -22.697  0.00  0.00    -0.166 F 
ATOM     10  C   UNL     1      34.810 -18.844 -21.382  0.00  0.00    +0.419 C 
ENDBRANCH   1  10
BRANCH   2  11
ATOM     11  N   UNL     1      34.041 -23.459 -18.161  0.00  0.00    -0.191 NA
BRANCH  11  13
ATOM     12  N   UNL     1      32.415 -23.293 -16.383  0.00  0.00    -0.380 N 
ATOM     13  C   UNL     1      33.677 -23.300 -16.923  0.00  0.00    +0.150 C 
ATOM     14  H   UNL     1      32.293 -23.159 -15.416  0.00  0.00    +0.158 HD
ATOM     15  H   UNL     1      31.631 -23.422 -16.965  0.00  0.00    +0.158 HD
BRANCH  13  16
ATOM     16  S   UNL     1      34.945 -23.071 -15.701  0.00  0.00    -0.081 S 
BRANCH  16  17
ATOM     17  C   UNL     1      34.842 -24.625 -14.788  0.00  0.00    +0.065 C 
ATOM     18  C   UNL     1      36.113 -25.434 -14.968  0.00  0.00    +0.013 C 
ENDBRANCH  16  17
ENDBRANCH  13  16
ENDBRANCH  11  13
ENDBRANCH   2  11
TORSDOF 5
ENDMDL
MODEL 7
REMARK VINA RESULT:      -7.4      4.639      6.950
REMARK  Name = 3311
REMARK  5 active torsions:
REMARK  status: ('A' for Active; 'I' for Inactive)
REMARK    1  A    between atoms: C_1  and  C_18
REMARK    2  A    between atoms: C_2  and  N_7
REMARK    3  A    between atoms: N_7  and  C_9
REMARK    4  A    between atoms: C_9  and  S_12
REMARK    5  A    between atoms: S_12  and  C_13
REMARK                            x       y       z     vdW  Elec       q    Type
REMARK                         _______ _______ _______ _____ _____    ______ ____
ROOT
ATOM      1  C   UNL     1      34.065 -21.752 -19.119  0.00  0.00    +0.072 C 
ATOM      2  C   UNL     1      34.909 -19.790 -20.912  0.00  0.00    +0.073 C 
ATOM      3  C   UNL     1      33.128 -20.929 -19.742  0.00  0.00    +0.005 C 
ATOM      4  C   UNL     1      35.423 -21.595 -19.392  0.00  0.00    +0.005 C 
ATOM      5  C   UNL     1      33.549 -19.947 -20.639  0.00  0.00    +0.017 C 
ATOM      6  C   UNL     1      35.846 -20.614 -20.289  0.00  0.00    +0.017 C 
ENDROOT
BRANCH   1  10
ATOM      7  F   UNL     1      34.416 -22.880 -17.070  0.00  0.00    -0.166 F 
ATOM      8  F   UNL     1      32.357 -22.580 -17.700  0.00  0.00    -0.166 F 
ATOM      9  F   UNL     1      33.612 -24.028 -18.740  0.00  0.00    -0.166 F 
ATOM     10  C   UNL     1      33.613 -22.803 -18.160  0.00  0.00    +0.419 C 
ENDBRANCH   1  10
BRANCH   2  11
ATOM     11  N   UNL     1      35.332 -18.805 -21.812  0.00  0.00    -0.191 NA
BRANCH  11  13
ATOM     12  N   UNL     1      35.211 -16.848 -20.401  0.00  0.00    -0.380 N 
ATOM     13  C   UNL     1      35.037 -17.564 -21.560  0.00  0.00    +0.150 C 
ATOM     14  H   UNL     1      34.936 -15.905 -20.359  0.00  0.00    +0.158 HD
ATOM     15  H   UNL     1      35.613 -17.281 -19.613  0.00  0.00    +0.158 HD
BRANCH  13  16
ATOM     16  S   UNL     1      34.318 -16.595 -22.862  0.00  0.00    -0.081 S 
BRANCH  16  17
ATOM     17  C   UNL     1      34.752 -17.576 -24.315  0.00  0.00    +0.065 C 
ATOM     18  C   UNL     1      34.629 -16.742 -25.576  0.00  0.00    +0.013 C 
ENDBRANCH  16  17
ENDBRANCH  13  16
ENDBRANCH  11  13
ENDBRANCH   2  11
TORSDOF 5
ENDMDL
MODEL 8
REMARK VINA RESULT:      -7.3      1.382      2.204
REMARK  Name = 3311
REMARK  5 active torsions:
REMARK  status: ('A' for Active; 'I' for Inactive)
REMARK    1  A    between atoms: C_1  and  C_18
REMARK    2  A    between atoms: C_2  and  N_7
REMARK    3  A    between atoms: N_7  and  C_9
REMARK    4  A    between atoms: C_9  and  S_12
REMARK    5  A    between atoms: S_12  and  C_13
REMARK                            x       y       z     vdW  Elec       q    Type
REMARK                         _______ _______ _______ _____ _____    ______ ____
ROOT
ATOM      1  C   UNL     1      35.067 -19.223 -21.432  0.00  0.00    +0.072 C 
ATOM      2  C   UNL     1      33.626 -20.960 -19.794  0.00  0.00    +0.073 C 
ATOM      3  C   UNL     1      33.674 -19.177 -21.424  0.00  0.00    +0.005 C 
ATOM      4  C   UNL     1      35.741 -20.137 -20.622  0.00  0.00    +0.005 C 
ATOM      5  C   UNL     1      32.952 -20.046 -20.604  0.00  0.00    +0.017 C 
ATOM      6  C   UNL     1      35.020 -21.006 -19.802  0.00  0.00    +0.017 C 
ENDROOT
BRANCH   1  10
ATOM      7  F   UNL     1      35.567 -16.992 -22.039  0.00  0.00    -0.166 F 
ATOM      8  F   UNL     1      37.180 -18.444 -22.172  0.00  0.00    -0.166 F 
ATOM      9  F   UNL     1      35.548 -18.497 -23.617  0.00  0.00    -0.166 F 
ATOM     10  C   UNL     1      35.839 -18.293 -22.308  0.00  0.00    +0.419 C 
ENDBRANCH   1  10
BRANCH   2  11
ATOM     11  N   UNL     1      32.903 -21.831 -18.972  0.00  0.00    -0.191 NA
BRANCH  11  13
ATOM     12  N   UNL     1      33.860 -23.995 -19.459  0.00  0.00    -0.380 N 
ATOM     13  C   UNL     1      33.441 -22.970 -18.647  0.00  0.00    +0.150 C 
ATOM     14  H   UNL     1      34.252 -24.806 -19.065  0.00  0.00    +0.158 HD
ATOM     15  H   UNL     1      33.767 -23.916 -20.436  0.00  0.00    +0.158 HD
BRANCH  13  16
ATOM     16  S   UNL     1      33.716 -23.305 -16.925  0.00  0.00    -0.081 S 
BRANCH  16  17
ATOM     17  C   UNL     1      32.028 -23.268 -16.284  0.00  0.00    +0.065 C 
ATOM     18  C   UNL     1      32.035 -23.205 -14.768  0.00  0.00    +0.013 C 
ENDBRANCH  16  17
ENDBRANCH  13  16
ENDBRANCH  11  13
ENDBRANCH   2  11
TORSDOF 5
ENDMDL
MODEL 9
REMARK VINA RESULT:      -7.1      6.701      9.260
REMARK  Name = 3311
REMARK  5 active torsions:
REMARK  status: ('A' for Active; 'I' for Inactive)
REMARK    1  A    between atoms: C_1  and  C_18
REMARK    2  A    between atoms: C_2  and  N_7
REMARK    3  A    between atoms: N_7  and  C_9
REMARK    4  A    between atoms: C_9  and  S_12
REMARK    5  A    between atoms: S_12  and  C_13
REMARK                            x       y       z     vdW  Elec       q    Type
REMARK                         _______ _______ _______ _____ _____    ______ ____
ROOT
ATOM      1  C   UNL     1      34.727 -17.849 -22.227  0.00  0.00    +0.072 C 
ATOM      2  C   UNL     1      34.487 -15.079 -22.446  0.00  0.00    +0.073 C 
ATOM      3  C   UNL     1      34.925 -17.228 -23.459  0.00  0.00    +0.005 C 
ATOM      4  C   UNL     1      34.409 -17.085 -21.104  0.00  0.00    +0.005 C 
ATOM      5  C   UNL     1      34.805 -15.842 -23.570  0.00  0.00    +0.017 C 
ATOM      6  C   UNL     1      34.289 -15.700 -21.213  0.00  0.00    +0.017 C 
ENDROOT
BRANCH   1  10
ATOM      7  F   UNL     1      35.949 -19.695 -21.393  0.00  0.00    -0.166 F 
ATOM      8  F   UNL     1      33.787 -19.898 -21.496  0.00  0.00    -0.166 F 
ATOM      9  F   UNL     1      34.969 -19.912 -23.328  0.00  0.00    -0.166 F 
ATOM     10  C   UNL     1      34.856 -19.330 -22.109  0.00  0.00    +0.419 C 
ENDBRANCH   1  10
BRANCH   2  11
ATOM     11  N   UNL     1      34.367 -13.689 -22.556  0.00  0.00    -0.191 NA
BRANCH  11  13
ATOM     12  N   UNL     1      32.021 -13.299 -22.981  0.00  0.00    -0.380 N 
ATOM     13  C   UNL     1      33.367 -13.203 -23.232  0.00  0.00    +0.150 C 
ATOM     14  H   UNL     1      31.376 -12.874 -23.590  0.00  0.00    +0.158 HD
ATOM     15  H   UNL     1      31.703 -13.793 -22.191  0.00  0.00    +0.158 HD
BRANCH  13  16
ATOM     16  S   UNL     1      33.727 -12.255 -24.690  0.00  0.00    -0.081 S 
BRANCH  16  17
ATOM     17  C   UNL     1      33.891 -10.594 -24.001  0.00  0.00    +0.065 C 
ATOM     18  C   UNL     1      35.058  -9.865 -24.641  0.00  0.00    +0.013 C 
ENDBRANCH  16  17
ENDBRANCH  13  16
ENDBRANCH  11  13
ENDBRANCH   2  11
TORSDOF 5
ENDMDL
