MODEL 1
REMARK VINA RESULT:      -8.1      0.000      0.000
REMARK  Name = 104762
REMARK  7 active torsions:
REMARK  status: ('A' for Active; 'I' for Inactive)
REMARK    1  A    between atoms: N_1  and  C1*_9
REMARK    2  A    between atoms: C_3  and  O_23
REMARK    3  A    between atoms: C_5  and  C_20
REMARK    4  A    between atoms: C2*_7  and  O2*_11
REMARK    5  A    between atoms: C3*_8  and  O3*_13
REMARK    6  A    between atoms: C4*_10  and  C5*_15
REMARK    7  A    between atoms: C5*_15  and  O5*_16
REMARK                            x       y       z     vdW  Elec       q    Type
REMARK                         _______ _______ _______ _____ _____    ______ ____
ROOT
ATOM      1  N   UNL     1      35.430 -19.501 -20.755  0.00  0.00    -0.200 NA
ATOM      2  N   UNL     1      36.018 -21.356 -19.678  0.00  0.00    -0.248 NA
ATOM      3  C   UNL     1      34.264 -20.152 -20.459  0.00  0.00    +0.222 C 
ATOM      4  C   UNL     1      36.456 -20.265 -20.266  0.00  0.00    +0.205 C 
ATOM      5  C   UNL     1      34.653 -21.292 -19.794  0.00  0.00    +0.151 C 
ENDROOT
BRANCH   1   9
ATOM      6  O4* UNL     1      35.143 -17.151 -20.612  0.00  0.00    -0.336 OA
ATOM      7  C2* UNL     1      34.735 -18.130 -22.729  0.00  0.00    +0.183 C 
ATOM      8  C3* UNL     1      34.571 -16.629 -22.863  0.00  0.00    +0.171 C 
ATOM      9  C1* UNL     1      35.572 -18.231 -21.463  0.00  0.00    +0.209 C 
ATOM     10  C4* UNL     1      34.417 -16.188 -21.411  0.00  0.00    +0.175 C 
BRANCH   7  11
ATOM     11  O2* UNL     1      35.385 -18.717 -23.838  0.00  0.00    -0.378 OA
ATOM     12  H2* UNL     1      35.169 -18.218 -24.641  0.00  0.00    +0.211 HD
ENDBRANCH   7  11
BRANCH   8  13
ATOM     13  O3* UNL     1      35.771 -16.064 -23.391  0.00  0.00    -0.379 OA
ATOM     14  H3* UNL     1      35.576 -15.624 -24.234  0.00  0.00    +0.211 HD
ENDBRANCH   8  13
BRANCH  10  15
ATOM     15  C5* UNL     1      32.968 -16.174 -20.944  0.00  0.00    +0.169 C 
BRANCH  15  16
ATOM     16  O5* UNL     1      32.270 -15.173 -21.663  0.00  0.00    -0.379 OA
ATOM     17  H5* UNL     1      31.806 -14.591 -21.039  0.00  0.00    +0.211 HD
ENDBRANCH  15  16
ENDBRANCH  10  15
ENDBRANCH   1   9
BRANCH   5  20
ATOM     18  O   UNL     1      34.057 -23.530 -19.317  0.00  0.00    -0.269 OA
ATOM     19  N   UNL     1      32.597 -21.904 -18.669  0.00  0.00    -0.324 N 
ATOM     20  C   UNL     1      33.790 -22.309 -19.274  0.00  0.00    +0.260 C 
ATOM     21  H   UNL     1      31.979 -22.576 -18.301  0.00  0.00    +0.145 HD
ATOM     22  H   UNL     1      32.375 -20.946 -18.611  0.00  0.00    +0.145 HD
ENDBRANCH   5  20
BRANCH   3  23
ATOM     23  O   UNL     1      33.079 -19.669 -20.801  0.00  0.00    -0.365 OA
ATOM     24  H   UNL     1      32.475 -19.398 -20.138  0.00  0.00    +0.212 HD
ENDBRANCH   3  23
TORSDOF 7
ENDMDL
MODEL 2
REMARK VINA RESULT:      -7.9      6.318      9.582
REMARK  Name = 104762
REMARK  7 active torsions:
REMARK  status: ('A' for Active; 'I' for Inactive)
REMARK    1  A    between atoms: N_1  and  C1*_9
REMARK    2  A    between atoms: C_3  and  O_23
REMARK    3  A    between atoms: C_5  and  C_20
REMARK    4  A    between atoms: C2*_7  and  O2*_11
REMARK    5  A    between atoms: C3*_8  and  O3*_13
REMARK    6  A    between atoms: C4*_10  and  C5*_15
REMARK    7  A    between atoms: C5*_15  and  O5*_16
REMARK                            x       y       z     vdW  Elec       q    Type
REMARK                         _______ _______ _______ _____ _____    ______ ____
ROOT
ATOM      1  N   UNL     1      35.397 -23.340 -14.742  0.00  0.00    -0.200 NA
ATOM      2  N   UNL     1      35.072 -23.130 -16.932  0.00  0.00    -0.248 NA
ATOM      3  C   UNL     1      34.042 -23.281 -14.919  0.00  0.00    +0.222 C 
ATOM      4  C   UNL     1      35.972 -23.244 -15.981  0.00  0.00    +0.205 C 
ATOM      5  C   UNL     1      33.867 -23.152 -16.277  0.00  0.00    +0.151 C 
ENDROOT
BRANCH   1   9
ATOM      6  O4* UNL     1      37.522 -23.270 -13.689  0.00  0.00    -0.336 OA
ATOM      7  C2* UNL     1      35.978 -24.848 -12.832  0.00  0.00    +0.183 C 
ATOM      8  C3* UNL     1      37.234 -24.909 -11.986  0.00  0.00    +0.171 C 
ATOM      9  C1* UNL     1      36.113 -23.476 -13.475  0.00  0.00    +0.209 C 
ATOM     10  C4* UNL     1      38.259 -24.212 -12.876  0.00  0.00    +0.175 C 
BRANCH   7  11
ATOM     11  O2* UNL     1      34.792 -24.959 -12.072  0.00  0.00    -0.378 OA
ATOM     12  H2* UNL     1      34.805 -24.303 -11.357  0.00  0.00    +0.211 HD
ENDBRANCH   7  11
BRANCH   8  13
ATOM     13  O3* UNL     1      37.050 -24.133 -10.803  0.00  0.00    -0.379 OA
ATOM     14  H3* UNL     1      37.781 -23.501 -10.714  0.00  0.00    +0.211 HD
ENDBRANCH   8  13
BRANCH  10  15
ATOM     15  C5* UNL     1      38.992 -25.173 -13.802  0.00  0.00    +0.169 C 
BRANCH  15  16
ATOM     16  O5* UNL     1      39.139 -24.558 -15.070  0.00  0.00    -0.379 OA
ATOM     17  H5* UNL     1      38.432 -23.905 -15.196  0.00  0.00    +0.211 HD
ENDBRANCH  15  16
ENDBRANCH  10  15
ENDBRANCH   1   9
BRANCH   5  20
ATOM     18  O   UNL     1      32.506 -22.622 -18.137  0.00  0.00    -0.269 OA
ATOM     19  N   UNL     1      31.466 -23.472 -16.295  0.00  0.00    -0.324 N 
ATOM     20  C   UNL     1      32.616 -23.050 -16.967  0.00  0.00    +0.260 C 
ATOM     21  H   UNL     1      30.588 -23.415 -16.738  0.00  0.00    +0.145 HD
ATOM     22  H   UNL     1      31.533 -23.826 -15.378  0.00  0.00    +0.145 HD
ENDBRANCH   5  20
BRANCH   3  23
ATOM     23  O   UNL     1      33.194 -23.346 -13.903  0.00  0.00    -0.365 OA
ATOM     24  H   UNL     1      33.053 -22.594 -13.362  0.00  0.00    +0.212 HD
ENDBRANCH   3  23
TORSDOF 7
ENDMDL
MODEL 3
REMARK VINA RESULT:      -7.7      7.997      9.744
REMARK  Name = 104762
REMARK  7 active torsions:
REMARK  status: ('A' for Active; 'I' for Inactive)
REMARK    1  A    between atoms: N_1  and  C1*_9
REMARK    2  A    between atoms: C_3  and  O_23
REMARK    3  A    between atoms: C_5  and  C_20
REMARK    4  A    between atoms: C2*_7  and  O2*_11
REMARK    5  A    between atoms: C3*_8  and  O3*_13
REMARK    6  A    between atoms: C4*_10  and  C5*_15
REMARK    7  A    between atoms: C5*_15  and  O5*_16
REMARK                            x       y       z     vdW  Elec       q    Type
REMARK                         _______ _______ _______ _____ _____    ______ ____
ROOT
ATOM      1  N   UNL     1      34.570 -24.331 -14.679  0.00  0.00    -0.200 NA
ATOM      2  N   UNL     1      33.588 -23.117 -16.261  0.00  0.00    -0.248 NA
ATOM      3  C   UNL     1      33.240 -24.300 -14.360  0.00  0.00    +0.222 C 
ATOM      4  C   UNL     1      34.729 -23.605 -15.829  0.00  0.00    +0.205 C 
ATOM      5  C   UNL     1      32.656 -23.546 -15.350  0.00  0.00    +0.151 C 
ENDROOT
BRANCH   1   9
ATOM      6  O4* UNL     1      35.570 -24.639 -12.549  0.00  0.00    -0.336 OA
ATOM      7  C2* UNL     1      37.038 -24.646 -14.408  0.00  0.00    +0.183 C 
ATOM      8  C3* UNL     1      37.852 -24.929 -13.161  0.00  0.00    +0.171 C 
ATOM      9  C1* UNL     1      35.635 -25.006 -13.940  0.00  0.00    +0.209 C 
ATOM     10  C4* UNL     1      36.916 -24.466 -12.049  0.00  0.00    +0.175 C 
BRANCH   7  11
ATOM     11  O2* UNL     1      37.438 -25.423 -15.518  0.00  0.00    -0.378 OA
ATOM     12  H2* UNL     1      37.995 -24.886 -16.103  0.00  0.00    +0.211 HD
ENDBRANCH   7  11
BRANCH   8  13
ATOM     13  O3* UNL     1      38.057 -26.336 -13.034  0.00  0.00    -0.379 OA
ATOM     14  H3* UNL     1      38.984 -26.546 -13.227  0.00  0.00    +0.211 HD
ENDBRANCH   8  13
BRANCH  10  15
ATOM     15  C5* UNL     1      37.106 -23.001 -11.684  0.00  0.00    +0.169 C 
BRANCH  15  16
ATOM     16  O5* UNL     1      38.494 -22.725 -11.622  0.00  0.00    -0.379 OA
ATOM     17  H5* UNL     1      38.724 -22.072 -12.302  0.00  0.00    +0.211 HD
ENDBRANCH  15  16
ENDBRANCH  10  15
ENDBRANCH   1   9
BRANCH   5  20
ATOM     18  O   UNL     1      30.460 -23.293 -14.509  0.00  0.00    -0.269 OA
ATOM     19  N   UNL     1      30.799 -22.779 -16.703  0.00  0.00    -0.324 N 
ATOM     20  C   UNL     1      31.266 -23.220 -15.463  0.00  0.00    +0.260 C 
ATOM     21  H   UNL     1      29.849 -22.547 -16.818  0.00  0.00    +0.145 HD
ATOM     22  H   UNL     1      31.421 -22.700 -17.464  0.00  0.00    +0.145 HD
ENDBRANCH   5  20
BRANCH   3  23
ATOM     23  O   UNL     1      32.756 -24.913 -13.290  0.00  0.00    -0.365 OA
ATOM     24  H   UNL     1      32.307 -24.421 -12.631  0.00  0.00    +0.212 HD
ENDBRANCH   3  23
TORSDOF 7
ENDMDL
MODEL 4
REMARK VINA RESULT:      -7.7      6.370      9.380
REMARK  Name = 104762
REMARK  7 active torsions:
REMARK  status: ('A' for Active; 'I' for Inactive)
REMARK    1  A    between atoms: N_1  and  C1*_9
REMARK    2  A    between atoms: C_3  and  O_23
REMARK    3  A    between atoms: C_5  and  C_20
REMARK    4  A    between atoms: C2*_7  and  O2*_11
REMARK    5  A    between atoms: C3*_8  and  O3*_13
REMARK    6  A    between atoms: C4*_10  and  C5*_15
REMARK    7  A    between atoms: C5*_15  and  O5*_16
REMARK                            x       y       z     vdW  Elec       q    Type
REMARK                         _______ _______ _______ _____ _____    ______ ____
ROOT
ATOM      1  N   UNL     1      34.800 -23.678 -14.969  0.00  0.00    -0.200 NA
ATOM      2  N   UNL     1      32.576 -23.679 -14.921  0.00  0.00    -0.248 NA
ATOM      3  C   UNL     1      34.395 -23.196 -16.184  0.00  0.00    +0.222 C 
ATOM      4  C   UNL     1      33.670 -23.955 -14.246  0.00  0.00    +0.205 C 
ATOM      5  C   UNL     1      33.021 -23.205 -16.130  0.00  0.00    +0.151 C 
ENDROOT
BRANCH   1   9
ATOM      6  O4* UNL     1      36.874 -24.734 -15.430  0.00  0.00    -0.336 OA
ATOM      7  C2* UNL     1      36.288 -24.525 -13.145  0.00  0.00    +0.183 C 
ATOM      8  C3* UNL     1      37.666 -25.152 -13.224  0.00  0.00    +0.171 C 
ATOM      9  C1* UNL     1      36.174 -23.870 -14.514  0.00  0.00    +0.209 C 
ATOM     10  C4* UNL     1      37.724 -25.626 -14.673  0.00  0.00    +0.175 C 
BRANCH   7  11
ATOM     11  O2* UNL     1      36.168 -23.582 -12.099  0.00  0.00    -0.378 OA
ATOM     12  H2* UNL     1      35.761 -24.007 -11.327  0.00  0.00    +0.211 HD
ENDBRANCH   7  11
BRANCH   8  13
ATOM     13  O3* UNL     1      38.659 -24.145 -13.029  0.00  0.00    -0.379 OA
ATOM     14  H3* UNL     1      39.112 -24.299 -12.184  0.00  0.00    +0.211 HD
ENDBRANCH   8  13
BRANCH  10  15
ATOM     15  C5* UNL     1      37.210 -27.047 -14.854  0.00  0.00    +0.169 C 
BRANCH  15  16
ATOM     16  O5* UNL     1      36.817 -27.219 -16.204  0.00  0.00    -0.379 OA
ATOM     17  H5* UNL     1      35.954 -26.797 -16.346  0.00  0.00    +0.211 HD
ENDBRANCH  15  16
ENDBRANCH  10  15
ENDBRANCH   1   9
BRANCH   5  20
ATOM     18  O   UNL     1      30.892 -22.671 -17.008  0.00  0.00    -0.269 OA
ATOM     19  N   UNL     1      32.675 -22.480 -18.415  0.00  0.00    -0.324 N 
ATOM     20  C   UNL     1      32.127 -22.789 -17.167  0.00  0.00    +0.260 C 
ATOM     21  H   UNL     1      32.091 -22.191 -19.152  0.00  0.00    +0.145 HD
ATOM     22  H   UNL     1      33.648 -22.552 -18.556  0.00  0.00    +0.145 HD
ENDBRANCH   5  20
BRANCH   3  23
ATOM     23  O   UNL     1      35.257 -22.832 -17.121  0.00  0.00    -0.365 OA
ATOM     24  H   UNL     1      35.961 -22.249 -16.910  0.00  0.00    +0.212 HD
ENDBRANCH   3  23
TORSDOF 7
ENDMDL
MODEL 5
REMARK VINA RESULT:      -7.5      6.495      9.510
REMARK  Name = 104762
REMARK  7 active torsions:
REMARK  status: ('A' for Active; 'I' for Inactive)
REMARK    1  A    between atoms: N_1  and  C1*_9
REMARK    2  A    between atoms: C_3  and  O_23
REMARK    3  A    between atoms: C_5  and  C_20
REMARK    4  A    between atoms: C2*_7  and  O2*_11
REMARK    5  A    between atoms: C3*_8  and  O3*_13
REMARK    6  A    between atoms: C4*_10  and  C5*_15
REMARK    7  A    between atoms: C5*_15  and  O5*_16
REMARK                            x       y       z     vdW  Elec       q    Type
REMARK                         _______ _______ _______ _____ _____    ______ ____
ROOT
ATOM      1  N   UNL     1      34.607 -24.031 -14.642  0.00  0.00    -0.200 NA
ATOM      2  N   UNL     1      32.405 -23.742 -14.753  0.00  0.00    -0.248 NA
ATOM      3  C   UNL     1      34.350 -23.564 -15.902  0.00  0.00    +0.222 C 
ATOM      4  C   UNL     1      33.405 -24.122 -13.991  0.00  0.00    +0.205 C 
ATOM      5  C   UNL     1      32.986 -23.393 -15.946  0.00  0.00    +0.151 C 
ENDROOT
BRANCH   1   9
ATOM      6  O4* UNL     1      35.735 -25.101 -12.849  0.00  0.00    -0.336 OA
ATOM      7  C2* UNL     1      36.778 -23.171 -13.743  0.00  0.00    +0.183 C 
ATOM      8  C3* UNL     1      37.682 -23.743 -12.669  0.00  0.00    +0.171 C 
ATOM      9  C1* UNL     1      35.911 -24.375 -14.081  0.00  0.00    +0.209 C 
ATOM     10  C4* UNL     1      36.735 -24.662 -11.902  0.00  0.00    +0.175 C 
BRANCH   7  11
ATOM     11  O2* UNL     1      37.486 -22.699 -14.870  0.00  0.00    -0.378 OA
ATOM     12  H2* UNL     1      38.037 -23.413 -15.228  0.00  0.00    +0.211 HD
ENDBRANCH   7  11
BRANCH   8  13
ATOM     13  O3* UNL     1      38.701 -24.537 -13.277  0.00  0.00    -0.379 OA
ATOM     14  H3* UNL     1      39.572 -24.195 -13.021  0.00  0.00    +0.211 HD
ENDBRANCH   8  13
BRANCH  10  15
ATOM     15  C5* UNL     1      36.029 -23.960 -10.751  0.00  0.00    +0.169 C 
BRANCH  15  16
ATOM     16  O5* UNL     1      35.293 -24.921 -10.016  0.00  0.00    -0.379 OA
ATOM     17  H5* UNL     1      35.072 -25.669 -10.594  0.00  0.00    +0.211 HD
ENDBRANCH  15  16
ENDBRANCH  10  15
ENDBRANCH   1   9
BRANCH   5  20
ATOM     18  O   UNL     1      32.713 -22.717 -18.196  0.00  0.00    -0.269 OA
ATOM     19  N   UNL     1      30.859 -22.695 -16.870  0.00  0.00    -0.324 N 
ATOM     20  C   UNL     1      32.225 -22.920 -17.062  0.00  0.00    +0.260 C 
ATOM     21  H   UNL     1      30.304 -22.369 -17.614  0.00  0.00    +0.145 HD
ATOM     22  H   UNL     1      30.452 -22.863 -15.989  0.00  0.00    +0.145 HD
ENDBRANCH   5  20
BRANCH   3  23
ATOM     23  O   UNL     1      35.312 -23.365 -16.790  0.00  0.00    -0.365 OA
ATOM     24  H   UNL     1      35.688 -24.093 -17.245  0.00  0.00    +0.212 HD
ENDBRANCH   3  23
TORSDOF 7
ENDMDL
MODEL 6
REMARK VINA RESULT:      -7.5      7.586      9.212
REMARK  Name = 104762
REMARK  7 active torsions:
REMARK  status: ('A' for Active; 'I' for Inactive)
REMARK    1  A    between atoms: N_1  and  C1*_9
REMARK    2  A    between atoms: C_3  and  O_23
REMARK    3  A    between atoms: C_5  and  C_20
REMARK    4  A    between atoms: C2*_7  and  O2*_11
REMARK    5  A    between atoms: C3*_8  and  O3*_13
REMARK    6  A    between atoms: C4*_10  and  C5*_15
REMARK    7  A    between atoms: C5*_15  and  O5*_16
REMARK                            x       y       z     vdW  Elec       q    Type
REMARK                         _______ _______ _______ _____ _____    ______ ____
ROOT
ATOM      1  N   UNL     1      33.714 -24.169 -14.729  0.00  0.00    -0.200 NA
ATOM      2  N   UNL     1      32.157 -23.357 -16.094  0.00  0.00    -0.248 NA
ATOM      3  C   UNL     1      32.511 -24.543 -14.195  0.00  0.00    +0.222 C 
ATOM      4  C   UNL     1      33.448 -23.458 -15.869  0.00  0.00    +0.205 C 
ATOM      5  C   UNL     1      31.567 -24.031 -15.055  0.00  0.00    +0.151 C 
ENDROOT
BRANCH   1   9
ATOM      6  O4* UNL     1      35.754 -23.234 -13.959  0.00  0.00    -0.336 OA
ATOM      7  C2* UNL     1      35.916 -25.288 -15.126  0.00  0.00    +0.183 C 
ATOM      8  C3* UNL     1      37.304 -24.899 -14.659  0.00  0.00    +0.171 C 
ATOM      9  C1* UNL     1      35.041 -24.463 -14.194  0.00  0.00    +0.209 C 
ATOM     10  C4* UNL     1      37.137 -23.416 -14.341  0.00  0.00    +0.175 C 
BRANCH   7  11
ATOM     11  O2* UNL     1      35.658 -26.672 -15.003  0.00  0.00    -0.378 OA
ATOM     12  H2* UNL     1      35.926 -27.124 -15.818  0.00  0.00    +0.211 HD
ENDBRANCH   7  11
BRANCH   8  13
ATOM     13  O3* UNL     1      37.614 -25.596 -13.452  0.00  0.00    -0.379 OA
ATOM     14  H3* UNL     1      38.327 -25.131 -12.986  0.00  0.00    +0.211 HD
ENDBRANCH   8  13
BRANCH  10  15
ATOM     15  C5* UNL     1      37.427 -22.516 -15.534  0.00  0.00    +0.169 C 
BRANCH  15  16
ATOM     16  O5* UNL     1      38.513 -23.062 -16.260  0.00  0.00    -0.379 OA
ATOM     17  H5* UNL     1      39.293 -22.495 -16.151  0.00  0.00    +0.211 HD
ENDBRANCH  15  16
ENDBRANCH  10  15
ENDBRANCH   1   9
BRANCH   5  20
ATOM     18  O   UNL     1      29.335 -23.339 -15.420  0.00  0.00    -0.269 OA
ATOM     19  N   UNL     1      29.648 -25.261 -14.236  0.00  0.00    -0.324 N 
ATOM     20  C   UNL     1      30.146 -24.155 -14.929  0.00  0.00    +0.260 C 
ATOM     21  H   UNL     1      28.676 -25.378 -14.128  0.00  0.00    +0.145 HD
ATOM     22  H   UNL     1      30.269 -25.923 -13.854  0.00  0.00    +0.145 HD
ENDBRANCH   5  20
BRANCH   3  23
ATOM     23  O   UNL     1      32.423 -25.250 -13.079  0.00  0.00    -0.365 OA
ATOM     24  H   UNL     1      31.999 -24.885 -12.326  0.00  0.00    +0.212 HD
ENDBRANCH   3  23
TORSDOF 7
ENDMDL
MODEL 7
REMARK VINA RESULT:      -7.3      7.328      9.456
REMARK  Name = 104762
REMARK  7 active torsions:
REMARK  status: ('A' for Active; 'I' for Inactive)
REMARK    1  A    between atoms: N_1  and  C1*_9
REMARK    2  A    between atoms: C_3  and  O_23
REMARK    3  A    between atoms: C_5  and  C_20
REMARK    4  A    between atoms: C2*_7  and  O2*_11
REMARK    5  A    between atoms: C3*_8  and  O3*_13
REMARK    6  A    between atoms: C4*_10  and  C5*_15
REMARK    7  A    between atoms: C5*_15  and  O5*_16
REMARK                            x       y       z     vdW  Elec       q    Type
REMARK                         _______ _______ _______ _____ _____    ______ ____
ROOT
ATOM      1  N   UNL     1      34.337 -24.046 -15.296  0.00  0.00    -0.200 NA
ATOM      2  N   UNL     1      32.388 -23.366 -16.123  0.00  0.00    -0.248 NA
ATOM      3  C   UNL     1      33.413 -24.258 -14.309  0.00  0.00    +0.222 C 
ATOM      4  C   UNL     1      33.672 -23.508 -16.365  0.00  0.00    +0.205 C 
ATOM      5  C   UNL     1      32.220 -23.831 -14.844  0.00  0.00    +0.151 C 
ENDROOT
BRANCH   1   9
ATOM      6  O4* UNL     1      35.996 -25.504 -14.428  0.00  0.00    -0.336 OA
ATOM      7  C2* UNL     1      36.597 -23.221 -14.610  0.00  0.00    +0.183 C 
ATOM      8  C3* UNL     1      37.804 -23.989 -14.110  0.00  0.00    +0.171 C 
ATOM      9  C1* UNL     1      35.768 -24.333 -15.235  0.00  0.00    +0.209 C 
ATOM     10  C4* UNL     1      37.181 -25.295 -13.626  0.00  0.00    +0.175 C 
BRANCH   7  11
ATOM     11  O2* UNL     1      36.929 -22.219 -15.550  0.00  0.00    -0.378 OA
ATOM     12  H2* UNL     1      37.112 -21.388 -15.085  0.00  0.00    +0.211 HD
ENDBRANCH   7  11
BRANCH   8  13
ATOM     13  O3* UNL     1      38.675 -24.273 -15.205  0.00  0.00    -0.379 OA
ATOM     14  H3* UNL     1      38.565 -25.200 -15.472  0.00  0.00    +0.211 HD
ENDBRANCH   8  13
BRANCH  10  15
ATOM     15  C5* UNL     1      36.767 -25.249 -12.162  0.00  0.00    +0.169 C 
BRANCH  15  16
ATOM     16  O5* UNL     1      37.817 -24.667 -11.411  0.00  0.00    -0.379 OA
ATOM     17  H5* UNL     1      38.624 -24.640 -11.951  0.00  0.00    +0.211 HD
ENDBRANCH  15  16
ENDBRANCH  10  15
ENDBRANCH   1   9
BRANCH   5  20
ATOM     18  O   UNL     1      30.068 -22.971 -14.370  0.00  0.00    -0.269 OA
ATOM     19  N   UNL     1      30.663 -24.913 -13.336  0.00  0.00    -0.324 N 
ATOM     20  C   UNL     1      30.944 -23.847 -14.195  0.00  0.00    +0.260 C 
ATOM     21  H   UNL     1      29.796 -24.957 -12.872  0.00  0.00    +0.145 HD
ATOM     22  H   UNL     1      31.333 -25.622 -13.196  0.00  0.00    +0.145 HD
ENDBRANCH   5  20
BRANCH   3  23
ATOM     23  O   UNL     1      33.740 -24.775 -13.135  0.00  0.00    -0.365 OA
ATOM     24  H   UNL     1      33.579 -24.290 -12.349  0.00  0.00    +0.212 HD
ENDBRANCH   3  23
TORSDOF 7
ENDMDL
MODEL 8
REMARK VINA RESULT:      -7.3      6.636      8.772
REMARK  Name = 104762
REMARK  7 active torsions:
REMARK  status: ('A' for Active; 'I' for Inactive)
REMARK    1  A    between atoms: N_1  and  C1*_9
REMARK    2  A    between atoms: C_3  and  O_23
REMARK    3  A    between atoms: C_5  and  C_20
REMARK    4  A    between atoms: C2*_7  and  O2*_11
REMARK    5  A    between atoms: C3*_8  and  O3*_13
REMARK    6  A    between atoms: C4*_10  and  C5*_15
REMARK    7  A    between atoms: C5*_15  and  O5*_16
REMARK                            x       y       z     vdW  Elec       q    Type
REMARK                         _______ _______ _______ _____ _____    ______ ____
ROOT
ATOM      1  N   UNL     1      34.154 -24.218 -14.772  0.00  0.00    -0.200 NA
ATOM      2  N   UNL     1      31.942 -23.989 -14.804  0.00  0.00    -0.248 NA
ATOM      3  C   UNL     1      33.857 -23.582 -15.946  0.00  0.00    +0.222 C 
ATOM      4  C   UNL     1      32.970 -24.443 -14.121  0.00  0.00    +0.205 C 
ATOM      5  C   UNL     1      32.488 -23.451 -15.942  0.00  0.00    +0.151 C 
ENDROOT
BRANCH   1   9
ATOM      6  O4* UNL     1      36.315 -23.428 -14.194  0.00  0.00    -0.336 OA
ATOM      7  C2* UNL     1      36.216 -25.571 -15.198  0.00  0.00    +0.183 C 
ATOM      8  C3* UNL     1      37.660 -25.282 -14.841  0.00  0.00    +0.171 C 
ATOM      9  C1* UNL     1      35.480 -24.597 -14.289  0.00  0.00    +0.209 C 
ATOM     10  C4* UNL     1      37.649 -23.770 -14.635  0.00  0.00    +0.175 C 
BRANCH   7  11
ATOM     11  O2* UNL     1      35.841 -26.910 -14.949  0.00  0.00    -0.378 OA
ATOM     12  H2* UNL     1      35.900 -27.420 -15.771  0.00  0.00    +0.211 HD
ENDBRANCH   7  11
BRANCH   8  13
ATOM     13  O3* UNL     1      37.980 -25.912 -13.601  0.00  0.00    -0.379 OA
ATOM     14  H3* UNL     1      38.614 -26.630 -13.758  0.00  0.00    +0.211 HD
ENDBRANCH   8  13
BRANCH  10  15
ATOM     15  C5* UNL     1      37.946 -22.995 -15.912  0.00  0.00    +0.169 C 
BRANCH  15  16
ATOM     16  O5* UNL     1      37.124 -21.842 -15.943  0.00  0.00    -0.379 OA
ATOM     17  H5* UNL     1      36.426 -21.960 -16.607  0.00  0.00    +0.211 HD
ENDBRANCH  15  16
ENDBRANCH  10  15
ENDBRANCH   1   9
BRANCH   5  20
ATOM     18  O   UNL     1      30.454 -22.674 -16.865  0.00  0.00    -0.269 OA
ATOM     19  N   UNL     1      32.336 -22.407 -18.122  0.00  0.00    -0.324 N 
ATOM     20  C   UNL     1      31.689 -22.846 -16.964  0.00  0.00    +0.260 C 
ATOM     21  H   UNL     1      31.819 -21.986 -18.846  0.00  0.00    +0.145 HD
ATOM     22  H   UNL     1      33.311 -22.518 -18.214  0.00  0.00    +0.145 HD
ENDBRANCH   5  20
BRANCH   3  23
ATOM     23  O   UNL     1      34.794 -23.223 -16.811  0.00  0.00    -0.365 OA
ATOM     24  H   UNL     1      35.437 -22.586 -16.567  0.00  0.00    +0.212 HD
ENDBRANCH   3  23
TORSDOF 7
ENDMDL
MODEL 9
REMARK VINA RESULT:      -7.3      2.245      3.362
REMARK  Name = 104762
REMARK  7 active torsions:
REMARK  status: ('A' for Active; 'I' for Inactive)
REMARK    1  A    between atoms: N_1  and  C1*_9
REMARK    2  A    between atoms: C_3  and  O_23
REMARK    3  A    between atoms: C_5  and  C_20
REMARK    4  A    between atoms: C2*_7  and  O2*_11
REMARK    5  A    between atoms: C3*_8  and  O3*_13
REMARK    6  A    between atoms: C4*_10  and  C5*_15
REMARK    7  A    between atoms: C5*_15  and  O5*_16
REMARK                            x       y       z     vdW  Elec       q    Type
REMARK                         _______ _______ _______ _____ _____    ______ ____
ROOT
ATOM      1  N   UNL     1      34.910 -16.960 -22.741  0.00  0.00    -0.200 NA
ATOM      2  N   UNL     1      35.029 -19.162 -23.026  0.00  0.00    -0.248 NA
ATOM      3  C   UNL     1      35.134 -17.490 -21.500  0.00  0.00    +0.222 C 
ATOM      4  C   UNL     1      34.854 -18.005 -23.624  0.00  0.00    +0.205 C 
ATOM      5  C   UNL     1      35.205 -18.849 -21.702  0.00  0.00    +0.151 C 
ENDROOT
BRANCH   1   9
ATOM      6  O4* UNL     1      34.612 -14.773 -21.871  0.00  0.00    -0.336 OA
ATOM      7  C2* UNL     1      33.526 -15.242 -23.922  0.00  0.00    +0.183 C 
ATOM      8  C3* UNL     1      33.276 -13.788 -23.577  0.00  0.00    +0.171 C 
ATOM      9  C1* UNL     1      34.754 -15.547 -23.077  0.00  0.00    +0.209 C 
ATOM     10  C4* UNL     1      33.623 -13.742 -22.092  0.00  0.00    +0.175 C 
BRANCH   7  11
ATOM     11  O2* UNL     1      33.769 -15.451 -25.298  0.00  0.00    -0.378 OA
ATOM     12  H2* UNL     1      33.853 -14.594 -25.745  0.00  0.00    +0.211 HD
ENDBRANCH   7  11
BRANCH   8  13
ATOM     13  O3* UNL     1      34.198 -12.964 -24.290  0.00  0.00    -0.379 OA
ATOM     14  H3* UNL     1      34.992 -13.479 -24.505  0.00  0.00    +0.211 HD
ENDBRANCH   8  13
BRANCH  10  15
ATOM     15  C5* UNL     1      32.426 -14.026 -21.194  0.00  0.00    +0.169 C 
BRANCH  15  16
ATOM     16  O5* UNL     1      32.806 -14.982 -20.221  0.00  0.00    -0.379 OA
ATOM     17  H5* UNL     1      33.773 -15.072 -20.217  0.00  0.00    +0.211 HD
ENDBRANCH  15  16
ENDBRANCH  10  15
ENDBRANCH   1   9
BRANCH   5  20
ATOM     18  O   UNL     1      34.624 -20.774 -20.458  0.00  0.00    -0.269 OA
ATOM     19  N   UNL     1      36.619 -19.786 -19.973  0.00  0.00    -0.324 N 
ATOM     20  C   UNL     1      35.427 -19.847 -20.700  0.00  0.00    +0.260 C 
ATOM     21  H   UNL     1      36.806 -20.455 -19.276  0.00  0.00    +0.145 HD
ATOM     22  H   UNL     1      37.272 -19.072 -20.159  0.00  0.00    +0.145 HD
ENDBRANCH   5  20
BRANCH   3  23
ATOM     23  O   UNL     1      35.240 -16.734 -20.418  0.00  0.00    -0.365 OA
ATOM     24  H   UNL     1      34.491 -16.273 -20.094  0.00  0.00    +0.212 HD
ENDBRANCH   3  23
TORSDOF 7
ENDMDL
