MODEL 1
REMARK VINA RESULT:      -9.7      0.000      0.000
REMARK  Name = 46937133
REMARK  12 active torsions:
REMARK  status: ('A' for Active; 'I' for Inactive)
REMARK    1  A    between atoms: N_2  and  C_4
REMARK    2  A    between atoms: N_2  and  C_11
REMARK    3  A    between atoms: C_3  and  C_18
REMARK    4  A    between atoms: C_4  and  C_5
REMARK    5  A    between atoms: C_11  and  C_12
REMARK    6  A    between atoms: C_18  and  O_19
REMARK    7  A    between atoms: C_18  and  C_21
REMARK    8  A    between atoms: C_21  and  C_24
REMARK    9  A    between atoms: N_23  and  N_25
REMARK   10  A    between atoms: N_23  and  C_28
REMARK   11  A    between atoms: C_28  and  C_30
REMARK   12  A    between atoms: C_30  and  O_31
REMARK                            x       y       z     vdW  Elec       q    Type
REMARK                         _______ _______ _______ _____ _____    ______ ____
ROOT
ATOM      1  O   UNL     1      35.109 -25.360 -15.464  0.00  0.00    -0.272 OA
ATOM      2  N   UNL     1      33.631 -23.594 -15.725  0.00  0.00    -0.269 N 
ATOM      3  C   UNL     1      34.620 -24.307 -15.041  0.00  0.00    +0.254 C 
ENDROOT
BRANCH   2   4
ATOM      4  C   UNL     1      32.575 -22.792 -15.109  0.00  0.00    +0.121 C 
BRANCH   4   5
ATOM      5  C   UNL     1      31.222 -23.422 -15.277  0.00  0.00    -0.002 C 
ATOM      6  C   UNL     1      30.940 -24.643 -14.665  0.00  0.00    -0.003 C 
ATOM      7  C   UNL     1      30.248 -22.786 -16.045  0.00  0.00    -0.003 C 
ATOM      8  C   UNL     1      29.684 -25.228 -14.823  0.00  0.00    -0.000 C 
ATOM      9  C   UNL     1      28.992 -23.371 -16.203  0.00  0.00    -0.000 C 
ATOM     10  C   UNL     1      28.710 -24.592 -15.591  0.00  0.00    -0.000 C 
ENDBRANCH   4   5
ENDBRANCH   2   4
BRANCH   2  11
ATOM     11  C   UNL     1      33.587 -23.653 -17.182  0.00  0.00    +0.121 C 
BRANCH  11  12
ATOM     12  C   UNL     1      34.603 -22.744 -17.811  0.00  0.00    -0.002 C 
ATOM     13  C   UNL     1      35.779 -22.434 -17.130  0.00  0.00    -0.003 C 
ATOM     14  C   UNL     1      34.370 -22.209 -19.078  0.00  0.00    -0.003 C 
ATOM     15  C   UNL     1      36.723 -21.590 -17.714  0.00  0.00    -0.000 C 
ATOM     16  C   UNL     1      35.313 -21.365 -19.663  0.00  0.00    -0.000 C 
ATOM     17  C   UNL     1      36.490 -21.055 -18.981  0.00  0.00    -0.000 C 
ENDBRANCH  11  12
ENDBRANCH   2  11
BRANCH   3  18
ATOM     18  C   UNL     1      35.098 -23.742 -13.705  0.00  0.00    +0.196 C 
BRANCH  18  19
ATOM     19  O   UNL     1      35.093 -24.792 -12.743  0.00  0.00    -0.375 OA
ATOM     20  H   UNL     1      35.730 -24.590 -12.041  0.00  0.00    +0.211 HD
ENDBRANCH  18  19
BRANCH  18  21
ATOM     21  C   UNL     1      36.533 -23.219 -13.820  0.00  0.00    +0.125 C 
BRANCH  21  24
ATOM     22  O   UNL     1      37.684 -24.107 -11.897  0.00  0.00    -0.273 OA
ATOM     23  N   UNL     1      38.300 -24.949 -13.958  0.00  0.00    -0.216 N 
ATOM     24  C   UNL     1      37.553 -24.122 -13.123  0.00  0.00    +0.242 C 
BRANCH  23  25
ATOM     25  N   UNL     1      38.102 -24.924 -15.336  0.00  0.00    -0.250 NA
ATOM     26  H   UNL     1      39.000 -24.804 -15.807  0.00  0.00    +0.141 HD
ATOM     27  H   UNL     1      37.486 -24.147 -15.576  0.00  0.00    +0.141 HD
ENDBRANCH  23  25
BRANCH  23  28
ATOM     28  C   UNL     1      39.306 -25.874 -13.461  0.00  0.00    +0.220 C 
BRANCH  28  30
ATOM     29  O   UNL     1      40.990 -24.751 -14.764  0.00  0.00    -0.248 OA
ATOM     30  C   UNL     1      40.613 -25.774 -14.206  0.00  0.00    +0.336 C 
BRANCH  30  31
ATOM     31  O   UNL     1      41.329 -26.922 -14.198  0.00  0.00    -0.479 OA
ATOM     32  H   UNL     1      41.090 -27.627 -14.767  0.00  0.00    +0.295 HD
ENDBRANCH  30  31
ENDBRANCH  28  30
ENDBRANCH  23  28
ENDBRANCH  21  24
ENDBRANCH  18  21
ENDBRANCH   3  18
TORSDOF 12
ENDMDL
MODEL 2
REMARK VINA RESULT:      -9.6      1.307      4.827
REMARK  Name = 46937133
REMARK  12 active torsions:
REMARK  status: ('A' for Active; 'I' for Inactive)
REMARK    1  A    between atoms: N_2  and  C_4
REMARK    2  A    between atoms: N_2  and  C_11
REMARK    3  A    between atoms: C_3  and  C_18
REMARK    4  A    between atoms: C_4  and  C_5
REMARK    5  A    between atoms: C_11  and  C_12
REMARK    6  A    between atoms: C_18  and  O_19
REMARK    7  A    between atoms: C_18  and  C_21
REMARK    8  A    between atoms: C_21  and  C_24
REMARK    9  A    between atoms: N_23  and  N_25
REMARK   10  A    between atoms: N_23  and  C_28
REMARK   11  A    between atoms: C_28  and  C_30
REMARK   12  A    between atoms: C_30  and  O_31
REMARK                            x       y       z     vdW  Elec       q    Type
REMARK                         _______ _______ _______ _____ _____    ______ ____
ROOT
ATOM      1  O   UNL     1      34.490 -22.383 -14.621  0.00  0.00    -0.272 OA
ATOM      2  N   UNL     1      33.465 -23.086 -16.577  0.00  0.00    -0.269 N 
ATOM      3  C   UNL     1      34.424 -23.178 -15.564  0.00  0.00    +0.254 C 
ENDROOT
BRANCH   2   4
ATOM      4  C   UNL     1      33.653 -23.487 -17.971  0.00  0.00    +0.121 C 
BRANCH   4   5
ATOM      5  C   UNL     1      34.054 -22.329 -18.838  0.00  0.00    -0.002 C 
ATOM      6  C   UNL     1      35.404 -22.036 -19.029  0.00  0.00    -0.003 C 
ATOM      7  C   UNL     1      33.077 -21.547 -19.453  0.00  0.00    -0.003 C 
ATOM      8  C   UNL     1      35.776 -20.960 -19.835  0.00  0.00    -0.000 C 
ATOM      9  C   UNL     1      33.449 -20.471 -20.258  0.00  0.00    -0.000 C 
ATOM     10  C   UNL     1      34.799 -20.178 -20.449  0.00  0.00    -0.000 C 
ENDBRANCH   4   5
ENDBRANCH   2   4
BRANCH   2  11
ATOM     11  C   UNL     1      32.159 -22.514 -16.273  0.00  0.00    +0.121 C 
BRANCH  11  12
ATOM     12  C   UNL     1      31.220 -23.533 -15.694  0.00  0.00    -0.002 C 
ATOM     13  C   UNL     1      31.633 -24.336 -14.630  0.00  0.00    -0.003 C 
ATOM     14  C   UNL     1      29.936 -23.676 -16.218  0.00  0.00    -0.003 C 
ATOM     15  C   UNL     1      30.762 -25.283 -14.092  0.00  0.00    -0.000 C 
ATOM     16  C   UNL     1      29.065 -24.623 -15.680  0.00  0.00    -0.000 C 
ATOM     17  C   UNL     1      29.477 -25.426 -14.617  0.00  0.00    -0.000 C 
ENDBRANCH  11  12
ENDBRANCH   2  11
BRANCH   3  18
ATOM     18  C   UNL     1      35.434 -24.321 -15.653  0.00  0.00    +0.196 C 
BRANCH  18  19
ATOM     19  O   UNL     1      36.613 -23.832 -16.285  0.00  0.00    -0.375 OA
ATOM     20  H   UNL     1      37.337 -24.464 -16.151  0.00  0.00    +0.211 HD
ENDBRANCH  18  19
BRANCH  18  21
ATOM     21  C   UNL     1      35.821 -24.812 -14.255  0.00  0.00    +0.125 C 
BRANCH  21  24
ATOM     22  O   UNL     1      37.574 -23.313 -13.553  0.00  0.00    -0.273 OA
ATOM     23  N   UNL     1      38.173 -25.513 -13.922  0.00  0.00    -0.216 N 
ATOM     24  C   UNL     1      37.262 -24.461 -13.878  0.00  0.00    +0.242 C 
BRANCH  23  25
ATOM     25  N   UNL     1      37.758 -26.789 -14.293  0.00  0.00    -0.250 NA
ATOM     26  H   UNL     1      36.957 -27.065 -13.724  0.00  0.00    +0.141 HD
ATOM     27  H   UNL     1      38.522 -27.450 -14.149  0.00  0.00    +0.141 HD
ENDBRANCH  23  25
BRANCH  23  28
ATOM     28  C   UNL     1      39.579 -25.356 -13.588  0.00  0.00    +0.220 C 
BRANCH  28  30
ATOM     29  O   UNL     1      41.358 -26.873 -14.159  0.00  0.00    -0.248 OA
ATOM     30  C   UNL     1      40.492 -26.093 -14.534  0.00  0.00    +0.336 C 
BRANCH  30  31
ATOM     31  O   UNL     1      40.262 -25.810 -15.838  0.00  0.00    -0.479 OA
ATOM     32  H   UNL     1      39.542 -25.262 -16.078  0.00  0.00    +0.295 HD
ENDBRANCH  30  31
ENDBRANCH  28  30
ENDBRANCH  23  28
ENDBRANCH  21  24
ENDBRANCH  18  21
ENDBRANCH   3  18
TORSDOF 12
ENDMDL
MODEL 3
REMARK VINA RESULT:      -9.1      8.802     11.857
REMARK  Name = 46937133
REMARK  12 active torsions:
REMARK  status: ('A' for Active; 'I' for Inactive)
REMARK    1  A    between atoms: N_2  and  C_4
REMARK    2  A    between atoms: N_2  and  C_11
REMARK    3  A    between atoms: C_3  and  C_18
REMARK    4  A    between atoms: C_4  and  C_5
REMARK    5  A    between atoms: C_11  and  C_12
REMARK    6  A    between atoms: C_18  and  O_19
REMARK    7  A    between atoms: C_18  and  C_21
REMARK    8  A    between atoms: C_21  and  C_24
REMARK    9  A    between atoms: N_23  and  N_25
REMARK   10  A    between atoms: N_23  and  C_28
REMARK   11  A    between atoms: C_28  and  C_30
REMARK   12  A    between atoms: C_30  and  O_31
REMARK                            x       y       z     vdW  Elec       q    Type
REMARK                         _______ _______ _______ _____ _____    ______ ____
ROOT
ATOM      1  O   UNL     1      32.601 -15.218 -19.877  0.00  0.00    -0.272 OA
ATOM      2  N   UNL     1      33.127 -14.121 -21.849  0.00  0.00    -0.269 N 
ATOM      3  C   UNL     1      33.268 -15.151 -20.915  0.00  0.00    +0.254 C 
ENDROOT
BRANCH   2   4
ATOM      4  C   UNL     1      34.192 -13.579 -22.691  0.00  0.00    +0.121 C 
BRANCH   4   5
ATOM      5  C   UNL     1      33.822 -13.599 -24.146  0.00  0.00    -0.002 C 
ATOM      6  C   UNL     1      33.845 -12.417 -24.888  0.00  0.00    -0.003 C 
ATOM      7  C   UNL     1      33.456 -14.798 -24.756  0.00  0.00    -0.003 C 
ATOM      8  C   UNL     1      33.501 -12.436 -26.239  0.00  0.00    -0.000 C 
ATOM      9  C   UNL     1      33.112 -14.816 -26.108  0.00  0.00    -0.000 C 
ATOM     10  C   UNL     1      33.134 -13.635 -26.849  0.00  0.00    -0.000 C 
ENDBRANCH   4   5
ENDBRANCH   2   4
BRANCH   2  11
ATOM     11  C   UNL     1      31.829 -13.476 -22.009  0.00  0.00    +0.121 C 
BRANCH  11  12
ATOM     12  C   UNL     1      31.806 -12.103 -21.401  0.00  0.00    -0.002 C 
ATOM     13  C   UNL     1      31.759 -11.954 -20.015  0.00  0.00    -0.003 C 
ATOM     14  C   UNL     1      31.832 -10.976 -22.222  0.00  0.00    -0.003 C 
ATOM     15  C   UNL     1      31.737 -10.679 -19.450  0.00  0.00    -0.000 C 
ATOM     16  C   UNL     1      31.811  -9.701 -21.658  0.00  0.00    -0.000 C 
ATOM     17  C   UNL     1      31.764  -9.553 -20.272  0.00  0.00    -0.000 C 
ENDBRANCH  11  12
ENDBRANCH   2  11
BRANCH   3  18
ATOM     18  C   UNL     1      34.309 -16.230 -21.208  0.00  0.00    +0.196 C 
BRANCH  18  19
ATOM     19  O   UNL     1      35.239 -16.265 -20.130  0.00  0.00    -0.375 OA
ATOM     20  H   UNL     1      35.853 -17.005 -20.257  0.00  0.00    +0.211 HD
ENDBRANCH  18  19
BRANCH  18  21
ATOM     21  C   UNL     1      33.649 -17.608 -21.303  0.00  0.00    +0.125 C 
BRANCH  21  24
ATOM     22  O   UNL     1      35.834 -18.626 -21.312  0.00  0.00    -0.273 OA
ATOM     23  N   UNL     1      34.082 -19.932 -20.563  0.00  0.00    -0.216 N 
ATOM     24  C   UNL     1      34.633 -18.757 -21.068  0.00  0.00    +0.242 C 
BRANCH  23  25
ATOM     25  N   UNL     1      32.717 -20.016 -20.303  0.00  0.00    -0.250 NA
ATOM     26  H   UNL     1      32.571 -20.304 -19.335  0.00  0.00    +0.141 HD
ATOM     27  H   UNL     1      32.293 -20.701 -20.929  0.00  0.00    +0.141 HD
ENDBRANCH  23  25
BRANCH  23  28
ATOM     28  C   UNL     1      34.874 -21.116 -20.274  0.00  0.00    +0.220 C 
BRANCH  28  30
ATOM     29  O   UNL     1      33.054 -22.490 -19.506  0.00  0.00    -0.248 OA
ATOM     30  C   UNL     1      34.187 -22.063 -19.324  0.00  0.00    +0.336 C 
BRANCH  30  31
ATOM     31  O   UNL     1      34.942 -22.397 -18.252  0.00  0.00    -0.479 OA
ATOM     32  H   UNL     1      35.712 -22.918 -18.365  0.00  0.00    +0.295 HD
ENDBRANCH  30  31
ENDBRANCH  28  30
ENDBRANCH  23  28
ENDBRANCH  21  24
ENDBRANCH  18  21
ENDBRANCH   3  18
TORSDOF 12
ENDMDL
MODEL 4
REMARK VINA RESULT:      -9.1      2.080      5.516
REMARK  Name = 46937133
REMARK  12 active torsions:
REMARK  status: ('A' for Active; 'I' for Inactive)
REMARK    1  A    between atoms: N_2  and  C_4
REMARK    2  A    between atoms: N_2  and  C_11
REMARK    3  A    between atoms: C_3  and  C_18
REMARK    4  A    between atoms: C_4  and  C_5
REMARK    5  A    between atoms: C_11  and  C_12
REMARK    6  A    between atoms: C_18  and  O_19
REMARK    7  A    between atoms: C_18  and  C_21
REMARK    8  A    between atoms: C_21  and  C_24
REMARK    9  A    between atoms: N_23  and  N_25
REMARK   10  A    between atoms: N_23  and  C_28
REMARK   11  A    between atoms: C_28  and  C_30
REMARK   12  A    between atoms: C_30  and  O_31
REMARK                            x       y       z     vdW  Elec       q    Type
REMARK                         _______ _______ _______ _____ _____    ______ ____
ROOT
ATOM      1  O   UNL     1      34.630 -22.447 -14.934  0.00  0.00    -0.272 OA
ATOM      2  N   UNL     1      33.432 -23.033 -16.828  0.00  0.00    -0.269 N 
ATOM      3  C   UNL     1      34.476 -23.186 -15.911  0.00  0.00    +0.254 C 
ENDROOT
BRANCH   2   4
ATOM      4  C   UNL     1      33.492 -23.353 -18.254  0.00  0.00    +0.121 C 
BRANCH   4   5
ATOM      5  C   UNL     1      33.981 -22.192 -19.070  0.00  0.00    -0.002 C 
ATOM      6  C   UNL     1      33.066 -21.330 -19.675  0.00  0.00    -0.003 C 
ATOM      7  C   UNL     1      35.350 -21.974 -19.223  0.00  0.00    -0.003 C 
ATOM      8  C   UNL     1      33.520 -20.252 -20.434  0.00  0.00    -0.000 C 
ATOM      9  C   UNL     1      35.804 -20.896 -19.982  0.00  0.00    -0.000 C 
ATOM     10  C   UNL     1      34.889 -20.034 -20.587  0.00  0.00    -0.000 C 
ENDBRANCH   4   5
ENDBRANCH   2   4
BRANCH   2  11
ATOM     11  C   UNL     1      32.161 -22.476 -16.378  0.00  0.00    +0.121 C 
BRANCH  11  12
ATOM     12  C   UNL     1      31.279 -23.521 -15.757  0.00  0.00    -0.002 C 
ATOM     13  C   UNL     1      30.009 -23.763 -16.283  0.00  0.00    -0.003 C 
ATOM     14  C   UNL     1      31.728 -24.249 -14.656  0.00  0.00    -0.003 C 
ATOM     15  C   UNL     1      29.189 -24.733 -15.706  0.00  0.00    -0.000 C 
ATOM     16  C   UNL     1      30.908 -25.218 -14.080  0.00  0.00    -0.000 C 
ATOM     17  C   UNL     1      29.639 -25.460 -14.605  0.00  0.00    -0.000 C 
ENDBRANCH  11  12
ENDBRANCH   2  11
BRANCH   3  18
ATOM     18  C   UNL     1      35.465 -24.324 -16.155  0.00  0.00    +0.196 C 
BRANCH  18  19
ATOM     19  O   UNL     1      36.786 -23.793 -16.099  0.00  0.00    -0.375 OA
ATOM     20  H   UNL     1      37.400 -24.409 -16.529  0.00  0.00    +0.211 HD
ENDBRANCH  18  19
BRANCH  18  21
ATOM     21  C   UNL     1      35.342 -25.392 -15.064  0.00  0.00    +0.125 C 
BRANCH  21  24
ATOM     22  O   UNL     1      37.594 -25.898 -14.370  0.00  0.00    -0.273 OA
ATOM     23  N   UNL     1      36.279 -24.737 -12.867  0.00  0.00    -0.216 N 
ATOM     24  C   UNL     1      36.515 -25.376 -14.081  0.00  0.00    +0.242 C 
BRANCH  23  25
ATOM     25  N   UNL     1      35.039 -24.163 -12.602  0.00  0.00    -0.250 NA
ATOM     26  H   UNL     1      34.654 -23.772 -13.462  0.00  0.00    +0.141 HD
ATOM     27  H   UNL     1      35.149 -23.420 -11.911  0.00  0.00    +0.141 HD
ENDBRANCH  23  25
BRANCH  23  28
ATOM     28  C   UNL     1      37.286 -24.624 -11.824  0.00  0.00    +0.220 C 
BRANCH  28  30
ATOM     29  O   UNL     1      36.358 -23.898  -9.725  0.00  0.00    -0.248 OA
ATOM     30  C   UNL     1      36.927 -23.608 -10.771  0.00  0.00    +0.336 C 
BRANCH  30  31
ATOM     31  O   UNL     1      37.294 -22.345 -11.090  0.00  0.00    -0.479 OA
ATOM     32  H   UNL     1      37.322 -21.684 -10.428  0.00  0.00    +0.295 HD
ENDBRANCH  30  31
ENDBRANCH  28  30
ENDBRANCH  23  28
ENDBRANCH  21  24
ENDBRANCH  18  21
ENDBRANCH   3  18
TORSDOF 12
ENDMDL
MODEL 5
REMARK VINA RESULT:      -8.5     12.705     15.232
REMARK  Name = 46937133
REMARK  12 active torsions:
REMARK  status: ('A' for Active; 'I' for Inactive)
REMARK    1  A    between atoms: N_2  and  C_4
REMARK    2  A    between atoms: N_2  and  C_11
REMARK    3  A    between atoms: C_3  and  C_18
REMARK    4  A    between atoms: C_4  and  C_5
REMARK    5  A    between atoms: C_11  and  C_12
REMARK    6  A    between atoms: C_18  and  O_19
REMARK    7  A    between atoms: C_18  and  C_21
REMARK    8  A    between atoms: C_21  and  C_24
REMARK    9  A    between atoms: N_23  and  N_25
REMARK   10  A    between atoms: N_23  and  C_28
REMARK   11  A    between atoms: C_28  and  C_30
REMARK   12  A    between atoms: C_30  and  O_31
REMARK                            x       y       z     vdW  Elec       q    Type
REMARK                         _______ _______ _______ _____ _____    ______ ____
ROOT
ATOM      1  O   UNL     1      34.816 -10.715 -25.240  0.00  0.00    -0.272 OA
ATOM      2  N   UNL     1      33.320  -9.932 -23.655  0.00  0.00    -0.269 N 
ATOM      3  C   UNL     1      33.906 -10.933 -24.435  0.00  0.00    +0.254 C 
ENDROOT
BRANCH   2   4
ATOM      4  C   UNL     1      31.927  -9.901 -23.209  0.00  0.00    +0.121 C 
BRANCH   4   5
ATOM      5  C   UNL     1      31.805 -10.150 -21.733  0.00  0.00    -0.002 C 
ATOM      6  C   UNL     1      31.574 -11.441 -21.261  0.00  0.00    -0.003 C 
ATOM      7  C   UNL     1      31.922  -9.089 -20.836  0.00  0.00    -0.003 C 
ATOM      8  C   UNL     1      31.459 -11.672 -19.890  0.00  0.00    -0.000 C 
ATOM      9  C   UNL     1      31.807  -9.320 -19.465  0.00  0.00    -0.000 C 
ATOM     10  C   UNL     1      31.576 -10.612 -18.992  0.00  0.00    -0.000 C 
ENDBRANCH   4   5
ENDBRANCH   2   4
BRANCH   2  11
ATOM     11  C   UNL     1      34.118  -8.778 -23.256  0.00  0.00    +0.121 C 
BRANCH  11  12
ATOM     12  C   UNL     1      33.770  -7.553 -24.052  0.00  0.00    -0.002 C 
ATOM     13  C   UNL     1      32.545  -6.916 -23.854  0.00  0.00    -0.003 C 
ATOM     14  C   UNL     1      34.673  -7.052 -24.990  0.00  0.00    -0.003 C 
ATOM     15  C   UNL     1      32.222  -5.779 -24.593  0.00  0.00    -0.000 C 
ATOM     16  C   UNL     1      34.350  -5.915 -25.730  0.00  0.00    -0.000 C 
ATOM     17  C   UNL     1      33.125  -5.278 -25.531  0.00  0.00    -0.000 C 
ENDBRANCH  11  12
ENDBRANCH   2  11
BRANCH   3  18
ATOM     18  C   UNL     1      33.373 -12.355 -24.271  0.00  0.00    +0.196 C 
BRANCH  18  19
ATOM     19  O   UNL     1      33.483 -13.025 -25.522  0.00  0.00    -0.375 OA
ATOM     20  H   UNL     1      34.384 -13.369 -25.627  0.00  0.00    +0.211 HD
ENDBRANCH  18  19
BRANCH  18  21
ATOM     21  C   UNL     1      34.207 -13.132 -23.248  0.00  0.00    +0.125 C 
BRANCH  21  24
ATOM     22  O   UNL     1      33.377 -15.174 -24.222  0.00  0.00    -0.273 OA
ATOM     23  N   UNL     1      34.266 -15.323 -22.096  0.00  0.00    -0.216 N 
ATOM     24  C   UNL     1      33.904 -14.632 -23.248  0.00  0.00    +0.242 C 
BRANCH  23  25
ATOM     25  N   UNL     1      34.863 -14.654 -21.030  0.00  0.00    -0.250 NA
ATOM     26  H   UNL     1      34.466 -13.717 -20.952  0.00  0.00    +0.141 HD
ATOM     27  H   UNL     1      35.868 -14.585 -21.192  0.00  0.00    +0.141 HD
ENDBRANCH  23  25
BRANCH  23  28
ATOM     28  C   UNL     1      34.057 -16.752 -21.932  0.00  0.00    +0.220 C 
BRANCH  28  30
ATOM     29  O   UNL     1      35.708 -17.899 -20.609  0.00  0.00    -0.248 OA
ATOM     30  C   UNL     1      35.340 -17.511 -21.710  0.00  0.00    +0.336 C 
BRANCH  30  31
ATOM     31  O   UNL     1      36.046 -17.722 -22.845  0.00  0.00    -0.479 OA
ATOM     32  H   UNL     1      36.197 -18.596 -23.147  0.00  0.00    +0.295 HD
ENDBRANCH  30  31
ENDBRANCH  28  30
ENDBRANCH  23  28
ENDBRANCH  21  24
ENDBRANCH  18  21
ENDBRANCH   3  18
TORSDOF 12
ENDMDL
MODEL 6
REMARK VINA RESULT:      -8.5      9.108     12.042
REMARK  Name = 46937133
REMARK  12 active torsions:
REMARK  status: ('A' for Active; 'I' for Inactive)
REMARK    1  A    between atoms: N_2  and  C_4
REMARK    2  A    between atoms: N_2  and  C_11
REMARK    3  A    between atoms: C_3  and  C_18
REMARK    4  A    between atoms: C_4  and  C_5
REMARK    5  A    between atoms: C_11  and  C_12
REMARK    6  A    between atoms: C_18  and  O_19
REMARK    7  A    between atoms: C_18  and  C_21
REMARK    8  A    between atoms: C_21  and  C_24
REMARK    9  A    between atoms: N_23  and  N_25
REMARK   10  A    between atoms: N_23  and  C_28
REMARK   11  A    between atoms: C_28  and  C_30
REMARK   12  A    between atoms: C_30  and  O_31
REMARK                            x       y       z     vdW  Elec       q    Type
REMARK                         _______ _______ _______ _____ _____    ______ ____
ROOT
ATOM      1  O   UNL     1      32.913 -15.107 -20.001  0.00  0.00    -0.272 OA
ATOM      2  N   UNL     1      33.251 -13.932 -21.969  0.00  0.00    -0.269 N 
ATOM      3  C   UNL     1      33.512 -14.972 -21.072  0.00  0.00    +0.254 C 
ENDROOT
BRANCH   2   4
ATOM      4  C   UNL     1      34.228 -13.301 -22.855  0.00  0.00    +0.121 C 
BRANCH   4   5
ATOM      5  C   UNL     1      33.817 -13.389 -24.297  0.00  0.00    -0.002 C 
ATOM      6  C   UNL     1      33.404 -14.609 -24.831  0.00  0.00    -0.003 C 
ATOM      7  C   UNL     1      33.850 -12.251 -25.101  0.00  0.00    -0.003 C 
ATOM      8  C   UNL     1      33.023 -14.691 -26.170  0.00  0.00    -0.000 C 
ATOM      9  C   UNL     1      33.470 -12.333 -26.441  0.00  0.00    -0.000 C 
ATOM     10  C   UNL     1      33.056 -13.553 -26.975  0.00  0.00    -0.000 C 
ENDBRANCH   4   5
ENDBRANCH   2   4
BRANCH   2  11
ATOM     11  C   UNL     1      31.907 -13.368 -22.037  0.00  0.00    +0.121 C 
BRANCH  11  12
ATOM     12  C   UNL     1      31.832 -12.017 -21.387  0.00  0.00    -0.002 C 
ATOM     13  C   UNL     1      31.848 -10.863 -22.171  0.00  0.00    -0.003 C 
ATOM     14  C   UNL     1      31.745 -11.915 -19.998  0.00  0.00    -0.003 C 
ATOM     15  C   UNL     1      31.779  -9.608 -21.567  0.00  0.00    -0.000 C 
ATOM     16  C   UNL     1      31.676 -10.660 -19.395  0.00  0.00    -0.000 C 
ATOM     17  C   UNL     1      31.692  -9.506 -20.179  0.00  0.00    -0.000 C 
ENDBRANCH  11  12
ENDBRANCH   2  11
BRANCH   3  18
ATOM     18  C   UNL     1      34.601 -15.973 -21.454  0.00  0.00    +0.196 C 
BRANCH  18  19
ATOM     19  O   UNL     1      35.185 -16.482 -20.259  0.00  0.00    -0.375 OA
ATOM     20  H   UNL     1      34.592 -16.311 -19.511  0.00  0.00    +0.211 HD
ENDBRANCH  18  19
BRANCH  18  21
ATOM     21  C   UNL     1      34.004 -17.154 -22.225  0.00  0.00    +0.125 C 
BRANCH  21  24
ATOM     22  O   UNL     1      32.949 -18.660 -20.666  0.00  0.00    -0.273 OA
ATOM     23  N   UNL     1      35.005 -19.301 -21.501  0.00  0.00    -0.216 N 
ATOM     24  C   UNL     1      33.923 -18.432 -21.386  0.00  0.00    +0.242 C 
BRANCH  23  25
ATOM     25  N   UNL     1      36.075 -18.989 -22.336  0.00  0.00    -0.250 NA
ATOM     26  H   UNL     1      36.758 -18.434 -21.820  0.00  0.00    +0.141 HD
ATOM     27  H   UNL     1      35.736 -18.454 -23.136  0.00  0.00    +0.141 HD
ENDBRANCH  23  25
BRANCH  23  28
ATOM     28  C   UNL     1      35.086 -20.561 -20.781  0.00  0.00    +0.220 C 
BRANCH  28  30
ATOM     29  O   UNL     1      36.734 -21.731 -19.474  0.00  0.00    -0.248 OA
ATOM     30  C   UNL     1      36.324 -20.670 -19.928  0.00  0.00    +0.336 C 
BRANCH  30  31
ATOM     31  O   UNL     1      36.938 -19.484 -19.712  0.00  0.00    -0.479 OA
ATOM     32  H   UNL     1      37.046 -19.165 -18.838  0.00  0.00    +0.295 HD
ENDBRANCH  30  31
ENDBRANCH  28  30
ENDBRANCH  23  28
ENDBRANCH  21  24
ENDBRANCH  18  21
ENDBRANCH   3  18
TORSDOF 12
ENDMDL
MODEL 7
REMARK VINA RESULT:      -8.4      3.295      7.701
REMARK  Name = 46937133
REMARK  12 active torsions:
REMARK  status: ('A' for Active; 'I' for Inactive)
REMARK    1  A    between atoms: N_2  and  C_4
REMARK    2  A    between atoms: N_2  and  C_11
REMARK    3  A    between atoms: C_3  and  C_18
REMARK    4  A    between atoms: C_4  and  C_5
REMARK    5  A    between atoms: C_11  and  C_12
REMARK    6  A    between atoms: C_18  and  O_19
REMARK    7  A    between atoms: C_18  and  C_21
REMARK    8  A    between atoms: C_21  and  C_24
REMARK    9  A    between atoms: N_23  and  N_25
REMARK   10  A    between atoms: N_23  and  C_28
REMARK   11  A    between atoms: C_28  and  C_30
REMARK   12  A    between atoms: C_30  and  O_31
REMARK                            x       y       z     vdW  Elec       q    Type
REMARK                         _______ _______ _______ _____ _____    ______ ____
ROOT
ATOM      1  O   UNL     1      33.008 -22.602 -13.642  0.00  0.00    -0.272 OA
ATOM      2  N   UNL     1      34.514 -23.842 -14.892  0.00  0.00    -0.269 N 
ATOM      3  C   UNL     1      33.257 -23.595 -14.332  0.00  0.00    +0.254 C 
ENDROOT
BRANCH   2   4
ATOM      4  C   UNL     1      35.099 -25.160 -15.131  0.00  0.00    +0.121 C 
BRANCH   4   5
ATOM      5  C   UNL     1      36.403 -25.335 -14.407  0.00  0.00    -0.002 C 
ATOM      6  C   UNL     1      37.567 -25.609 -15.124  0.00  0.00    -0.003 C 
ATOM      7  C   UNL     1      36.448 -25.226 -13.018  0.00  0.00    -0.003 C 
ATOM      8  C   UNL     1      38.778 -25.772 -14.451  0.00  0.00    -0.000 C 
ATOM      9  C   UNL     1      37.659 -25.389 -12.345  0.00  0.00    -0.000 C 
ATOM     10  C   UNL     1      38.824 -25.663 -13.062  0.00  0.00    -0.000 C 
ENDBRANCH   4   5
ENDBRANCH   2   4
BRANCH   2  11
ATOM     11  C   UNL     1      35.368 -22.716 -15.253  0.00  0.00    +0.121 C 
BRANCH  11  12
ATOM     12  C   UNL     1      35.347 -22.447 -16.730  0.00  0.00    -0.002 C 
ATOM     13  C   UNL     1      34.204 -22.737 -17.476  0.00  0.00    -0.003 C 
ATOM     14  C   UNL     1      36.470 -21.907 -17.357  0.00  0.00    -0.003 C 
ATOM     15  C   UNL     1      34.185 -22.488 -18.848  0.00  0.00    -0.000 C 
ATOM     16  C   UNL     1      36.450 -21.657 -18.728  0.00  0.00    -0.000 C 
ATOM     17  C   UNL     1      35.308 -21.947 -19.474  0.00  0.00    -0.000 C 
ENDBRANCH  11  12
ENDBRANCH   2  11
BRANCH   3  18
ATOM     18  C   UNL     1      32.156 -24.621 -14.594  0.00  0.00    +0.196 C 
BRANCH  18  19
ATOM     19  O   UNL     1      32.300 -25.686 -13.659  0.00  0.00    -0.375 OA
ATOM     20  H   UNL     1      31.520 -25.718 -13.084  0.00  0.00    +0.211 HD
ENDBRANCH  18  19
BRANCH  18  21
ATOM     21  C   UNL     1      30.773 -23.997 -14.385  0.00  0.00    +0.125 C 
BRANCH  21  24
ATOM     22  O   UNL     1      30.837 -22.666 -16.393  0.00  0.00    -0.273 OA
ATOM     23  N   UNL     1      28.875 -23.808 -15.965  0.00  0.00    -0.216 N 
ATOM     24  C   UNL     1      30.180 -23.420 -15.672  0.00  0.00    +0.242 C 
BRANCH  23  25
ATOM     25  N   UNL     1      28.187 -24.667 -15.112  0.00  0.00    -0.250 NA
ATOM     26  H   UNL     1      28.410 -25.634 -15.351  0.00  0.00    +0.141 HD
ATOM     27  H   UNL     1      27.183 -24.514 -15.213  0.00  0.00    +0.141 HD
ENDBRANCH  23  25
BRANCH  23  28
ATOM     28  C   UNL     1      28.164 -23.360 -17.151  0.00  0.00    +0.220 C 
BRANCH  28  30
ATOM     29  O   UNL     1      26.956 -21.335 -17.632  0.00  0.00    -0.248 OA
ATOM     30  C   UNL     1      27.175 -22.260 -16.860  0.00  0.00    +0.336 C 
BRANCH  30  31
ATOM     31  O   UNL     1      26.552 -22.394 -15.666  0.00  0.00    -0.479 OA
ATOM     32  H   UNL     1      26.159 -21.649 -15.257  0.00  0.00    +0.295 HD
ENDBRANCH  30  31
ENDBRANCH  28  30
ENDBRANCH  23  28
ENDBRANCH  21  24
ENDBRANCH  18  21
ENDBRANCH   3  18
TORSDOF 12
ENDMDL
MODEL 8
REMARK VINA RESULT:      -8.2      3.845      7.553
REMARK  Name = 46937133
REMARK  12 active torsions:
REMARK  status: ('A' for Active; 'I' for Inactive)
REMARK    1  A    between atoms: N_2  and  C_4
REMARK    2  A    between atoms: N_2  and  C_11
REMARK    3  A    between atoms: C_3  and  C_18
REMARK    4  A    between atoms: C_4  and  C_5
REMARK    5  A    between atoms: C_11  and  C_12
REMARK    6  A    between atoms: C_18  and  O_19
REMARK    7  A    between atoms: C_18  and  C_21
REMARK    8  A    between atoms: C_21  and  C_24
REMARK    9  A    between atoms: N_23  and  N_25
REMARK   10  A    between atoms: N_23  and  C_28
REMARK   11  A    between atoms: C_28  and  C_30
REMARK   12  A    between atoms: C_30  and  O_31
REMARK                            x       y       z     vdW  Elec       q    Type
REMARK                         _______ _______ _______ _____ _____    ______ ____
ROOT
ATOM      1  O   UNL     1      32.085 -22.594 -17.972  0.00  0.00    -0.272 OA
ATOM      2  N   UNL     1      33.267 -23.484 -16.189  0.00  0.00    -0.269 N 
ATOM      3  C   UNL     1      33.144 -23.021 -17.502  0.00  0.00    +0.254 C 
ENDROOT
BRANCH   2   4
ATOM      4  C   UNL     1      34.169 -24.542 -15.735  0.00  0.00    +0.121 C 
BRANCH   4   5
ATOM      5  C   UNL     1      35.080 -24.071 -14.639  0.00  0.00    -0.002 C 
ATOM      6  C   UNL     1      34.774 -24.354 -13.308  0.00  0.00    -0.003 C 
ATOM      7  C   UNL     1      36.232 -23.351 -14.952  0.00  0.00    -0.003 C 
ATOM      8  C   UNL     1      35.620 -23.916 -12.290  0.00  0.00    -0.000 C 
ATOM      9  C   UNL     1      37.078 -22.913 -13.933  0.00  0.00    -0.000 C 
ATOM     10  C   UNL     1      36.772 -23.196 -12.602  0.00  0.00    -0.000 C 
ENDBRANCH   4   5
ENDBRANCH   2   4
BRANCH   2  11
ATOM     11  C   UNL     1      32.416 -22.915 -15.149  0.00  0.00    +0.121 C 
BRANCH  11  12
ATOM     12  C   UNL     1      31.074 -23.586 -15.093  0.00  0.00    -0.002 C 
ATOM     13  C   UNL     1      30.967 -24.893 -14.617  0.00  0.00    -0.003 C 
ATOM     14  C   UNL     1      29.935 -22.903 -15.517  0.00  0.00    -0.003 C 
ATOM     15  C   UNL     1      29.721 -25.517 -14.566  0.00  0.00    -0.000 C 
ATOM     16  C   UNL     1      28.689 -23.527 -15.466  0.00  0.00    -0.000 C 
ATOM     17  C   UNL     1      28.581 -24.834 -14.990  0.00  0.00    -0.000 C 
ENDBRANCH  11  12
ENDBRANCH   2  11
BRANCH   3  18
ATOM     18  C   UNL     1      34.392 -23.065 -18.383  0.00  0.00    +0.196 C 
BRANCH  18  19
ATOM     19  O   UNL     1      34.024 -23.570 -19.662  0.00  0.00    -0.375 OA
ATOM     20  H   UNL     1      33.839 -22.829 -20.261  0.00  0.00    +0.211 HD
ENDBRANCH  18  19
BRANCH  18  21
ATOM     21  C   UNL     1      34.964 -21.658 -18.581  0.00  0.00    +0.125 C 
BRANCH  21  24
ATOM     22  O   UNL     1      33.242 -21.095 -20.171  0.00  0.00    -0.273 OA
ATOM     23  N   UNL     1      35.334 -20.188 -20.539  0.00  0.00    -0.216 N 
ATOM     24  C   UNL     1      34.420 -20.965 -19.832  0.00  0.00    +0.242 C 
BRANCH  23  25
ATOM     25  N   UNL     1      36.651 -20.076 -20.102  0.00  0.00    -0.250 NA
ATOM     26  H   UNL     1      36.826 -20.763 -19.368  0.00  0.00    +0.141 HD
ATOM     27  H   UNL     1      36.809 -19.137 -19.735  0.00  0.00    +0.141 HD
ENDBRANCH  23  25
BRANCH  23  28
ATOM     28  C   UNL     1      34.984 -19.456 -21.745  0.00  0.00    +0.220 C 
BRANCH  28  30
ATOM     29  O   UNL     1      35.320 -17.284 -20.764  0.00  0.00    -0.248 OA
ATOM     30  C   UNL     1      35.467 -18.028 -21.725  0.00  0.00    +0.336 C 
BRANCH  30  31
ATOM     31  O   UNL     1      36.078 -17.648 -22.871  0.00  0.00    -0.479 OA
ATOM     32  H   UNL     1      36.743 -18.188 -23.249  0.00  0.00    +0.295 HD
ENDBRANCH  30  31
ENDBRANCH  28  30
ENDBRANCH  23  28
ENDBRANCH  21  24
ENDBRANCH  18  21
ENDBRANCH   3  18
TORSDOF 12
ENDMDL
MODEL 9
REMARK VINA RESULT:      -8.1     12.884     16.174
REMARK  Name = 46937133
REMARK  12 active torsions:
REMARK  status: ('A' for Active; 'I' for Inactive)
REMARK    1  A    between atoms: N_2  and  C_4
REMARK    2  A    between atoms: N_2  and  C_11
REMARK    3  A    between atoms: C_3  and  C_18
REMARK    4  A    between atoms: C_4  and  C_5
REMARK    5  A    between atoms: C_11  and  C_12
REMARK    6  A    between atoms: C_18  and  O_19
REMARK    7  A    between atoms: C_18  and  C_21
REMARK    8  A    between atoms: C_21  and  C_24
REMARK    9  A    between atoms: N_23  and  N_25
REMARK   10  A    between atoms: N_23  and  C_28
REMARK   11  A    between atoms: C_28  and  C_30
REMARK   12  A    between atoms: C_30  and  O_31
REMARK                            x       y       z     vdW  Elec       q    Type
REMARK                         _______ _______ _______ _____ _____    ______ ____
ROOT
ATOM      1  O   UNL     1      32.244 -13.121 -20.375  0.00  0.00    -0.272 OA
ATOM      2  N   UNL     1      33.129 -13.009 -22.513  0.00  0.00    -0.269 N 
ATOM      3  C   UNL     1      32.274 -12.590 -21.489  0.00  0.00    +0.254 C 
ENDROOT
BRANCH   2   4
ATOM      4  C   UNL     1      32.842 -12.948 -23.946  0.00  0.00    +0.121 C 
BRANCH   4   5
ATOM      5  C   UNL     1      33.745 -11.984 -24.659  0.00  0.00    -0.002 C 
ATOM      6  C   UNL     1      34.126 -12.231 -25.978  0.00  0.00    -0.003 C 
ATOM      7  C   UNL     1      34.205 -10.843 -24.003  0.00  0.00    -0.003 C 
ATOM      8  C   UNL     1      34.966 -11.336 -26.640  0.00  0.00    -0.000 C 
ATOM      9  C   UNL     1      35.045  -9.948 -24.665  0.00  0.00    -0.000 C 
ATOM     10  C   UNL     1      35.425 -10.195 -25.984  0.00  0.00    -0.000 C 
ENDBRANCH   4   5
ENDBRANCH   2   4
BRANCH   2  11
ATOM     11  C   UNL     1      34.419 -13.598 -22.170  0.00  0.00    +0.121 C 
BRANCH  11  12
ATOM     12  C   UNL     1      34.420 -15.089 -22.350  0.00  0.00    -0.002 C 
ATOM     13  C   UNL     1      34.119 -15.922 -21.272  0.00  0.00    -0.003 C 
ATOM     14  C   UNL     1      34.724 -15.641 -23.594  0.00  0.00    -0.003 C 
ATOM     15  C   UNL     1      34.121 -17.306 -21.439  0.00  0.00    -0.000 C 
ATOM     16  C   UNL     1      34.726 -17.025 -23.761  0.00  0.00    -0.000 C 
ATOM     17  C   UNL     1      34.424 -17.858 -22.683  0.00  0.00    -0.000 C 
ENDBRANCH  11  12
ENDBRANCH   2  11
BRANCH   3  18
ATOM     18  C   UNL     1      31.335 -11.423 -21.790  0.00  0.00    +0.196 C 
BRANCH  18  19
ATOM     19  O   UNL     1      30.048 -11.733 -21.265  0.00  0.00    -0.375 OA
ATOM     20  H   UNL     1      30.130 -11.968 -20.328  0.00  0.00    +0.211 HD
ENDBRANCH  18  19
BRANCH  18  21
ATOM     21  C   UNL     1      31.826 -10.144 -21.106  0.00  0.00    +0.125 C 
BRANCH  21  24
ATOM     22  O   UNL     1      31.385  -9.011 -23.187  0.00  0.00    -0.273 OA
ATOM     23  N   UNL     1      32.401  -7.772 -21.524  0.00  0.00    -0.216 N 
ATOM     24  C   UNL     1      31.845  -8.936 -22.046  0.00  0.00    +0.242 C 
BRANCH  23  25
ATOM     25  N   UNL     1      32.900  -7.750 -20.225  0.00  0.00    -0.250 NA
ATOM     26  H   UNL     1      33.475  -8.578 -20.066  0.00  0.00    +0.141 HD
ATOM     27  H   UNL     1      32.124  -7.742 -19.562  0.00  0.00    +0.141 HD
ENDBRANCH  23  25
BRANCH  23  28
ATOM     28  C   UNL     1      32.492  -6.532 -22.278  0.00  0.00    +0.220 C 
BRANCH  28  30
ATOM     29  O   UNL     1      30.641  -5.217 -23.076  0.00  0.00    -0.248 OA
ATOM     30  C   UNL     1      31.271  -5.662 -22.125  0.00  0.00    +0.336 C 
BRANCH  30  31
ATOM     31  O   UNL     1      30.937  -5.420 -20.836  0.00  0.00    -0.479 OA
ATOM     32  H   UNL     1      30.739  -4.548 -20.559  0.00  0.00    +0.295 HD
ENDBRANCH  30  31
ENDBRANCH  28  30
ENDBRANCH  23  28
ENDBRANCH  21  24
ENDBRANCH  18  21
ENDBRANCH   3  18
TORSDOF 12
ENDMDL
