MODEL 1
REMARK VINA RESULT:     -10.5      0.000      0.000
REMARK  Name = 5952
REMARK  4 active torsions:
REMARK  status: ('A' for Active; 'I' for Inactive)
REMARK    1  A    between atoms: C_7  and  C_22
REMARK    2  A    between atoms: C_22  and  C_23
REMARK    3  A    between atoms: C_23  and  O_24
REMARK    4  A    between atoms: O_24  and  C_26
REMARK                            x       y       z     vdW  Elec       q    Type
REMARK                         _______ _______ _______ _____ _____    ______ ____
ROOT
ATOM      1  O   UNL     1      40.192 -26.099 -14.011  0.00  0.00    -0.291 OA
ATOM      2  C   UNL     1      33.222 -23.600 -15.897  0.00  0.00    +0.000 C 
ATOM      3  C   UNL     1      32.104 -23.760 -14.845  0.00  0.00    +0.007 C 
ATOM      4  C   UNL     1      34.593 -23.321 -15.274  0.00  0.00    +0.001 C 
ATOM      5  C   UNL     1      34.971 -24.509 -14.335  0.00  0.00    +0.003 C 
ATOM      6  C   UNL     1      36.392 -24.338 -13.672  0.00  0.00    +0.016 C 
ATOM      7  C   UNL     1      30.898 -23.962 -15.789  0.00  0.00    +0.061 C 
ATOM      8  C   UNL     1      32.451 -24.975 -13.976  0.00  0.00    +0.000 C 
ATOM      9  C   UNL     1      33.837 -24.829 -13.322  0.00  0.00    +0.000 C 
ATOM     10  C   UNL     1      32.637 -22.595 -16.884  0.00  0.00    +0.000 C 
ATOM     11  C   UNL     1      31.143 -22.961 -16.938  0.00  0.00    +0.007 C 
ATOM     12  C   UNL     1      35.672 -23.138 -16.350  0.00  0.00    +0.004 C 
ATOM     13  C   UNL     1      31.904 -22.512 -13.946  0.00  0.00    +0.000 C 
ATOM     14  C   UNL     1      37.422 -23.983 -14.752  0.00  0.00    -0.042 C 
ATOM     15  C   UNL     1      37.038 -22.893 -15.724  0.00  0.00    +0.022 C 
ATOM     16  C   UNL     1      36.778 -25.683 -12.990  0.00  0.00    +0.012 C 
ATOM     17  C   UNL     1      36.402 -23.217 -12.609  0.00  0.00    +0.004 C 
ATOM     18  C   UNL     1      38.255 -25.787 -12.640  0.00  0.00    +0.069 C 
ATOM     19  C   UNL     1      38.628 -24.565 -14.860  0.00  0.00    +0.029 C 
ATOM     20  C   UNL     1      39.101 -25.552 -13.862  0.00  0.00    +0.173 C 
ENDROOT
BRANCH   7  22
ATOM     21  O   UNL     1      29.079 -24.633 -14.408  0.00  0.00    -0.292 OA
ATOM     22  C   UNL     1      29.564 -23.771 -15.139  0.00  0.00    +0.194 C 
BRANCH  22  23
ATOM     23  C   UNL     1      28.855 -22.465 -15.434  0.00  0.00    +0.272 C 
BRANCH  23  24
ATOM     24  O   UNL     1      27.522 -22.701 -15.832  0.00  0.00    -0.440 OA
BRANCH  24  26
ATOM     25  O   UNL     1      27.703 -23.264 -18.065  0.00  0.00    -0.250 OA
ATOM     26  C   UNL     1      27.255 -22.559 -17.170  0.00  0.00    +0.318 C 
ATOM     27  C   UNL     1      26.323 -21.407 -17.395  0.00  0.00    +0.121 C 
ENDBRANCH  24  26
ENDBRANCH  23  24
ENDBRANCH  22  23
ENDBRANCH   7  22
TORSDOF 4
ENDMDL
MODEL 2
REMARK VINA RESULT:      -9.3      3.582      7.731
REMARK  Name = 5952
REMARK  4 active torsions:
REMARK  status: ('A' for Active; 'I' for Inactive)
REMARK    1  A    between atoms: C_7  and  C_22
REMARK    2  A    between atoms: C_22  and  C_23
REMARK    3  A    between atoms: C_23  and  O_24
REMARK    4  A    between atoms: O_24  and  C_26
REMARK                            x       y       z     vdW  Elec       q    Type
REMARK                         _______ _______ _______ _____ _____    ______ ____
ROOT
ATOM      1  O   UNL     1      33.524 -18.833 -21.876  0.00  0.00    -0.291 OA
ATOM      2  C   UNL     1      36.241 -22.466 -15.727  0.00  0.00    +0.000 C 
ATOM      3  C   UNL     1      35.320 -23.507 -15.056  0.00  0.00    +0.007 C 
ATOM      4  C   UNL     1      36.068 -22.408 -17.248  0.00  0.00    +0.001 C 
ATOM      5  C   UNL     1      34.587 -22.033 -17.572  0.00  0.00    +0.003 C 
ATOM      6  C   UNL     1      34.311 -21.906 -19.119  0.00  0.00    +0.016 C 
ATOM      7  C   UNL     1      35.785 -23.345 -13.591  0.00  0.00    +0.061 C 
ATOM      8  C   UNL     1      33.869 -23.086 -15.319  0.00  0.00    +0.000 C 
ATOM      9  C   UNL     1      33.581 -22.952 -16.826  0.00  0.00    +0.000 C 
ATOM     10  C   UNL     1      37.615 -22.787 -15.149  0.00  0.00    +0.000 C 
ATOM     11  C   UNL     1      37.317 -23.190 -13.694  0.00  0.00    +0.007 C 
ATOM     12  C   UNL     1      37.019 -21.386 -17.883  0.00  0.00    +0.004 C 
ATOM     13  C   UNL     1      35.544 -24.959 -15.554  0.00  0.00    +0.000 C 
ATOM     14  C   UNL     1      35.384 -21.015 -19.759  0.00  0.00    -0.042 C 
ATOM     15  C   UNL     1      36.819 -21.309 -19.390  0.00  0.00    +0.022 C 
ATOM     16  C   UNL     1      32.905 -21.269 -19.315  0.00  0.00    +0.012 C 
ATOM     17  C   UNL     1      34.341 -23.279 -19.826  0.00  0.00    +0.004 C 
ATOM     18  C   UNL     1      32.662 -20.746 -20.722  0.00  0.00    +0.069 C 
ATOM     19  C   UNL     1      35.118 -20.024 -20.627  0.00  0.00    +0.029 C 
ATOM     20  C   UNL     1      33.743 -19.773 -21.115  0.00  0.00    +0.173 C 
ENDROOT
BRANCH   7  22
ATOM     21  O   UNL     1      34.201 -24.716 -12.459  0.00  0.00    -0.292 OA
ATOM     22  C   UNL     1      35.385 -24.469 -12.687  0.00  0.00    +0.194 C 
BRANCH  22  23
ATOM     23  C   UNL     1      36.513 -25.273 -12.077  0.00  0.00    +0.272 C 
BRANCH  23  24
ATOM     24  O   UNL     1      36.688 -26.492 -12.767  0.00  0.00    -0.440 OA
BRANCH  24  26
ATOM     25  O   UNL     1      37.903 -27.266 -14.572  0.00  0.00    -0.250 OA
ATOM     26  C   UNL     1      37.802 -26.583 -13.563  0.00  0.00    +0.318 C 
ATOM     27  C   UNL     1      38.899 -25.716 -13.022  0.00  0.00    +0.121 C 
ENDBRANCH  24  26
ENDBRANCH  23  24
ENDBRANCH  22  23
ENDBRANCH   7  22
TORSDOF 4
ENDMDL
MODEL 3
REMARK VINA RESULT:      -9.0      1.456      8.330
REMARK  Name = 5952
REMARK  4 active torsions:
REMARK  status: ('A' for Active; 'I' for Inactive)
REMARK    1  A    between atoms: C_7  and  C_22
REMARK    2  A    between atoms: C_22  and  C_23
REMARK    3  A    between atoms: C_23  and  O_24
REMARK    4  A    between atoms: O_24  and  C_26
REMARK                            x       y       z     vdW  Elec       q    Type
REMARK                         _______ _______ _______ _____ _____    ______ ____
ROOT
ATOM      1  O   UNL     1      27.858 -21.879 -16.297  0.00  0.00    -0.291 OA
ATOM      2  C   UNL     1      35.270 -23.160 -14.952  0.00  0.00    +0.000 C 
ATOM      3  C   UNL     1      35.626 -24.032 -13.729  0.00  0.00    +0.007 C 
ATOM      4  C   UNL     1      33.966 -23.588 -15.631  0.00  0.00    +0.001 C 
ATOM      5  C   UNL     1      32.801 -23.482 -14.596  0.00  0.00    +0.003 C 
ATOM      6  C   UNL     1      31.399 -23.863 -15.210  0.00  0.00    +0.016 C 
ATOM      7  C   UNL     1      36.975 -23.383 -13.344  0.00  0.00    +0.061 C 
ATOM      8  C   UNL     1      34.511 -23.861 -12.691  0.00  0.00    +0.000 C 
ATOM      9  C   UNL     1      33.133 -24.225 -13.273  0.00  0.00    +0.000 C 
ATOM     10  C   UNL     1      36.560 -23.147 -15.765  0.00  0.00    +0.000 C 
ATOM     11  C   UNL     1      37.667 -23.113 -14.696  0.00  0.00    +0.007 C 
ATOM     12  C   UNL     1      33.659 -22.719 -16.857  0.00  0.00    +0.004 C 
ATOM     13  C   UNL     1      35.808 -25.536 -14.062  0.00  0.00    +0.000 C 
ATOM     14  C   UNL     1      31.195 -23.107 -16.530  0.00  0.00    -0.042 C 
ATOM     15  C   UNL     1      32.345 -23.128 -17.508  0.00  0.00    +0.022 C 
ATOM     16  C   UNL     1      30.294 -23.462 -14.191  0.00  0.00    +0.012 C 
ATOM     17  C   UNL     1      31.288 -25.377 -15.499  0.00  0.00    +0.004 C 
ATOM     18  C   UNL     1      28.896 -23.423 -14.791  0.00  0.00    +0.069 C 
ATOM     19  C   UNL     1      30.063 -22.463 -16.859  0.00  0.00    +0.029 C 
ATOM     20  C   UNL     1      28.865 -22.513 -15.990  0.00  0.00    +0.173 C 
ENDROOT
BRANCH   7  22
ATOM     21  O   UNL     1      37.388 -24.608 -11.344  0.00  0.00    -0.292 OA
ATOM     22  C   UNL     1      37.819 -24.210 -12.426  0.00  0.00    +0.194 C 
BRANCH  22  23
ATOM     23  C   UNL     1      39.222 -24.522 -12.903  0.00  0.00    +0.272 C 
BRANCH  23  24
ATOM     24  O   UNL     1      39.318 -25.865 -13.326  0.00  0.00    -0.440 OA
BRANCH  24  26
ATOM     25  O   UNL     1      41.278 -26.913 -13.955  0.00  0.00    -0.250 OA
ATOM     26  C   UNL     1      40.346 -26.157 -14.188  0.00  0.00    +0.318 C 
ATOM     27  C   UNL     1      40.170 -25.412 -15.476  0.00  0.00    +0.121 C 
ENDBRANCH  24  26
ENDBRANCH  23  24
ENDBRANCH  22  23
ENDBRANCH   7  22
TORSDOF 4
ENDMDL
MODEL 4
REMARK VINA RESULT:      -8.7     13.714     16.652
REMARK  Name = 5952
REMARK  4 active torsions:
REMARK  status: ('A' for Active; 'I' for Inactive)
REMARK    1  A    between atoms: C_7  and  C_22
REMARK    2  A    between atoms: C_22  and  C_23
REMARK    3  A    between atoms: C_23  and  O_24
REMARK    4  A    between atoms: O_24  and  C_26
REMARK                            x       y       z     vdW  Elec       q    Type
REMARK                         _______ _______ _______ _____ _____    ______ ____
ROOT
ATOM      1  O   UNL     1      30.446  -4.325 -22.597  0.00  0.00    -0.291 OA
ATOM      2  C   UNL     1      32.180 -11.760 -22.276  0.00  0.00    +0.000 C 
ATOM      3  C   UNL     1      33.030 -12.338 -23.428  0.00  0.00    +0.007 C 
ATOM      4  C   UNL     1      32.543 -10.311 -21.936  0.00  0.00    +0.001 C 
ATOM      5  C   UNL     1      32.319  -9.426 -23.203  0.00  0.00    +0.003 C 
ATOM      6  C   UNL     1      32.626  -7.900 -22.946  0.00  0.00    +0.016 C 
ATOM      7  C   UNL     1      32.461 -13.775 -23.462  0.00  0.00    +0.061 C 
ATOM      8  C   UNL     1      32.745 -11.505 -24.684  0.00  0.00    +0.000 C 
ATOM      9  C   UNL     1      33.035 -10.011 -24.451  0.00  0.00    +0.000 C 
ATOM     10  C   UNL     1      32.285 -12.825 -21.191  0.00  0.00    +0.000 C 
ATOM     11  C   UNL     1      32.288 -14.149 -21.975  0.00  0.00    +0.007 C 
ATOM     12  C   UNL     1      31.700  -9.781 -20.769  0.00  0.00    +0.004 C 
ATOM     13  C   UNL     1      34.554 -12.350 -23.140  0.00  0.00    +0.000 C 
ATOM     14  C   UNL     1      31.907  -7.440 -21.671  0.00  0.00    -0.042 C 
ATOM     15  C   UNL     1      32.042  -8.330 -20.458  0.00  0.00    +0.022 C 
ATOM     16  C   UNL     1      32.114  -7.086 -24.169  0.00  0.00    +0.012 C 
ATOM     17  C   UNL     1      34.139  -7.637 -22.768  0.00  0.00    +0.004 C 
ATOM     18  C   UNL     1      32.001  -5.592 -23.903  0.00  0.00    +0.069 C 
ATOM     19  C   UNL     1      31.199  -6.302 -21.576  0.00  0.00    +0.029 C 
ATOM     20  C   UNL     1      31.136  -5.337 -22.697  0.00  0.00    +0.173 C 
ENDROOT
BRANCH   7  22
ATOM     21  O   UNL     1      33.370 -14.753 -25.433  0.00  0.00    -0.292 OA
ATOM     22  C   UNL     1      33.309 -14.759 -24.203  0.00  0.00    +0.194 C 
BRANCH  22  23
ATOM     23  C   UNL     1      34.078 -15.753 -23.359  0.00  0.00    +0.272 C 
BRANCH  23  24
ATOM     24  O   UNL     1      35.116 -16.348 -24.108  0.00  0.00    -0.440 OA
BRANCH  24  26
ATOM     25  O   UNL     1      34.461 -17.905 -25.684  0.00  0.00    -0.250 OA
ATOM     26  C   UNL     1      34.878 -17.618 -24.570  0.00  0.00    +0.318 C 
ATOM     27  C   UNL     1      35.205 -18.625 -23.510  0.00  0.00    +0.121 C 
ENDBRANCH  24  26
ENDBRANCH  23  24
ENDBRANCH  22  23
ENDBRANCH   7  22
TORSDOF 4
ENDMDL
MODEL 5
REMARK VINA RESULT:      -8.5      1.252      2.544
REMARK  Name = 5952
REMARK  4 active torsions:
REMARK  status: ('A' for Active; 'I' for Inactive)
REMARK    1  A    between atoms: C_7  and  C_22
REMARK    2  A    between atoms: C_22  and  C_23
REMARK    3  A    between atoms: C_23  and  O_24
REMARK    4  A    between atoms: O_24  and  C_26
REMARK                            x       y       z     vdW  Elec       q    Type
REMARK                         _______ _______ _______ _____ _____    ______ ____
ROOT
ATOM      1  O   UNL     1      40.727 -24.641 -13.358  0.00  0.00    -0.291 OA
ATOM      2  C   UNL     1      33.193 -23.453 -13.817  0.00  0.00    +0.000 C 
ATOM      3  C   UNL     1      32.552 -23.516 -15.220  0.00  0.00    +0.007 C 
ATOM      4  C   UNL     1      34.361 -24.430 -13.651  0.00  0.00    +0.001 C 
ATOM      5  C   UNL     1      35.458 -24.089 -14.708  0.00  0.00    +0.003 C 
ATOM      6  C   UNL     1      36.729 -25.016 -14.593  0.00  0.00    +0.016 C 
ATOM      7  C   UNL     1      31.417 -22.486 -15.022  0.00  0.00    +0.061 C 
ATOM      8  C   UNL     1      33.620 -23.107 -16.242  0.00  0.00    +0.000 C 
ATOM      9  C   UNL     1      34.871 -23.999 -16.143  0.00  0.00    +0.000 C 
ATOM     10  C   UNL     1      31.998 -23.558 -12.877  0.00  0.00    +0.000 C 
ATOM     11  C   UNL     1      30.892 -22.767 -13.598  0.00  0.00    +0.007 C 
ATOM     12  C   UNL     1      34.953 -24.361 -12.237  0.00  0.00    +0.004 C 
ATOM     13  C   UNL     1      31.980 -24.910 -15.587  0.00  0.00    +0.000 C 
ATOM     14  C   UNL     1      37.197 -25.066 -13.133  0.00  0.00    -0.042 C 
ATOM     15  C   UNL     1      36.134 -25.311 -12.088  0.00  0.00    +0.022 C 
ATOM     16  C   UNL     1      37.851 -24.420 -15.491  0.00  0.00    +0.012 C 
ATOM     17  C   UNL     1      36.433 -26.461 -15.055  0.00  0.00    +0.004 C 
ATOM     18  C   UNL     1      39.233 -24.984 -15.196  0.00  0.00    +0.069 C 
ATOM     19  C   UNL     1      38.477 -24.929 -12.749  0.00  0.00    +0.029 C 
ATOM     20  C   UNL     1      39.571 -24.808 -13.739  0.00  0.00    +0.173 C 
ENDROOT
BRANCH   7  22
ATOM     21  O   UNL     1      30.571 -22.350 -17.243  0.00  0.00    -0.292 OA
ATOM     22  C   UNL     1      30.334 -22.552 -16.052  0.00  0.00    +0.194 C 
BRANCH  22  23
ATOM     23  C   UNL     1      28.945 -22.879 -15.546  0.00  0.00    +0.272 C 
BRANCH  23  24
ATOM     24  O   UNL     1      27.996 -21.980 -16.079  0.00  0.00    -0.440 OA
BRANCH  24  26
ATOM     25  O   UNL     1      27.454 -23.491 -17.740  0.00  0.00    -0.250 OA
ATOM     26  C   UNL     1      27.291 -22.421 -17.171  0.00  0.00    +0.318 C 
ATOM     27  C   UNL     1      26.276 -21.397 -17.581  0.00  0.00    +0.121 C 
ENDBRANCH  24  26
ENDBRANCH  23  24
ENDBRANCH  22  23
ENDBRANCH   7  22
TORSDOF 4
ENDMDL
MODEL 6
REMARK VINA RESULT:      -8.5      9.615     12.436
REMARK  Name = 5952
REMARK  4 active torsions:
REMARK  status: ('A' for Active; 'I' for Inactive)
REMARK    1  A    between atoms: C_7  and  C_22
REMARK    2  A    between atoms: C_22  and  C_23
REMARK    3  A    between atoms: C_23  and  O_24
REMARK    4  A    between atoms: O_24  and  C_26
REMARK                            x       y       z     vdW  Elec       q    Type
REMARK                         _______ _______ _______ _____ _____    ______ ____
ROOT
ATOM      1  O   UNL     1      34.178 -10.364 -25.845  0.00  0.00    -0.291 OA
ATOM      2  C   UNL     1      34.828 -17.598 -23.472  0.00  0.00    +0.000 C 
ATOM      3  C   UNL     1      34.774 -17.851 -21.950  0.00  0.00    +0.007 C 
ATOM      4  C   UNL     1      33.933 -16.438 -23.916  0.00  0.00    +0.001 C 
ATOM      5  C   UNL     1      34.395 -15.137 -23.187  0.00  0.00    +0.003 C 
ATOM      6  C   UNL     1      33.560 -13.867 -23.608  0.00  0.00    +0.016 C 
ATOM      7  C   UNL     1      35.709 -19.078 -21.867  0.00  0.00    +0.061 C 
ATOM      8  C   UNL     1      35.300 -16.593 -21.248  0.00  0.00    +0.000 C 
ATOM      9  C   UNL     1      34.499 -15.341 -21.650  0.00  0.00    +0.000 C 
ATOM     10  C   UNL     1      34.598 -18.983 -24.068  0.00  0.00    +0.000 C 
ATOM     11  C   UNL     1      35.335 -19.926 -23.100  0.00  0.00    +0.007 C 
ATOM     12  C   UNL     1      33.989 -16.235 -25.436  0.00  0.00    +0.004 C 
ATOM     13  C   UNL     1      33.357 -18.194 -21.420  0.00  0.00    +0.000 C 
ATOM     14  C   UNL     1      33.486 -13.788 -25.139  0.00  0.00    -0.042 C 
ATOM     15  C   UNL     1      33.123 -15.060 -25.868  0.00  0.00    +0.022 C 
ATOM     16  C   UNL     1      34.271 -12.604 -23.044  0.00  0.00    +0.012 C 
ATOM     17  C   UNL     1      32.117 -13.917 -23.058  0.00  0.00    +0.004 C 
ATOM     18  C   UNL     1      33.799 -11.304 -23.676  0.00  0.00    +0.069 C 
ATOM     19  C   UNL     1      33.702 -12.664 -25.844  0.00  0.00    +0.029 C 
ATOM     20  C   UNL     1      33.941 -11.366 -25.174  0.00  0.00    +0.173 C 
ENDROOT
BRANCH   7  22
ATOM     21  O   UNL     1      36.474 -19.774 -19.722  0.00  0.00    -0.292 OA
ATOM     22  C   UNL     1      35.604 -19.850 -20.590  0.00  0.00    +0.194 C 
BRANCH  22  23
ATOM     23  C   UNL     1      34.377 -20.724 -20.432  0.00  0.00    +0.272 C 
BRANCH  23  24
ATOM     24  O   UNL     1      34.321 -21.277 -19.135  0.00  0.00    -0.440 OA
BRANCH  24  26
ATOM     25  O   UNL     1      34.227 -23.474 -19.840  0.00  0.00    -0.250 OA
ATOM     26  C   UNL     1      33.926 -22.588 -19.052  0.00  0.00    +0.318 C 
ATOM     27  C   UNL     1      33.062 -22.795 -17.846  0.00  0.00    +0.121 C 
ENDBRANCH  24  26
ENDBRANCH  23  24
ENDBRANCH  22  23
ENDBRANCH   7  22
TORSDOF 4
ENDMDL
MODEL 7
REMARK VINA RESULT:      -8.4      3.270      6.638
REMARK  Name = 5952
REMARK  4 active torsions:
REMARK  status: ('A' for Active; 'I' for Inactive)
REMARK    1  A    between atoms: C_7  and  C_22
REMARK    2  A    between atoms: C_22  and  C_23
REMARK    3  A    between atoms: C_23  and  O_24
REMARK    4  A    between atoms: O_24  and  C_26
REMARK                            x       y       z     vdW  Elec       q    Type
REMARK                         _______ _______ _______ _____ _____    ______ ____
ROOT
ATOM      1  O   UNL     1      33.761 -18.678 -22.012  0.00  0.00    -0.291 OA
ATOM      2  C   UNL     1      36.166 -22.519 -15.860  0.00  0.00    +0.000 C 
ATOM      3  C   UNL     1      35.170 -23.499 -15.205  0.00  0.00    +0.007 C 
ATOM      4  C   UNL     1      36.012 -22.440 -17.382  0.00  0.00    +0.001 C 
ATOM      5  C   UNL     1      34.563 -21.965 -17.718  0.00  0.00    +0.003 C 
ATOM      6  C   UNL     1      34.312 -21.811 -19.268  0.00  0.00    +0.016 C 
ATOM      7  C   UNL     1      35.630 -23.377 -13.735  0.00  0.00    +0.061 C 
ATOM      8  C   UNL     1      33.753 -22.980 -15.480  0.00  0.00    +0.000 C 
ATOM      9  C   UNL     1      33.491 -22.819 -16.988  0.00  0.00    +0.000 C 
ATOM     10  C   UNL     1      37.510 -22.934 -15.271  0.00  0.00    +0.000 C 
ATOM     11  C   UNL     1      37.170 -23.324 -13.822  0.00  0.00    +0.007 C 
ATOM     12  C   UNL     1      37.037 -21.481 -18.001  0.00  0.00    +0.004 C 
ATOM     13  C   UNL     1      35.302 -24.960 -15.710  0.00  0.00    +0.000 C 
ATOM     14  C   UNL     1      35.450 -20.990 -19.892  0.00  0.00    -0.042 C 
ATOM     15  C   UNL     1      36.857 -21.382 -19.510  0.00  0.00    +0.022 C 
ATOM     16  C   UNL     1      32.954 -21.080 -19.473  0.00  0.00    +0.012 C 
ATOM     17  C   UNL     1      34.257 -23.180 -19.983  0.00  0.00    +0.004 C 
ATOM     18  C   UNL     1      32.762 -20.534 -20.880  0.00  0.00    +0.069 C 
ATOM     19  C   UNL     1      35.259 -19.979 -20.756  0.00  0.00    +0.029 C 
ATOM     20  C   UNL     1      33.909 -19.634 -21.255  0.00  0.00    +0.173 C 
ENDROOT
BRANCH   7  22
ATOM     21  O   UNL     1      35.871 -25.428 -12.549  0.00  0.00    -0.292 OA
ATOM     22  C   UNL     1      35.147 -24.476 -12.842  0.00  0.00    +0.194 C 
BRANCH  22  23
ATOM     23  C   UNL     1      33.728 -24.349 -12.328  0.00  0.00    +0.272 C 
BRANCH  23  24
ATOM     24  O   UNL     1      32.835 -25.077 -13.142  0.00  0.00    -0.440 OA
BRANCH  24  26
ATOM     25  O   UNL     1      31.142 -23.564 -12.720  0.00  0.00    -0.250 OA
ATOM     26  C   UNL     1      31.598 -24.517 -13.337  0.00  0.00    +0.318 C 
ATOM     27  C   UNL     1      30.865 -25.241 -14.425  0.00  0.00    +0.121 C 
ENDBRANCH  24  26
ENDBRANCH  23  24
ENDBRANCH  22  23
ENDBRANCH   7  22
TORSDOF 4
ENDMDL
MODEL 8
REMARK VINA RESULT:      -8.2      1.703      7.866
REMARK  Name = 5952
REMARK  4 active torsions:
REMARK  status: ('A' for Active; 'I' for Inactive)
REMARK    1  A    between atoms: C_7  and  C_22
REMARK    2  A    between atoms: C_22  and  C_23
REMARK    3  A    between atoms: C_23  and  O_24
REMARK    4  A    between atoms: O_24  and  C_26
REMARK                            x       y       z     vdW  Elec       q    Type
REMARK                         _______ _______ _______ _____ _____    ______ ____
ROOT
ATOM      1  O   UNL     1      27.417 -22.028 -15.563  0.00  0.00    -0.291 OA
ATOM      2  C   UNL     1      34.980 -23.119 -15.581  0.00  0.00    +0.000 C 
ATOM      3  C   UNL     1      35.543 -24.188 -14.621  0.00  0.00    +0.007 C 
ATOM      4  C   UNL     1      33.599 -23.482 -16.136  0.00  0.00    +0.001 C 
ATOM      5  C   UNL     1      32.604 -23.643 -14.944  0.00  0.00    +0.003 C 
ATOM      6  C   UNL     1      31.136 -23.979 -15.413  0.00  0.00    +0.016 C 
ATOM      7  C   UNL     1      36.916 -23.549 -14.313  0.00  0.00    +0.061 C 
ATOM      8  C   UNL     1      34.594 -24.282 -13.419  0.00  0.00    +0.000 C 
ATOM      9  C   UNL     1      33.154 -24.606 -13.857  0.00  0.00    +0.000 C 
ATOM     10  C   UNL     1      36.130 -22.877 -16.553  0.00  0.00    +0.000 C 
ATOM     11  C   UNL     1      37.386 -22.985 -15.670  0.00  0.00    +0.007 C 
ATOM     12  C   UNL     1      33.086 -22.413 -17.109  0.00  0.00    +0.004 C 
ATOM     13  C   UNL     1      35.712 -25.587 -15.268  0.00  0.00    +0.000 C 
ATOM     14  C   UNL     1      30.712 -22.997 -16.513  0.00  0.00    -0.042 C 
ATOM     15  C   UNL     1      31.700 -22.764 -17.632  0.00  0.00    +0.022 C 
ATOM     16  C   UNL     1      30.188 -23.844 -14.186  0.00  0.00    +0.012 C 
ATOM     17  C   UNL     1      31.023 -25.413 -15.977  0.00  0.00    +0.004 C 
ATOM     18  C   UNL     1      28.715 -23.771 -14.558  0.00  0.00    +0.069 C 
ATOM     19  C   UNL     1      29.525 -22.367 -16.541  0.00  0.00    +0.029 C 
ATOM     20  C   UNL     1      28.476 -22.651 -15.536  0.00  0.00    +0.173 C 
ENDROOT
BRANCH   7  22
ATOM     21  O   UNL     1      39.037 -24.623 -14.191  0.00  0.00    -0.292 OA
ATOM     22  C   UNL     1      37.913 -24.487 -13.709  0.00  0.00    +0.194 C 
BRANCH  22  23
ATOM     23  C   UNL     1      37.459 -25.251 -12.483  0.00  0.00    +0.272 C 
BRANCH  23  24
ATOM     24  O   UNL     1      37.827 -24.568 -11.304  0.00  0.00    -0.440 OA
BRANCH  24  26
ATOM     25  O   UNL     1      37.206 -22.365 -10.991  0.00  0.00    -0.250 OA
ATOM     26  C   UNL     1      36.984 -23.565 -10.897  0.00  0.00    +0.318 C 
ATOM     27  C   UNL     1      35.731 -24.144 -10.313  0.00  0.00    +0.121 C 
ENDBRANCH  24  26
ENDBRANCH  23  24
ENDBRANCH  22  23
ENDBRANCH   7  22
TORSDOF 4
ENDMDL
MODEL 9
REMARK VINA RESULT:      -8.0      3.238      5.381
REMARK  Name = 5952
REMARK  4 active torsions:
REMARK  status: ('A' for Active; 'I' for Inactive)
REMARK    1  A    between atoms: C_7  and  C_22
REMARK    2  A    between atoms: C_22  and  C_23
REMARK    3  A    between atoms: C_23  and  O_24
REMARK    4  A    between atoms: O_24  and  C_26
REMARK                            x       y       z     vdW  Elec       q    Type
REMARK                         _______ _______ _______ _____ _____    ______ ____
ROOT
ATOM      1  O   UNL     1      36.320 -18.615 -21.590  0.00  0.00    -0.291 OA
ATOM      2  C   UNL     1      34.132 -22.846 -15.614  0.00  0.00    +0.000 C 
ATOM      3  C   UNL     1      32.731 -23.490 -15.679  0.00  0.00    +0.007 C 
ATOM      4  C   UNL     1      34.813 -22.760 -16.984  0.00  0.00    +0.001 C 
ATOM      5  C   UNL     1      33.923 -21.902 -17.936  0.00  0.00    +0.003 C 
ATOM      6  C   UNL     1      34.558 -21.716 -19.368  0.00  0.00    +0.016 C 
ATOM      7  C   UNL     1      32.378 -23.471 -14.175  0.00  0.00    +0.061 C 
ATOM      8  C   UNL     1      31.846 -22.597 -16.558  0.00  0.00    +0.000 C 
ATOM      9  C   UNL     1      32.452 -22.401 -17.959  0.00  0.00    +0.000 C 
ATOM     10  C   UNL     1      34.821 -23.611 -14.490  0.00  0.00    +0.000 C 
ATOM     11  C   UNL     1      33.695 -23.858 -13.470  0.00  0.00    +0.007 C 
ATOM     12  C   UNL     1      36.214 -22.143 -16.876  0.00  0.00    +0.004 C 
ATOM     13  C   UNL     1      32.730 -24.938 -16.233  0.00  0.00    +0.000 C 
ATOM     14  C   UNL     1      36.018 -21.265 -19.226  0.00  0.00    -0.042 C 
ATOM     15  C   UNL     1      36.873 -22.031 -18.244  0.00  0.00    +0.022 C 
ATOM     16  C   UNL     1      33.739 -20.636 -20.130  0.00  0.00    +0.012 C 
ATOM     17  C   UNL     1      34.537 -23.029 -20.184  0.00  0.00    +0.004 C 
ATOM     18  C   UNL     1      34.447 -20.088 -21.361  0.00  0.00    +0.069 C 
ATOM     19  C   UNL     1      36.565 -20.260 -19.931  0.00  0.00    +0.029 C 
ATOM     20  C   UNL     1      35.807 -19.558 -20.991  0.00  0.00    +0.173 C 
ENDROOT
BRANCH   7  22
ATOM     21  O   UNL     1      31.436 -25.426 -13.195  0.00  0.00    -0.292 OA
ATOM     22  C   UNL     1      31.242 -24.369 -13.795  0.00  0.00    +0.194 C 
BRANCH  22  23
ATOM     23  C   UNL     1      29.857 -23.903 -14.190  0.00  0.00    +0.272 C 
BRANCH  23  24
ATOM     24  O   UNL     1      29.358 -24.675 -15.262  0.00  0.00    -0.440 OA
BRANCH  24  26
ATOM     25  O   UNL     1      28.058 -24.505 -17.164  0.00  0.00    -0.250 OA
ATOM     26  C   UNL     1      28.527 -24.026 -16.140  0.00  0.00    +0.318 C 
ATOM     27  C   UNL     1      28.265 -22.627 -15.670  0.00  0.00    +0.121 C 
ENDBRANCH  24  26
ENDBRANCH  23  24
ENDBRANCH  22  23
ENDBRANCH   7  22
TORSDOF 4
ENDMDL
