MODEL 1
REMARK VINA RESULT:     -11.8      0.000      0.000
REMARK  Name = 5311501
REMARK  4 active torsions:
REMARK  status: ('A' for Active; 'I' for Inactive)
REMARK    1  A    between atoms: C_3  and  C_26
REMARK    2  A    between atoms: C_8  and  C_15
REMARK    3  A    between atoms: C_15  and  C_16
REMARK    4  A    between atoms: C_26  and  N_28
REMARK                            x       y       z     vdW  Elec       q    Type
REMARK                         _______ _______ _______ _____ _____    ______ ____
ROOT
ATOM      1  O   UNL     1      34.181  -7.605 -23.515  0.00  0.00    -0.472 OA
ATOM      2  N   UNL     1      32.694  -9.885 -22.593  0.00  0.00    -0.328 N 
ATOM      3  C   UNL     1      32.406  -8.590 -21.988  0.00  0.00    +0.108 C 
ATOM      4  C   UNL     1      33.631  -9.934 -23.584  0.00  0.00    +0.094 A 
ATOM      5  C   UNL     1      33.659  -7.682 -22.159  0.00  0.00    +0.226 C 
ATOM      6  C   UNL     1      32.181 -11.121 -22.363  0.00  0.00    +0.041 A 
ATOM      7  C   UNL     1      33.713 -11.230 -24.050  0.00  0.00    +0.023 A 
ATOM      8  C   UNL     1      32.793 -11.984 -23.259  0.00  0.00    +0.052 A 
ATOM      9  C   UNL     1      34.365  -8.857 -24.055  0.00  0.00    +0.154 C 
ATOM     10  C   UNL     1      31.157 -11.376 -21.329  0.00  0.00    +0.050 C 
ATOM     11  C   UNL     1      34.609 -11.479 -25.106  0.00  0.00    +0.002 C 
ATOM     12  C   UNL     1      35.228  -9.101 -25.117  0.00  0.00    +0.038 C 
ATOM     13  C   UNL     1      35.351 -10.401 -25.630  0.00  0.00    +0.003 C 
ENDROOT
BRANCH   8  15
ATOM     14  O   UNL     1      31.608 -13.866 -24.053  0.00  0.00    -0.287 OA
ATOM     15  C   UNL     1      32.515 -13.391 -23.348  0.00  0.00    +0.197 C 
BRANCH  15  16
ATOM     16  C   UNL     1      33.314 -14.384 -22.567  0.00  0.00    +0.039 C 
ATOM     17  C   UNL     1      33.922 -15.465 -23.186  0.00  0.00    +0.003 C 
ATOM     18  C   UNL     1      33.396 -14.147 -21.209  0.00  0.00    +0.003 C 
ATOM     19  C   UNL     1      34.662 -16.364 -22.382  0.00  0.00    +0.000 C 
ATOM     20  C   UNL     1      33.831 -15.695 -24.569  0.00  0.00    +0.000 C 
ATOM     21  C   UNL     1      34.124 -15.032 -20.418  0.00  0.00    +0.000 C 
ATOM     22  C   UNL     1      34.753 -16.133 -21.000  0.00  0.00    +0.000 C 
ATOM     23  C   UNL     1      35.288 -17.467 -22.983  0.00  0.00    +0.000 C 
ATOM     24  C   UNL     1      34.460 -16.797 -25.150  0.00  0.00    +0.000 C 
ATOM     25  C   UNL     1      35.187 -17.681 -24.359  0.00  0.00    +0.000 C 
ENDBRANCH  15  16
ENDBRANCH   8  15
BRANCH   3  26
ATOM     26  C   UNL     1      31.170  -7.959 -22.629  0.00  0.00    -0.050 C 
BRANCH  26  28
ATOM     27  O   UNL     1      30.647  -4.058 -24.083  0.00  0.00    -0.358 OA
ATOM     28  N   UNL     1      31.442  -6.584 -23.042  0.00  0.00    +0.392 N 
ATOM     29  C   UNL     1      30.661  -5.634 -22.239  0.00  0.00    -0.045 C 
ATOM     30  C   UNL     1      31.147  -6.400 -24.470  0.00  0.00    -0.045 C 
ATOM     31  C   UNL     1      30.951  -4.207 -22.696  0.00  0.00    +0.119 C 
ATOM     32  C   UNL     1      31.427  -4.956 -24.874  0.00  0.00    +0.119 C 
ATOM     33  H   UNL     1      32.435  -6.402 -22.888  0.00  0.00    -0.079 HD
ENDBRANCH  26  28
ENDBRANCH   3  26
TORSDOF 4
ENDMDL
MODEL 2
REMARK VINA RESULT:     -11.2     10.640     15.275
REMARK  Name = 5311501
REMARK  4 active torsions:
REMARK  status: ('A' for Active; 'I' for Inactive)
REMARK    1  A    between atoms: C_3  and  C_26
REMARK    2  A    between atoms: C_8  and  C_15
REMARK    3  A    between atoms: C_15  and  C_16
REMARK    4  A    between atoms: C_26  and  N_28
REMARK                            x       y       z     vdW  Elec       q    Type
REMARK                         _______ _______ _______ _____ _____    ______ ____
ROOT
ATOM      1  O   UNL     1      31.885 -23.438 -13.136  0.00  0.00    -0.472 OA
ATOM      2  N   UNL     1      33.824 -23.263 -15.250  0.00  0.00    -0.328 N 
ATOM      3  C   UNL     1      34.312 -23.414 -13.885  0.00  0.00    +0.108 C 
ATOM      4  C   UNL     1      32.473 -23.245 -15.448  0.00  0.00    +0.094 A 
ATOM      5  C   UNL     1      33.214 -22.890 -12.914  0.00  0.00    +0.226 C 
ATOM      6  C   UNL     1      34.478 -23.140 -16.434  0.00  0.00    +0.041 A 
ATOM      7  C   UNL     1      32.227 -23.146 -16.803  0.00  0.00    +0.023 A 
ATOM      8  C   UNL     1      33.510 -23.069 -17.424  0.00  0.00    +0.052 A 
ATOM      9  C   UNL     1      31.510 -23.328 -14.455  0.00  0.00    +0.154 C 
ATOM     10  C   UNL     1      35.952 -23.110 -16.526  0.00  0.00    +0.050 C 
ATOM     11  C   UNL     1      30.881 -23.146 -17.214  0.00  0.00    +0.002 C 
ATOM     12  C   UNL     1      30.183 -23.357 -14.867  0.00  0.00    +0.038 C 
ATOM     13  C   UNL     1      29.875 -23.259 -16.232  0.00  0.00    +0.003 C 
ENDROOT
BRANCH   8  15
ATOM     14  O   UNL     1      34.095 -23.909 -19.552  0.00  0.00    -0.287 OA
ATOM     15  C   UNL     1      33.794 -22.945 -18.827  0.00  0.00    +0.197 C 
BRANCH  15  16
ATOM     16  C   UNL     1      33.754 -21.614 -19.506  0.00  0.00    +0.039 C 
ATOM     17  C   UNL     1      34.919 -20.965 -19.886  0.00  0.00    +0.003 C 
ATOM     18  C   UNL     1      32.494 -21.093 -19.722  0.00  0.00    +0.003 C 
ATOM     19  C   UNL     1      34.803 -19.708 -20.525  0.00  0.00    +0.000 C 
ATOM     20  C   UNL     1      36.195 -21.506 -19.661  0.00  0.00    +0.000 C 
ATOM     21  C   UNL     1      32.380 -19.856 -20.351  0.00  0.00    +0.000 C 
ATOM     22  C   UNL     1      33.527 -19.167 -20.750  0.00  0.00    +0.000 C 
ATOM     23  C   UNL     1      35.966 -19.028 -20.919  0.00  0.00    +0.000 C 
ATOM     24  C   UNL     1      37.341 -20.817 -20.060  0.00  0.00    +0.000 C 
ATOM     25  C   UNL     1      37.227 -19.581 -20.688  0.00  0.00    +0.000 C 
ENDBRANCH  15  16
ENDBRANCH   8  15
BRANCH   3  26
ATOM     26  C   UNL     1      34.660 -24.873 -13.596  0.00  0.00    -0.050 C 
BRANCH  26  28
ATOM     27  O   UNL     1      38.793 -24.436 -13.016  0.00  0.00    -0.358 OA
ATOM     28  N   UNL     1      36.001 -24.986 -13.026  0.00  0.00    +0.392 N 
ATOM     29  C   UNL     1      36.522 -23.663 -12.654  0.00  0.00    -0.045 C 
ATOM     30  C   UNL     1      36.917 -25.641 -13.971  0.00  0.00    -0.045 C 
ATOM     31  C   UNL     1      37.926 -23.804 -12.073  0.00  0.00    +0.119 C 
ATOM     32  C   UNL     1      38.310 -25.736 -13.358  0.00  0.00    +0.119 C 
ATOM     33  H   UNL     1      35.935 -25.559 -12.184  0.00  0.00    -0.079 HD
ENDBRANCH  26  28
ENDBRANCH   3  26
TORSDOF 4
ENDMDL
MODEL 3
REMARK VINA RESULT:     -10.8      3.278      5.918
REMARK  Name = 5311501
REMARK  4 active torsions:
REMARK  status: ('A' for Active; 'I' for Inactive)
REMARK    1  A    between atoms: C_3  and  C_26
REMARK    2  A    between atoms: C_8  and  C_15
REMARK    3  A    between atoms: C_15  and  C_16
REMARK    4  A    between atoms: C_26  and  N_28
REMARK                            x       y       z     vdW  Elec       q    Type
REMARK                         _______ _______ _______ _____ _____    ______ ____
ROOT
ATOM      1  O   UNL     1      32.896 -13.321 -24.824  0.00  0.00    -0.472 OA
ATOM      2  N   UNL     1      33.946 -14.738 -22.555  0.00  0.00    -0.328 N 
ATOM      3  C   UNL     1      33.422 -13.395 -22.340  0.00  0.00    +0.108 C 
ATOM      4  C   UNL     1      33.879 -15.257 -23.816  0.00  0.00    +0.094 A 
ATOM      5  C   UNL     1      33.486 -12.624 -23.691  0.00  0.00    +0.226 C 
ATOM      6  C   UNL     1      34.510 -15.633 -21.704  0.00  0.00    +0.041 A 
ATOM      7  C   UNL     1      34.376 -16.544 -23.791  0.00  0.00    +0.023 A 
ATOM      8  C   UNL     1      34.786 -16.773 -22.443  0.00  0.00    +0.052 A 
ATOM      9  C   UNL     1      33.379 -14.604 -24.932  0.00  0.00    +0.154 C 
ATOM     10  C   UNL     1      34.728 -15.339 -20.273  0.00  0.00    +0.050 C 
ATOM     11  C   UNL     1      34.360 -17.263 -25.000  0.00  0.00    +0.002 C 
ATOM     12  C   UNL     1      33.338 -15.328 -26.118  0.00  0.00    +0.038 C 
ATOM     13  C   UNL     1      33.832 -16.640 -26.150  0.00  0.00    +0.003 C 
ENDROOT
BRANCH   8  15
ATOM     14  O   UNL     1      36.589 -18.237 -22.012  0.00  0.00    -0.287 OA
ATOM     15  C   UNL     1      35.380 -17.965 -21.903  0.00  0.00    +0.197 C 
BRANCH  15  16
ATOM     16  C   UNL     1      34.554 -18.976 -21.175  0.00  0.00    +0.039 C 
ATOM     17  C   UNL     1      35.143 -19.963 -20.400  0.00  0.00    +0.003 C 
ATOM     18  C   UNL     1      33.188 -18.853 -21.332  0.00  0.00    +0.003 C 
ATOM     19  C   UNL     1      34.296 -20.885 -19.740  0.00  0.00    +0.000 C 
ATOM     20  C   UNL     1      36.535 -20.077 -20.249  0.00  0.00    +0.000 C 
ATOM     21  C   UNL     1      32.356 -19.760 -20.682  0.00  0.00    +0.000 C 
ATOM     22  C   UNL     1      32.906 -20.770 -19.891  0.00  0.00    +0.000 C 
ATOM     23  C   UNL     1      34.866 -21.895 -18.949  0.00  0.00    +0.000 C 
ATOM     24  C   UNL     1      37.084 -21.088 -19.458  0.00  0.00    +0.000 C 
ATOM     25  C   UNL     1      36.252 -21.994 -18.809  0.00  0.00    +0.000 C 
ENDBRANCH  15  16
ENDBRANCH   8  15
BRANCH   3  26
ATOM     26  C   UNL     1      31.993 -13.454 -21.801  0.00  0.00    -0.050 C 
BRANCH  26  28
ATOM     27  O   UNL     1      32.107  -9.558 -20.247  0.00  0.00    -0.358 OA
ATOM     28  N   UNL     1      31.573 -12.149 -21.294  0.00  0.00    +0.392 N 
ATOM     29  C   UNL     1      32.091 -11.069 -22.146  0.00  0.00    -0.045 C 
ATOM     30  C   UNL     1      32.022 -11.958 -19.908  0.00  0.00    -0.045 C 
ATOM     31  C   UNL     1      31.650  -9.717 -21.591  0.00  0.00    +0.119 C 
ATOM     32  C   UNL     1      31.581 -10.586 -19.407  0.00  0.00    +0.119 C 
ATOM     33  H   UNL     1      30.553 -12.120 -21.315  0.00  0.00    -0.079 HD
ENDBRANCH  26  28
ENDBRANCH   3  26
TORSDOF 4
ENDMDL
MODEL 4
REMARK VINA RESULT:     -10.7      1.957      8.316
REMARK  Name = 5311501
REMARK  4 active torsions:
REMARK  status: ('A' for Active; 'I' for Inactive)
REMARK    1  A    between atoms: C_3  and  C_26
REMARK    2  A    between atoms: C_8  and  C_15
REMARK    3  A    between atoms: C_15  and  C_16
REMARK    4  A    between atoms: C_26  and  N_28
REMARK                            x       y       z     vdW  Elec       q    Type
REMARK                         _______ _______ _______ _____ _____    ______ ____
ROOT
ATOM      1  O   UNL     1      33.228 -13.498 -24.486  0.00  0.00    -0.472 OA
ATOM      2  N   UNL     1      32.587 -11.271 -22.786  0.00  0.00    -0.328 N 
ATOM      3  C   UNL     1      32.021 -12.573 -22.451  0.00  0.00    +0.108 C 
ATOM      4  C   UNL     1      33.413 -11.193 -23.870  0.00  0.00    +0.094 A 
ATOM      5  C   UNL     1      31.975 -13.433 -23.747  0.00  0.00    +0.226 C 
ATOM      6  C   UNL     1      32.458 -10.054 -22.198  0.00  0.00    +0.041 A 
ATOM      7  C   UNL     1      33.875  -9.897 -23.979  0.00  0.00    +0.023 A 
ATOM      8  C   UNL     1      33.253  -9.174 -22.916  0.00  0.00    +0.052 A 
ATOM      9  C   UNL     1      33.745 -12.244 -24.710  0.00  0.00    +0.154 C 
ATOM     10  C   UNL     1      31.608  -9.832 -21.010  0.00  0.00    +0.050 C 
ATOM     11  C   UNL     1      34.774  -9.621 -25.026  0.00  0.00    +0.002 C 
ATOM     12  C   UNL     1      34.656 -11.974 -25.724  0.00  0.00    +0.038 C 
ATOM     13  C   UNL     1      35.157 -10.673 -25.882  0.00  0.00    +0.003 C 
ENDROOT
BRANCH   8  15
ATOM     14  O   UNL     1      34.183  -7.352 -21.737  0.00  0.00    -0.287 OA
ATOM     15  C   UNL     1      33.403  -7.779 -22.606  0.00  0.00    +0.197 C 
BRANCH  15  16
ATOM     16  C   UNL     1      32.598  -6.741 -23.319  0.00  0.00    +0.039 C 
ATOM     17  C   UNL     1      33.067  -6.136 -24.475  0.00  0.00    +0.003 C 
ATOM     18  C   UNL     1      31.379  -6.437 -22.748  0.00  0.00    +0.003 C 
ATOM     19  C   UNL     1      32.249  -5.162 -25.095  0.00  0.00    +0.000 C 
ATOM     20  C   UNL     1      34.310  -6.455 -25.047  0.00  0.00    +0.000 C 
ATOM     21  C   UNL     1      30.575  -5.478 -23.358  0.00  0.00    +0.000 C 
ATOM     22  C   UNL     1      31.007  -4.844 -24.525  0.00  0.00    +0.000 C 
ATOM     23  C   UNL     1      32.699  -4.534 -26.268  0.00  0.00    +0.000 C 
ATOM     24  C   UNL     1      34.741  -5.820 -26.212  0.00  0.00    +0.000 C 
ATOM     25  C   UNL     1      33.937  -4.862 -26.822  0.00  0.00    +0.000 C 
ENDBRANCH  15  16
ENDBRANCH   8  15
BRANCH   3  26
ATOM     26  C   UNL     1      32.847 -13.254 -21.360  0.00  0.00    -0.050 C 
BRANCH  26  28
ATOM     27  O   UNL     1      34.361 -17.165 -21.235  0.00  0.00    -0.358 OA
ATOM     28  N   UNL     1      33.170 -14.629 -21.733  0.00  0.00    +0.392 N 
ATOM     29  C   UNL     1      32.582 -15.580 -20.779  0.00  0.00    -0.045 C 
ATOM     30  C   UNL     1      34.625 -14.822 -21.806  0.00  0.00    -0.045 C 
ATOM     31  C   UNL     1      32.943 -17.007 -21.181  0.00  0.00    +0.119 C 
ATOM     32  C   UNL     1      34.936 -16.267 -22.185  0.00  0.00    +0.119 C 
ATOM     33  H   UNL     1      32.771 -14.805 -22.656  0.00  0.00    -0.079 HD
ENDBRANCH  26  28
ENDBRANCH   3  26
TORSDOF 4
ENDMDL
MODEL 5
REMARK VINA RESULT:     -10.4     10.317     15.379
REMARK  Name = 5311501
REMARK  4 active torsions:
REMARK  status: ('A' for Active; 'I' for Inactive)
REMARK    1  A    between atoms: C_3  and  C_26
REMARK    2  A    between atoms: C_8  and  C_15
REMARK    3  A    between atoms: C_15  and  C_16
REMARK    4  A    between atoms: C_26  and  N_28
REMARK                            x       y       z     vdW  Elec       q    Type
REMARK                         _______ _______ _______ _____ _____    ______ ____
ROOT
ATOM      1  O   UNL     1      32.123 -23.346 -13.009  0.00  0.00    -0.472 OA
ATOM      2  N   UNL     1      34.125 -23.300 -15.070  0.00  0.00    -0.328 N 
ATOM      3  C   UNL     1      34.568 -23.455 -13.690  0.00  0.00    +0.108 C 
ATOM      4  C   UNL     1      32.784 -23.217 -15.306  0.00  0.00    +0.094 A 
ATOM      5  C   UNL     1      33.473 -22.862 -12.757  0.00  0.00    +0.226 C 
ATOM      6  C   UNL     1      34.817 -23.227 -16.237  0.00  0.00    +0.041 A 
ATOM      7  C   UNL     1      32.579 -23.126 -16.668  0.00  0.00    +0.023 A 
ATOM      8  C   UNL     1      33.881 -23.122 -17.254  0.00  0.00    +0.052 A 
ATOM      9  C   UNL     1      31.791 -23.237 -14.339  0.00  0.00    +0.154 C 
ATOM     10  C   UNL     1      36.293 -23.273 -16.288  0.00  0.00    +0.050 C 
ATOM     11  C   UNL     1      31.247 -23.064 -17.117  0.00  0.00    +0.002 C 
ATOM     12  C   UNL     1      30.476 -23.205 -14.787  0.00  0.00    +0.038 C 
ATOM     13  C   UNL     1      30.210 -23.111 -16.162  0.00  0.00    +0.003 C 
ENDROOT
BRANCH   8  15
ATOM     14  O   UNL     1      33.889 -23.899 -19.484  0.00  0.00    -0.287 OA
ATOM     15  C   UNL     1      34.209 -23.034 -18.650  0.00  0.00    +0.197 C 
BRANCH  15  16
ATOM     16  C   UNL     1      34.984 -21.874 -19.187  0.00  0.00    +0.039 C 
ATOM     17  C   UNL     1      34.357 -20.846 -19.875  0.00  0.00    +0.003 C 
ATOM     18  C   UNL     1      36.343 -21.905 -18.951  0.00  0.00    +0.003 C 
ATOM     19  C   UNL     1      35.156 -19.781 -20.354  0.00  0.00    +0.000 C 
ATOM     20  C   UNL     1      32.972 -20.826 -20.109  0.00  0.00    +0.000 C 
ATOM     21  C   UNL     1      37.129 -20.857 -19.423  0.00  0.00    +0.000 C 
ATOM     22  C   UNL     1      36.539 -19.801 -20.120  0.00  0.00    +0.000 C 
ATOM     23  C   UNL     1      34.546 -18.727 -21.053  0.00  0.00    +0.000 C 
ATOM     24  C   UNL     1      32.383 -19.770 -20.806  0.00  0.00    +0.000 C 
ATOM     25  C   UNL     1      33.168 -18.723 -21.277  0.00  0.00    +0.000 C 
ENDBRANCH  15  16
ENDBRANCH   8  15
BRANCH   3  26
ATOM     26  C   UNL     1      34.834 -24.926 -13.372  0.00  0.00    -0.050 C 
BRANCH  26  28
ATOM     27  O   UNL     1      39.008 -24.654 -13.043  0.00  0.00    -0.358 OA
ATOM     28  N   UNL     1      36.204 -25.118 -12.902  0.00  0.00    +0.392 N 
ATOM     29  C   UNL     1      36.793 -23.841 -12.478  0.00  0.00    -0.045 C 
ATOM     30  C   UNL     1      37.033 -25.733 -13.949  0.00  0.00    -0.045 C 
ATOM     31  C   UNL     1      38.226 -24.064 -12.004  0.00  0.00    +0.119 C 
ATOM     32  C   UNL     1      38.460 -25.912 -13.439  0.00  0.00    +0.119 C 
ATOM     33  H   UNL     1      36.174 -25.747 -12.099  0.00  0.00    -0.079 HD
ENDBRANCH  26  28
ENDBRANCH   3  26
TORSDOF 4
ENDMDL
MODEL 6
REMARK VINA RESULT:      -9.6      3.793      9.238
REMARK  Name = 5311501
REMARK  4 active torsions:
REMARK  status: ('A' for Active; 'I' for Inactive)
REMARK    1  A    between atoms: C_3  and  C_26
REMARK    2  A    between atoms: C_8  and  C_15
REMARK    3  A    between atoms: C_15  and  C_16
REMARK    4  A    between atoms: C_26  and  N_28
REMARK                            x       y       z     vdW  Elec       q    Type
REMARK                         _______ _______ _______ _____ _____    ______ ____
ROOT
ATOM      1  O   UNL     1      34.171 -16.376 -20.098  0.00  0.00    -0.472 OA
ATOM      2  N   UNL     1      34.322 -16.096 -22.954  0.00  0.00    -0.328 N 
ATOM      3  C   UNL     1      34.994 -17.236 -22.342  0.00  0.00    +0.108 C 
ATOM      4  C   UNL     1      33.634 -15.246 -22.138  0.00  0.00    +0.094 A 
ATOM      5  C   UNL     1      35.305 -16.880 -20.859  0.00  0.00    +0.226 C 
ATOM      6  C   UNL     1      34.228 -15.692 -24.247  0.00  0.00    +0.041 A 
ATOM      7  C   UNL     1      33.036 -14.275 -22.915  0.00  0.00    +0.023 A 
ATOM      8  C   UNL     1      33.428 -14.559 -24.258  0.00  0.00    +0.052 A 
ATOM      9  C   UNL     1      33.538 -15.350 -20.759  0.00  0.00    +0.154 C 
ATOM     10  C   UNL     1      34.890 -16.412 -25.354  0.00  0.00    +0.050 C 
ATOM     11  C   UNL     1      32.247 -13.315 -22.253  0.00  0.00    +0.002 C 
ATOM     12  C   UNL     1      32.735 -14.418 -20.112  0.00  0.00    +0.038 C 
ATOM     13  C   UNL     1      32.104 -13.408 -20.854  0.00  0.00    +0.003 C 
ENDROOT
BRANCH   8  15
ATOM     14  O   UNL     1      32.051 -14.064 -26.111  0.00  0.00    -0.287 OA
ATOM     15  C   UNL     1      33.074 -13.830 -25.444  0.00  0.00    +0.197 C 
BRANCH  15  16
ATOM     16  C   UNL     1      33.944 -12.730 -25.961  0.00  0.00    +0.039 C 
ATOM     17  C   UNL     1      34.086 -11.538 -25.266  0.00  0.00    +0.003 C 
ATOM     18  C   UNL     1      34.582 -12.987 -27.157  0.00  0.00    +0.003 C 
ATOM     19  C   UNL     1      34.927 -10.543 -25.817  0.00  0.00    +0.000 C 
ATOM     20  C   UNL     1      33.432 -11.288 -24.049  0.00  0.00    +0.000 C 
ATOM     21  C   UNL     1      35.409 -12.007 -27.699  0.00  0.00    +0.000 C 
ATOM     22  C   UNL     1      35.581 -10.793 -27.033  0.00  0.00    +0.000 C 
ATOM     23  C   UNL     1      35.089  -9.326 -25.135  0.00  0.00    +0.000 C 
ATOM     24  C   UNL     1      33.603 -10.073 -23.384  0.00  0.00    +0.000 C 
ATOM     25  C   UNL     1      34.431  -9.094 -23.926  0.00  0.00    +0.000 C 
ENDBRANCH  15  16
ENDBRANCH   8  15
BRANCH   3  26
ATOM     26  C   UNL     1      34.128 -18.490 -22.444  0.00  0.00    -0.050 C 
BRANCH  26  28
ATOM     27  O   UNL     1      34.062 -21.674 -19.711  0.00  0.00    -0.358 OA
ATOM     28  N   UNL     1      34.157 -19.247 -21.194  0.00  0.00    +0.392 N 
ATOM     29  C   UNL     1      35.291 -20.182 -21.178  0.00  0.00    -0.045 C 
ATOM     30  C   UNL     1      32.898 -19.978 -20.996  0.00  0.00    -0.045 C 
ATOM     31  C   UNL     1      35.294 -20.969 -19.870  0.00  0.00    +0.119 C 
ATOM     32  C   UNL     1      32.958 -20.768 -19.692  0.00  0.00    +0.119 C 
ATOM     33  H   UNL     1      34.272 -18.582 -20.429  0.00  0.00    -0.079 HD
ENDBRANCH  26  28
ENDBRANCH   3  26
TORSDOF 4
ENDMDL
MODEL 7
REMARK VINA RESULT:      -9.5      2.318      3.976
REMARK  Name = 5311501
REMARK  4 active torsions:
REMARK  status: ('A' for Active; 'I' for Inactive)
REMARK    1  A    between atoms: C_3  and  C_26
REMARK    2  A    between atoms: C_8  and  C_15
REMARK    3  A    between atoms: C_15  and  C_16
REMARK    4  A    between atoms: C_26  and  N_28
REMARK                            x       y       z     vdW  Elec       q    Type
REMARK                         _______ _______ _______ _____ _____    ______ ____
ROOT
ATOM      1  O   UNL     1      33.394 -11.476 -25.363  0.00  0.00    -0.472 OA
ATOM      2  N   UNL     1      33.010 -12.790 -22.836  0.00  0.00    -0.328 N 
ATOM      3  C   UNL     1      32.945 -11.333 -22.867  0.00  0.00    +0.108 C 
ATOM      4  C   UNL     1      33.219 -13.446 -24.014  0.00  0.00    +0.094 A 
ATOM      5  C   UNL     1      33.747 -10.836 -24.105  0.00  0.00    +0.226 C 
ATOM      6  C   UNL     1      32.888 -13.676 -21.815  0.00  0.00    +0.041 A 
ATOM      7  C   UNL     1      33.196 -14.804 -23.773  0.00  0.00    +0.023 A 
ATOM      8  C   UNL     1      32.995 -14.944 -22.366  0.00  0.00    +0.052 A 
ATOM      9  C   UNL     1      33.406 -12.847 -25.250  0.00  0.00    +0.154 C 
ATOM     10  C   UNL     1      32.672 -13.251 -20.416  0.00  0.00    +0.050 C 
ATOM     11  C   UNL     1      33.361 -15.658 -24.880  0.00  0.00    +0.002 C 
ATOM     12  C   UNL     1      33.540 -13.693 -26.345  0.00  0.00    +0.038 C 
ATOM     13  C   UNL     1      33.525 -15.083 -26.157  0.00  0.00    +0.003 C 
ENDROOT
BRANCH   8  15
ATOM     14  O   UNL     1      31.915 -16.478 -20.932  0.00  0.00    -0.287 OA
ATOM     15  C   UNL     1      32.907 -16.165 -21.615  0.00  0.00    +0.197 C 
BRANCH  15  16
ATOM     16  C   UNL     1      34.036 -17.144 -21.600  0.00  0.00    +0.039 C 
ATOM     17  C   UNL     1      33.872 -18.423 -21.093  0.00  0.00    +0.003 C 
ATOM     18  C   UNL     1      35.229 -16.684 -22.120  0.00  0.00    +0.003 C 
ATOM     19  C   UNL     1      34.987 -19.295 -21.113  0.00  0.00    +0.000 C 
ATOM     20  C   UNL     1      32.652 -18.880 -20.567  0.00  0.00    +0.000 C 
ATOM     21  C   UNL     1      36.326 -17.542 -22.139  0.00  0.00    +0.000 C 
ATOM     22  C   UNL     1      36.205 -18.840 -21.639  0.00  0.00    +0.000 C 
ATOM     23  C   UNL     1      34.849 -20.597 -20.605  0.00  0.00    +0.000 C 
ATOM     24  C   UNL     1      32.534 -20.176 -20.066  0.00  0.00    +0.000 C 
ATOM     25  C   UNL     1      33.629 -21.034 -20.086  0.00  0.00    +0.000 C 
ENDBRANCH  15  16
ENDBRANCH   8  15
BRANCH   3  26
ATOM     26  C   UNL     1      31.493 -10.861 -22.918  0.00  0.00    -0.050 C 
BRANCH  26  28
ATOM     27  O   UNL     1      32.316  -7.046 -21.375  0.00  0.00    -0.358 OA
ATOM     28  N   UNL     1      31.339  -9.575 -22.239  0.00  0.00    +0.392 N 
ATOM     29  C   UNL     1      31.530  -8.463 -23.181  0.00  0.00    -0.045 C 
ATOM     30  C   UNL     1      32.286  -9.459 -21.122  0.00  0.00    -0.045 C 
ATOM     31  C   UNL     1      31.378  -7.133 -22.448  0.00  0.00    +0.119 C 
ATOM     32  C   UNL     1      32.114  -8.106 -20.438  0.00  0.00    +0.119 C 
ATOM     33  H   UNL     1      30.389  -9.529 -21.869  0.00  0.00    -0.079 HD
ENDBRANCH  26  28
ENDBRANCH   3  26
TORSDOF 4
ENDMDL
MODEL 8
REMARK VINA RESULT:      -9.2      1.891      8.495
REMARK  Name = 5311501
REMARK  4 active torsions:
REMARK  status: ('A' for Active; 'I' for Inactive)
REMARK    1  A    between atoms: C_3  and  C_26
REMARK    2  A    between atoms: C_8  and  C_15
REMARK    3  A    between atoms: C_15  and  C_16
REMARK    4  A    between atoms: C_26  and  N_28
REMARK                            x       y       z     vdW  Elec       q    Type
REMARK                         _______ _______ _______ _____ _____    ______ ____
ROOT
ATOM      1  O   UNL     1      33.081 -13.497 -24.820  0.00  0.00    -0.472 OA
ATOM      2  N   UNL     1      32.972 -11.071 -23.283  0.00  0.00    -0.328 N 
ATOM      3  C   UNL     1      32.245 -12.232 -22.783  0.00  0.00    +0.108 C 
ATOM      4  C   UNL     1      33.688 -11.214 -24.437  0.00  0.00    +0.094 A 
ATOM      5  C   UNL     1      31.935 -13.169 -23.986  0.00  0.00    +0.226 C 
ATOM      6  C   UNL     1      33.097  -9.808 -22.801  0.00  0.00    +0.041 A 
ATOM      7  C   UNL     1      34.335 -10.024 -24.704  0.00  0.00    +0.023 A 
ATOM      8  C   UNL     1      33.945  -9.129 -23.663  0.00  0.00    +0.052 A 
ATOM      9  C   UNL     1      33.765 -12.367 -25.202  0.00  0.00    +0.154 C 
ATOM     10  C   UNL     1      32.416  -9.358 -21.569  0.00  0.00    +0.050 C 
ATOM     11  C   UNL     1      35.157  -9.982 -25.845  0.00  0.00    +0.002 C 
ATOM     12  C   UNL     1      34.600 -12.330 -26.312  0.00  0.00    +0.038 C 
ATOM     13  C   UNL     1      35.282 -11.146 -26.632  0.00  0.00    +0.003 C 
ENDROOT
BRANCH   8  15
ATOM     14  O   UNL     1      35.240  -7.398 -22.714  0.00  0.00    -0.287 OA
ATOM     15  C   UNL     1      34.343  -7.759 -23.495  0.00  0.00    +0.197 C 
BRANCH  15  16
ATOM     16  C   UNL     1      33.674  -6.664 -24.262  0.00  0.00    +0.039 C 
ATOM     17  C   UNL     1      32.614  -5.953 -23.722  0.00  0.00    +0.003 C 
ATOM     18  C   UNL     1      34.184  -6.421 -25.521  0.00  0.00    +0.003 C 
ATOM     19  C   UNL     1      32.030  -4.929 -24.507  0.00  0.00    +0.000 C 
ATOM     20  C   UNL     1      32.104  -6.209 -22.438  0.00  0.00    +0.000 C 
ATOM     21  C   UNL     1      33.610  -5.414 -26.293  0.00  0.00    +0.000 C 
ATOM     22  C   UNL     1      32.540  -4.672 -25.789  0.00  0.00    +0.000 C 
ATOM     23  C   UNL     1      30.955  -4.193 -23.985  0.00  0.00    +0.000 C 
ATOM     24  C   UNL     1      31.034  -5.468 -21.936  0.00  0.00    +0.000 C 
ATOM     25  C   UNL     1      30.461  -4.461 -22.707  0.00  0.00    +0.000 C 
ENDBRANCH  15  16
ENDBRANCH   8  15
BRANCH   3  26
ATOM     26  C   UNL     1      33.058 -12.954 -21.709  0.00  0.00    -0.050 C 
BRANCH  26  28
ATOM     27  O   UNL     1      34.146 -17.001 -21.493  0.00  0.00    -0.358 OA
ATOM     28  N   UNL     1      33.160 -14.382 -22.006  0.00  0.00    +0.392 N 
ATOM     29  C   UNL     1      32.658 -15.184 -20.882  0.00  0.00    -0.045 C 
ATOM     30  C   UNL     1      34.548 -14.753 -22.311  0.00  0.00    -0.045 C 
ATOM     31  C   UNL     1      32.786 -16.669 -21.209  0.00  0.00    +0.119 C 
ATOM     32  C   UNL     1      34.630 -16.248 -22.605  0.00  0.00    +0.119 C 
ATOM     33  H   UNL     1      32.583 -14.572 -22.826  0.00  0.00    -0.079 HD
ENDBRANCH  26  28
ENDBRANCH   3  26
TORSDOF 4
ENDMDL
MODEL 9
REMARK VINA RESULT:      -9.2      3.798      9.410
REMARK  Name = 5311501
REMARK  4 active torsions:
REMARK  status: ('A' for Active; 'I' for Inactive)
REMARK    1  A    between atoms: C_3  and  C_26
REMARK    2  A    between atoms: C_8  and  C_15
REMARK    3  A    between atoms: C_15  and  C_16
REMARK    4  A    between atoms: C_26  and  N_28
REMARK                            x       y       z     vdW  Elec       q    Type
REMARK                         _______ _______ _______ _____ _____    ______ ____
ROOT
ATOM      1  O   UNL     1      35.697 -17.658 -20.567  0.00  0.00    -0.472 OA
ATOM      2  N   UNL     1      34.871 -16.876 -23.206  0.00  0.00    -0.328 N 
ATOM      3  C   UNL     1      35.536 -18.164 -23.051  0.00  0.00    +0.108 C 
ATOM      4  C   UNL     1      34.651 -16.131 -22.084  0.00  0.00    +0.094 A 
ATOM      5  C   UNL     1      36.400 -18.115 -21.757  0.00  0.00    +0.226 C 
ATOM      6  C   UNL     1      34.389 -16.236 -24.303  0.00  0.00    +0.041 A 
ATOM      7  C   UNL     1      33.971 -14.984 -22.442  0.00  0.00    +0.023 A 
ATOM      8  C   UNL     1      33.817 -15.053 -23.860  0.00  0.00    +0.052 A 
ATOM      9  C   UNL     1      35.033 -16.476 -20.797  0.00  0.00    +0.154 C 
ATOM     10  C   UNL     1      34.502 -16.799 -25.664  0.00  0.00    +0.050 C 
ATOM     11  C   UNL     1      33.620 -14.095 -21.410  0.00  0.00    +0.002 C 
ATOM     12  C   UNL     1      34.660 -15.610 -19.777  0.00  0.00    +0.038 C 
ATOM     13  C   UNL     1      33.968 -14.429 -20.084  0.00  0.00    +0.003 C 
ENDROOT
BRANCH   8  15
ATOM     14  O   UNL     1      32.339 -14.393 -25.579  0.00  0.00    -0.287 OA
ATOM     15  C   UNL     1      33.181 -14.091 -24.716  0.00  0.00    +0.197 C 
BRANCH  15  16
ATOM     16  C   UNL     1      33.517 -12.637 -24.623  0.00  0.00    +0.039 C 
ATOM     17  C   UNL     1      32.883 -11.810 -23.708  0.00  0.00    +0.003 C 
ATOM     18  C   UNL     1      34.486 -12.192 -25.499  0.00  0.00    +0.003 C 
ATOM     19  C   UNL     1      33.253 -10.444 -23.678  0.00  0.00    +0.000 C 
ATOM     20  C   UNL     1      31.899 -12.275 -22.821  0.00  0.00    +0.000 C 
ATOM     21  C   UNL     1      34.849 -10.848 -25.469  0.00  0.00    +0.000 C 
ATOM     22  C   UNL     1      34.237  -9.980 -24.564  0.00  0.00    +0.000 C 
ATOM     23  C   UNL     1      32.628  -9.584 -22.761  0.00  0.00    +0.000 C 
ATOM     24  C   UNL     1      31.287 -11.406 -21.917  0.00  0.00    +0.000 C 
ATOM     25  C   UNL     1      31.651 -10.063 -21.887  0.00  0.00    +0.000 C 
ENDBRANCH  15  16
ENDBRANCH   8  15
BRANCH   3  26
ATOM     26  C   UNL     1      34.511 -19.296 -22.993  0.00  0.00    -0.050 C 
BRANCH  26  28
ATOM     27  O   UNL     1      33.277 -21.506 -19.646  0.00  0.00    -0.358 OA
ATOM     28  N   UNL     1      34.247 -19.690 -21.611  0.00  0.00    +0.392 N 
ATOM     29  C   UNL     1      34.981 -20.916 -21.270  0.00  0.00    -0.045 C 
ATOM     30  C   UNL     1      32.808 -19.886 -21.390  0.00  0.00    -0.045 C 
ATOM     31  C   UNL     1      34.681 -21.315 -19.828  0.00  0.00    +0.119 C 
ATOM     32  C   UNL     1      32.559 -20.307 -19.945  0.00  0.00    +0.119 C 
ATOM     33  H   UNL     1      34.571 -18.936 -21.004  0.00  0.00    -0.079 HD
ENDBRANCH  26  28
ENDBRANCH   3  26
TORSDOF 4
ENDMDL
