MODEL 1
REMARK VINA RESULT:     -10.8      0.000      0.000
REMARK  Name = 46189893
REMARK  4 active torsions:
REMARK  status: ('A' for Active; 'I' for Inactive)
REMARK    1  A    between atoms: C_1  and  C_8
REMARK    2  A    between atoms: C_2  and  C_15
REMARK    3  A    between atoms: C_15  and  O_16
REMARK    4  A    between atoms: O_16  and  C_20
REMARK                            x       y       z     vdW  Elec       q    Type
REMARK                         _______ _______ _______ _____ _____    ______ ____
ROOT
ATOM      1  C   UNL     1      33.542 -23.454 -15.757  0.00  0.00    -0.023 C 
ATOM      2  C   UNL     1      32.837 -23.135 -16.918  0.00  0.00    +0.017 C 
ATOM      3  C   UNL     1      32.887 -23.471 -14.526  0.00  0.00    -0.004 C 
ATOM      4  C   UNL     1      31.477 -22.832 -16.847  0.00  0.00    -0.001 C 
ATOM      5  C   UNL     1      31.528 -23.167 -14.454  0.00  0.00    -0.000 C 
ATOM      6  C   UNL     1      30.822 -22.847 -15.615  0.00  0.00    -0.000 C 
ENDROOT
BRANCH   1   8
ATOM      7  N   UNL     1      37.656 -24.106 -14.575  0.00  0.00    +0.384 N 
ATOM      8  C   UNL     1      35.020 -23.789 -15.809  0.00  0.00    +0.018 C 
ATOM      9  C   UNL     1      35.903 -22.587 -15.434  0.00  0.00    -0.019 C 
ATOM     10  C   UNL     1      35.376 -24.997 -14.927  0.00  0.00    -0.019 C 
ATOM     11  C   UNL     1      37.384 -22.967 -15.453  0.00  0.00    -0.081 C 
ATOM     12  C   UNL     1      36.878 -25.281 -14.967  0.00  0.00    -0.081 C 
ATOM     13  H   UNL     1      37.415 -23.852 -13.618  0.00  0.00    -0.085 HD
ATOM     14  H   UNL     1      38.646 -24.338 -14.651  0.00  0.00    -0.085 HD
ENDBRANCH   1   8
BRANCH   2  15
ATOM     15  C   UNL     1      33.516 -23.113 -18.247  0.00  0.00    +0.232 C 
BRANCH  15  16
ATOM     16  O   UNL     1      32.990 -22.046 -19.025  0.00  0.00    -0.466 OA
BRANCH  16  20
ATOM     17  F   UNL     1      32.145 -20.025 -20.697  0.00  0.00    -0.201 F 
ATOM     18  F   UNL     1      35.696 -22.405 -18.642  0.00  0.00    -0.201 F 
ATOM     19  F   UNL     1      36.634 -18.791 -21.551  0.00  0.00    -0.204 F 
ATOM     20  C   UNL     1      33.899 -21.234 -19.655  0.00  0.00    +0.194 C 
ATOM     21  C   UNL     1      33.456 -20.216 -20.499  0.00  0.00    +0.178 C 
ATOM     22  C   UNL     1      35.266 -21.428 -19.452  0.00  0.00    +0.178 C 
ATOM     23  C   UNL     1      34.380 -19.391 -21.139  0.00  0.00    +0.063 C 
ATOM     24  C   UNL     1      36.189 -20.603 -20.093  0.00  0.00    +0.063 C 
ATOM     25  C   UNL     1      35.746 -19.584 -20.936  0.00  0.00    +0.145 C 
ENDBRANCH  16  20
ENDBRANCH  15  16
ENDBRANCH   2  15
TORSDOF 4
ENDMDL
MODEL 2
REMARK VINA RESULT:     -10.8      0.012      1.724
REMARK  Name = 46189893
REMARK  4 active torsions:
REMARK  status: ('A' for Active; 'I' for Inactive)
REMARK    1  A    between atoms: C_1  and  C_8
REMARK    2  A    between atoms: C_2  and  C_15
REMARK    3  A    between atoms: C_15  and  O_16
REMARK    4  A    between atoms: O_16  and  C_20
REMARK                            x       y       z     vdW  Elec       q    Type
REMARK                         _______ _______ _______ _____ _____    ______ ____
ROOT
ATOM      1  C   UNL     1      33.548 -23.455 -15.753  0.00  0.00    -0.023 C 
ATOM      2  C   UNL     1      32.842 -23.136 -16.913  0.00  0.00    +0.017 C 
ATOM      3  C   UNL     1      32.896 -23.466 -14.521  0.00  0.00    -0.004 C 
ATOM      4  C   UNL     1      31.483 -22.828 -16.840  0.00  0.00    -0.001 C 
ATOM      5  C   UNL     1      31.538 -23.158 -14.447  0.00  0.00    -0.000 C 
ATOM      6  C   UNL     1      30.831 -22.839 -15.607  0.00  0.00    -0.000 C 
ENDROOT
BRANCH   1   8
ATOM      7  N   UNL     1      37.663 -24.118 -14.579  0.00  0.00    +0.384 N 
ATOM      8  C   UNL     1      35.025 -23.794 -15.808  0.00  0.00    +0.018 C 
ATOM      9  C   UNL     1      35.913 -22.595 -15.437  0.00  0.00    -0.019 C 
ATOM     10  C   UNL     1      35.379 -25.002 -14.924  0.00  0.00    -0.019 C 
ATOM     11  C   UNL     1      37.393 -22.979 -15.458  0.00  0.00    -0.081 C 
ATOM     12  C   UNL     1      36.880 -25.291 -14.966  0.00  0.00    -0.081 C 
ATOM     13  H   UNL     1      37.425 -23.861 -13.621  0.00  0.00    -0.085 HD
ATOM     14  H   UNL     1      38.652 -24.353 -14.656  0.00  0.00    -0.085 HD
ENDBRANCH   1   8
BRANCH   2  15
ATOM     15  C   UNL     1      33.518 -23.119 -18.244  0.00  0.00    +0.232 C 
BRANCH  15  16
ATOM     16  O   UNL     1      32.993 -22.053 -19.024  0.00  0.00    -0.466 OA
BRANCH  16  20
ATOM     17  F   UNL     1      35.697 -22.403 -18.626  0.00  0.00    -0.201 F 
ATOM     18  F   UNL     1      32.150 -20.040 -20.710  0.00  0.00    -0.201 F 
ATOM     19  F   UNL     1      36.641 -18.797 -21.545  0.00  0.00    -0.204 F 
ATOM     20  C   UNL     1      33.902 -21.241 -19.653  0.00  0.00    +0.194 C 
ATOM     21  C   UNL     1      35.268 -21.430 -19.441  0.00  0.00    +0.178 C 
ATOM     22  C   UNL     1      33.461 -20.226 -20.503  0.00  0.00    +0.178 C 
ATOM     23  C   UNL     1      36.192 -20.604 -20.080  0.00  0.00    +0.063 C 
ATOM     24  C   UNL     1      34.386 -19.402 -21.141  0.00  0.00    +0.063 C 
ATOM     25  C   UNL     1      35.752 -19.591 -20.930  0.00  0.00    +0.145 C 
ENDBRANCH  16  20
ENDBRANCH  15  16
ENDBRANCH   2  15
TORSDOF 4
ENDMDL
MODEL 3
REMARK VINA RESULT:     -10.5      9.445     12.860
REMARK  Name = 46189893
REMARK  4 active torsions:
REMARK  status: ('A' for Active; 'I' for Inactive)
REMARK    1  A    between atoms: C_1  and  C_8
REMARK    2  A    between atoms: C_2  and  C_15
REMARK    3  A    between atoms: C_15  and  O_16
REMARK    4  A    between atoms: O_16  and  C_20
REMARK                            x       y       z     vdW  Elec       q    Type
REMARK                         _______ _______ _______ _____ _____    ______ ____
ROOT
ATOM      1  C   UNL     1      33.553 -13.590 -24.384  0.00  0.00    -0.023 C 
ATOM      2  C   UNL     1      33.755 -12.350 -24.990  0.00  0.00    +0.017 C 
ATOM      3  C   UNL     1      33.202 -14.695 -25.158  0.00  0.00    -0.004 C 
ATOM      4  C   UNL     1      33.605 -12.215 -26.371  0.00  0.00    -0.001 C 
ATOM      5  C   UNL     1      33.051 -14.561 -26.538  0.00  0.00    -0.000 C 
ATOM      6  C   UNL     1      33.253 -13.321 -27.145  0.00  0.00    -0.000 C 
ENDROOT
BRANCH   1   8
ATOM      7  N   UNL     1      33.279 -15.207 -20.377  0.00  0.00    +0.384 N 
ATOM      8  C   UNL     1      33.711 -13.761 -22.886  0.00  0.00    +0.018 C 
ATOM      9  C   UNL     1      32.360 -13.750 -22.152  0.00  0.00    -0.019 C 
ATOM     10  C   UNL     1      34.495 -15.034 -22.524  0.00  0.00    -0.019 C 
ATOM     11  C   UNL     1      32.548 -13.968 -20.650  0.00  0.00    -0.081 C 
ATOM     12  C   UNL     1      34.599 -15.201 -21.007  0.00  0.00    -0.081 C 
ATOM     13  H   UNL     1      32.742 -15.995 -20.738  0.00  0.00    -0.085 HD
ATOM     14  H   UNL     1      33.406 -15.286 -19.368  0.00  0.00    -0.085 HD
ENDBRANCH   1   8
BRANCH   2  15
ATOM     15  C   UNL     1      34.133 -11.152 -24.182  0.00  0.00    +0.232 C 
BRANCH  15  16
ATOM     16  O   UNL     1      33.071 -10.207 -24.218  0.00  0.00    -0.466 OA
BRANCH  16  20
ATOM     17  F   UNL     1      31.344 -10.842 -22.166  0.00  0.00    -0.201 F 
ATOM     18  F   UNL     1      34.536  -7.879 -24.046  0.00  0.00    -0.201 F 
ATOM     19  F   UNL     1      32.559  -6.890 -19.860  0.00  0.00    -0.204 F 
ATOM     20  C   UNL     1      32.943  -9.380 -23.132  0.00  0.00    +0.194 C 
ATOM     21  C   UNL     1      32.065  -9.714 -22.100  0.00  0.00    +0.178 C 
ATOM     22  C   UNL     1      33.691  -8.205 -23.058  0.00  0.00    +0.178 C 
ATOM     23  C   UNL     1      31.935  -8.872 -20.996  0.00  0.00    +0.063 C 
ATOM     24  C   UNL     1      33.561  -7.364 -21.954  0.00  0.00    +0.063 C 
ATOM     25  C   UNL     1      32.683  -7.698 -20.922  0.00  0.00    +0.145 C 
ENDBRANCH  16  20
ENDBRANCH  15  16
ENDBRANCH   2  15
TORSDOF 4
ENDMDL
MODEL 4
REMARK VINA RESULT:     -10.5      9.460     12.866
REMARK  Name = 46189893
REMARK  4 active torsions:
REMARK  status: ('A' for Active; 'I' for Inactive)
REMARK    1  A    between atoms: C_1  and  C_8
REMARK    2  A    between atoms: C_2  and  C_15
REMARK    3  A    between atoms: C_15  and  O_16
REMARK    4  A    between atoms: O_16  and  C_20
REMARK                            x       y       z     vdW  Elec       q    Type
REMARK                         _______ _______ _______ _____ _____    ______ ____
ROOT
ATOM      1  C   UNL     1      33.550 -13.583 -24.387  0.00  0.00    -0.023 C 
ATOM      2  C   UNL     1      33.757 -12.346 -24.998  0.00  0.00    +0.017 C 
ATOM      3  C   UNL     1      33.196 -14.690 -25.158  0.00  0.00    -0.004 C 
ATOM      4  C   UNL     1      33.610 -12.216 -26.380  0.00  0.00    -0.001 C 
ATOM      5  C   UNL     1      33.048 -14.561 -26.538  0.00  0.00    -0.000 C 
ATOM      6  C   UNL     1      33.255 -13.324 -27.150  0.00  0.00    -0.000 C 
ENDROOT
BRANCH   1   8
ATOM      7  N   UNL     1      33.276 -15.189 -20.376  0.00  0.00    +0.384 N 
ATOM      8  C   UNL     1      33.706 -13.748 -22.888  0.00  0.00    +0.018 C 
ATOM      9  C   UNL     1      32.352 -13.744 -22.157  0.00  0.00    -0.019 C 
ATOM     10  C   UNL     1      34.496 -15.015 -22.520  0.00  0.00    -0.019 C 
ATOM     11  C   UNL     1      32.539 -13.956 -20.655  0.00  0.00    -0.081 C 
ATOM     12  C   UNL     1      34.598 -15.177 -21.003  0.00  0.00    -0.081 C 
ATOM     13  H   UNL     1      32.745 -15.982 -20.736  0.00  0.00    -0.085 HD
ATOM     14  H   UNL     1      33.401 -15.264 -19.367  0.00  0.00    -0.085 HD
ENDBRANCH   1   8
BRANCH   2  15
ATOM     15  C   UNL     1      34.138 -11.146 -24.195  0.00  0.00    +0.232 C 
BRANCH  15  16
ATOM     16  O   UNL     1      33.076 -10.202 -24.227  0.00  0.00    -0.466 OA
BRANCH  16  20
ATOM     17  F   UNL     1      34.544  -7.878 -24.040  0.00  0.00    -0.201 F 
ATOM     18  F   UNL     1      31.342 -10.844 -22.183  0.00  0.00    -0.201 F 
ATOM     19  F   UNL     1      32.556  -6.905 -19.855  0.00  0.00    -0.204 F 
ATOM     20  C   UNL     1      32.946  -9.381 -23.137  0.00  0.00    +0.194 C 
ATOM     21  C   UNL     1      33.696  -8.207 -23.055  0.00  0.00    +0.178 C 
ATOM     22  C   UNL     1      32.065  -9.718 -22.110  0.00  0.00    +0.178 C 
ATOM     23  C   UNL     1      33.565  -7.372 -21.947  0.00  0.00    +0.063 C 
ATOM     24  C   UNL     1      31.934  -8.882 -21.002  0.00  0.00    +0.063 C 
ATOM     25  C   UNL     1      32.683  -7.709 -20.920  0.00  0.00    +0.145 C 
ENDBRANCH  16  20
ENDBRANCH  15  16
ENDBRANCH   2  15
TORSDOF 4
ENDMDL
MODEL 5
REMARK VINA RESULT:     -10.2      7.708     11.987
REMARK  Name = 46189893
REMARK  4 active torsions:
REMARK  status: ('A' for Active; 'I' for Inactive)
REMARK    1  A    between atoms: C_1  and  C_8
REMARK    2  A    between atoms: C_2  and  C_15
REMARK    3  A    between atoms: C_15  and  O_16
REMARK    4  A    between atoms: O_16  and  C_20
REMARK                            x       y       z     vdW  Elec       q    Type
REMARK                         _______ _______ _______ _____ _____    ______ ____
ROOT
ATOM      1  C   UNL     1      33.583 -12.514 -25.141  0.00  0.00    -0.023 C 
ATOM      2  C   UNL     1      33.471 -13.808 -24.631  0.00  0.00    +0.017 C 
ATOM      3  C   UNL     1      33.391 -12.282 -26.503  0.00  0.00    -0.004 C 
ATOM      4  C   UNL     1      33.167 -14.870 -25.483  0.00  0.00    -0.001 C 
ATOM      5  C   UNL     1      33.089 -13.344 -27.355  0.00  0.00    -0.000 C 
ATOM      6  C   UNL     1      32.976 -14.638 -26.845  0.00  0.00    -0.000 C 
ENDROOT
BRANCH   1   8
ATOM      7  N   UNL     1      33.805  -8.508 -23.513  0.00  0.00    +0.384 N 
ATOM      8  C   UNL     1      33.911 -11.344 -24.234  0.00  0.00    +0.018 C 
ATOM      9  C   UNL     1      34.771 -10.282 -24.941  0.00  0.00    -0.019 C 
ATOM     10  C   UNL     1      32.650 -10.691 -23.645  0.00  0.00    -0.019 C 
ATOM     11  C   UNL     1      35.048  -9.096 -24.017  0.00  0.00    -0.081 C 
ATOM     12  C   UNL     1      33.011  -9.488 -22.772  0.00  0.00    -0.081 C 
ATOM     13  H   UNL     1      33.257  -8.164 -24.300  0.00  0.00    -0.085 HD
ATOM     14  H   UNL     1      34.047  -7.747 -22.878  0.00  0.00    -0.085 HD
ENDBRANCH   1   8
BRANCH   2  15
ATOM     15  C   UNL     1      33.671 -14.080 -23.176  0.00  0.00    +0.232 C 
BRANCH  15  16
ATOM     16  O   UNL     1      34.931 -14.710 -22.985  0.00  0.00    -0.466 OA
BRANCH  16  20
ATOM     17  F   UNL     1      35.337 -16.640 -24.909  0.00  0.00    -0.201 F 
ATOM     18  F   UNL     1      34.487 -15.503 -20.383  0.00  0.00    -0.201 F 
ATOM     19  F   UNL     1      34.857 -20.047 -21.657  0.00  0.00    -0.204 F 
ATOM     20  C   UNL     1      34.913 -16.040 -22.654  0.00  0.00    +0.194 C 
ATOM     21  C   UNL     1      35.119 -17.007 -23.638  0.00  0.00    +0.178 C 
ATOM     22  C   UNL     1      34.686 -16.427 -21.333  0.00  0.00    +0.178 C 
ATOM     23  C   UNL     1      35.100 -18.359 -23.302  0.00  0.00    +0.063 C 
ATOM     24  C   UNL     1      34.667 -17.780 -20.997  0.00  0.00    +0.063 C 
ATOM     25  C   UNL     1      34.875 -18.747 -21.981  0.00  0.00    +0.145 C 
ENDBRANCH  16  20
ENDBRANCH  15  16
ENDBRANCH   2  15
TORSDOF 4
ENDMDL
MODEL 6
REMARK VINA RESULT:     -10.2      2.317      4.381
REMARK  Name = 46189893
REMARK  4 active torsions:
REMARK  status: ('A' for Active; 'I' for Inactive)
REMARK    1  A    between atoms: C_1  and  C_8
REMARK    2  A    between atoms: C_2  and  C_15
REMARK    3  A    between atoms: C_15  and  O_16
REMARK    4  A    between atoms: O_16  and  C_20
REMARK                            x       y       z     vdW  Elec       q    Type
REMARK                         _______ _______ _______ _____ _____    ______ ____
ROOT
ATOM      1  C   UNL     1      32.574 -23.550 -15.511  0.00  0.00    -0.023 C 
ATOM      2  C   UNL     1      33.592 -23.185 -16.392  0.00  0.00    +0.017 C 
ATOM      3  C   UNL     1      32.887 -23.960 -14.215  0.00  0.00    -0.004 C 
ATOM      4  C   UNL     1      34.924 -23.231 -15.977  0.00  0.00    -0.001 C 
ATOM      5  C   UNL     1      34.217 -24.007 -13.800  0.00  0.00    -0.000 C 
ATOM      6  C   UNL     1      35.236 -23.642 -14.681  0.00  0.00    -0.000 C 
ENDROOT
BRANCH   1   8
ATOM      7  N   UNL     1      28.247 -23.673 -15.396  0.00  0.00    +0.384 N 
ATOM      8  C   UNL     1      31.120 -23.507 -15.938  0.00  0.00    +0.018 C 
ATOM      9  C   UNL     1      30.403 -24.847 -15.703  0.00  0.00    -0.019 C 
ATOM     10  C   UNL     1      30.344 -22.369 -15.253  0.00  0.00    -0.019 C 
ATOM     11  C   UNL     1      28.930 -24.759 -16.102  0.00  0.00    -0.081 C 
ATOM     12  C   UNL     1      28.873 -22.380 -15.671  0.00  0.00    -0.081 C 
ATOM     13  H   UNL     1      28.285 -23.854 -14.394  0.00  0.00    -0.085 HD
ATOM     14  H   UNL     1      27.282 -23.637 -15.723  0.00  0.00    -0.085 HD
ENDBRANCH   1   8
BRANCH   2  15
ATOM     15  C   UNL     1      33.282 -22.741 -17.783  0.00  0.00    +0.232 C 
BRANCH  15  16
ATOM     16  O   UNL     1      34.422 -22.946 -18.607  0.00  0.00    -0.466 OA
BRANCH  16  20
ATOM     17  F   UNL     1      37.045 -22.159 -18.306  0.00  0.00    -0.201 F 
ATOM     18  F   UNL     1      32.785 -21.494 -20.284  0.00  0.00    -0.201 F 
ATOM     19  F   UNL     1      36.357 -18.559 -21.301  0.00  0.00    -0.204 F 
ATOM     20  C   UNL     1      34.904 -21.853 -19.279  0.00  0.00    +0.194 C 
ATOM     21  C   UNL     1      36.234 -21.465 -19.116  0.00  0.00    +0.178 C 
ATOM     22  C   UNL     1      34.064 -21.127 -20.124  0.00  0.00    +0.178 C 
ATOM     23  C   UNL     1      36.724 -20.353 -19.799  0.00  0.00    +0.063 C 
ATOM     24  C   UNL     1      34.555 -20.015 -20.806  0.00  0.00    +0.063 C 
ATOM     25  C   UNL     1      35.885 -19.628 -20.644  0.00  0.00    +0.145 C 
ENDBRANCH  16  20
ENDBRANCH  15  16
ENDBRANCH   2  15
TORSDOF 4
ENDMDL
MODEL 7
REMARK VINA RESULT:     -10.1      5.061      8.289
REMARK  Name = 46189893
REMARK  4 active torsions:
REMARK  status: ('A' for Active; 'I' for Inactive)
REMARK    1  A    between atoms: C_1  and  C_8
REMARK    2  A    between atoms: C_2  and  C_15
REMARK    3  A    between atoms: C_15  and  O_16
REMARK    4  A    between atoms: O_16  and  C_20
REMARK                            x       y       z     vdW  Elec       q    Type
REMARK                         _______ _______ _______ _____ _____    ______ ____
ROOT
ATOM      1  C   UNL     1      34.590 -18.628 -22.626  0.00  0.00    -0.023 C 
ATOM      2  C   UNL     1      34.471 -17.246 -22.778  0.00  0.00    +0.017 C 
ATOM      3  C   UNL     1      34.839 -19.433 -23.737  0.00  0.00    -0.004 C 
ATOM      4  C   UNL     1      34.601 -16.669 -24.041  0.00  0.00    -0.001 C 
ATOM      5  C   UNL     1      34.969 -18.856 -25.000  0.00  0.00    -0.000 C 
ATOM      6  C   UNL     1      34.850 -17.474 -25.153  0.00  0.00    -0.000 C 
ENDROOT
BRANCH   1   8
ATOM      7  N   UNL     1      34.090 -21.600 -19.517  0.00  0.00    +0.384 N 
ATOM      8  C   UNL     1      34.453 -19.278 -21.263  0.00  0.00    +0.018 C 
ATOM      9  C   UNL     1      33.089 -19.964 -21.078  0.00  0.00    -0.019 C 
ATOM     10  C   UNL     1      35.586 -20.278 -20.977  0.00  0.00    -0.019 C 
ATOM     11  C   UNL     1      32.998 -20.646 -19.713  0.00  0.00    -0.081 C 
ATOM     12  C   UNL     1      35.396 -20.947 -19.615  0.00  0.00    -0.081 C 
ATOM     13  H   UNL     1      34.028 -22.327 -20.229  0.00  0.00    -0.085 HD
ATOM     14  H   UNL     1      34.002 -22.000 -18.583  0.00  0.00    -0.085 HD
ENDBRANCH   1   8
BRANCH   2  15
ATOM     15  C   UNL     1      34.205 -16.364 -21.602  0.00  0.00    +0.232 C 
BRANCH  15  16
ATOM     16  O   UNL     1      32.833 -15.993 -21.595  0.00  0.00    -0.466 OA
BRANCH  16  20
ATOM     17  F   UNL     1      32.747 -14.536 -23.933  0.00  0.00    -0.201 F 
ATOM     18  F   UNL     1      32.353 -14.699 -19.208  0.00  0.00    -0.201 F 
ATOM     19  F   UNL     1      31.726 -10.605 -21.501  0.00  0.00    -0.204 F 
ATOM     20  C   UNL     1      32.557 -14.650 -21.571  0.00  0.00    +0.194 C 
ATOM     21  C   UNL     1      32.518 -13.925 -22.763  0.00  0.00    +0.178 C 
ATOM     22  C   UNL     1      32.316 -14.008 -20.356  0.00  0.00    +0.178 C 
ATOM     23  C   UNL     1      32.237 -12.559 -22.738  0.00  0.00    +0.063 C 
ATOM     24  C   UNL     1      32.036 -12.643 -20.333  0.00  0.00    +0.063 C 
ATOM     25  C   UNL     1      31.996 -11.918 -21.524  0.00  0.00    +0.145 C 
ENDBRANCH  16  20
ENDBRANCH  15  16
ENDBRANCH   2  15
TORSDOF 4
ENDMDL
MODEL 8
REMARK VINA RESULT:     -10.0     10.041     13.285
REMARK  Name = 46189893
REMARK  4 active torsions:
REMARK  status: ('A' for Active; 'I' for Inactive)
REMARK    1  A    between atoms: C_1  and  C_8
REMARK    2  A    between atoms: C_2  and  C_15
REMARK    3  A    between atoms: C_15  and  O_16
REMARK    4  A    between atoms: O_16  and  C_20
REMARK                            x       y       z     vdW  Elec       q    Type
REMARK                         _______ _______ _______ _____ _____    ______ ____
ROOT
ATOM      1  C   UNL     1      32.069  -9.791 -21.740  0.00  0.00    -0.023 C 
ATOM      2  C   UNL     1      31.981 -11.173 -21.901  0.00  0.00    +0.017 C 
ATOM      3  C   UNL     1      31.926  -9.225 -20.474  0.00  0.00    -0.004 C 
ATOM      4  C   UNL     1      31.749 -11.991 -20.794  0.00  0.00    -0.001 C 
ATOM      5  C   UNL     1      31.694 -10.042 -19.367  0.00  0.00    -0.000 C 
ATOM      6  C   UNL     1      31.606 -11.425 -19.527  0.00  0.00    -0.000 C 
ENDROOT
BRANCH   1   8
ATOM      7  N   UNL     1      32.707  -6.248 -24.147  0.00  0.00    +0.384 N 
ATOM      8  C   UNL     1      32.321  -8.882 -22.928  0.00  0.00    +0.018 C 
ATOM      9  C   UNL     1      31.154  -7.910 -23.177  0.00  0.00    -0.019 C 
ATOM     10  C   UNL     1      33.637  -8.098 -22.793  0.00  0.00    -0.019 C 
ATOM     11  C   UNL     1      31.456  -6.979 -24.351  0.00  0.00    -0.081 C 
ATOM     12  C   UNL     1      33.840  -7.159 -23.984  0.00  0.00    -0.081 C 
ATOM     13  H   UNL     1      32.622  -5.671 -23.310  0.00  0.00    -0.085 HD
ATOM     14  H   UNL     1      32.877  -5.670 -24.970  0.00  0.00    -0.085 HD
ENDBRANCH   1   8
BRANCH   2  15
ATOM     15  C   UNL     1      32.131 -11.802 -23.247  0.00  0.00    +0.232 C 
BRANCH  15  16
ATOM     16  O   UNL     1      33.476 -12.229 -23.418  0.00  0.00    -0.466 OA
BRANCH  16  20
ATOM     17  F   UNL     1      34.351 -14.113 -21.607  0.00  0.00    -0.201 F 
ATOM     18  F   UNL     1      32.990 -13.013 -26.016  0.00  0.00    -0.201 F 
ATOM     19  F   UNL     1      34.238 -17.455 -24.957  0.00  0.00    -0.204 F 
ATOM     20  C   UNL     1      33.666 -13.532 -23.802  0.00  0.00    +0.194 C 
ATOM     21  C   UNL     1      34.110 -14.474 -22.874  0.00  0.00    +0.178 C 
ATOM     22  C   UNL     1      33.416 -13.914 -25.120  0.00  0.00    +0.178 C 
ATOM     23  C   UNL     1      34.303 -15.799 -23.265  0.00  0.00    +0.063 C 
ATOM     24  C   UNL     1      33.610 -15.239 -25.510  0.00  0.00    +0.063 C 
ATOM     25  C   UNL     1      34.053 -16.182 -24.582  0.00  0.00    +0.145 C 
ENDBRANCH  16  20
ENDBRANCH  15  16
ENDBRANCH   2  15
TORSDOF 4
ENDMDL
MODEL 9
REMARK VINA RESULT:     -10.0     10.162     13.301
REMARK  Name = 46189893
REMARK  4 active torsions:
REMARK  status: ('A' for Active; 'I' for Inactive)
REMARK    1  A    between atoms: C_1  and  C_8
REMARK    2  A    between atoms: C_2  and  C_15
REMARK    3  A    between atoms: C_15  and  O_16
REMARK    4  A    between atoms: O_16  and  C_20
REMARK                            x       y       z     vdW  Elec       q    Type
REMARK                         _______ _______ _______ _____ _____    ______ ____
ROOT
ATOM      1  C   UNL     1      32.068  -9.654 -21.660  0.00  0.00    -0.023 C 
ATOM      2  C   UNL     1      31.906 -11.033 -21.793  0.00  0.00    +0.017 C 
ATOM      3  C   UNL     1      31.988  -9.061 -20.400  0.00  0.00    -0.004 C 
ATOM      4  C   UNL     1      31.663 -11.820 -20.666  0.00  0.00    -0.001 C 
ATOM      5  C   UNL     1      31.744  -9.846 -19.274  0.00  0.00    -0.000 C 
ATOM      6  C   UNL     1      31.582 -11.226 -19.406  0.00  0.00    -0.000 C 
ENDROOT
BRANCH   1   8
ATOM      7  N   UNL     1      32.751  -6.182 -24.156  0.00  0.00    +0.384 N 
ATOM      8  C   UNL     1      32.334  -8.780 -22.870  0.00  0.00    +0.018 C 
ATOM      9  C   UNL     1      31.178  -7.804 -23.150  0.00  0.00    -0.019 C 
ATOM     10  C   UNL     1      33.657  -8.004 -22.749  0.00  0.00    -0.019 C 
ATOM     11  C   UNL     1      31.494  -6.907 -24.347  0.00  0.00    -0.081 C 
ATOM     12  C   UNL     1      33.875  -7.100 -23.963  0.00  0.00    -0.081 C 
ATOM     13  H   UNL     1      32.668  -5.583 -23.335  0.00  0.00    -0.085 HD
ATOM     14  H   UNL     1      32.931  -5.629 -24.993  0.00  0.00    -0.085 HD
ENDBRANCH   1   8
BRANCH   2  15
ATOM     15  C   UNL     1      31.989 -11.691 -23.131  0.00  0.00    +0.232 C 
BRANCH  15  16
ATOM     16  O   UNL     1      33.332 -12.085 -23.378  0.00  0.00    -0.466 OA
BRANCH  16  20
ATOM     17  F   UNL     1      33.052 -12.736 -26.041  0.00  0.00    -0.201 F 
ATOM     18  F   UNL     1      34.017 -14.070 -21.592  0.00  0.00    -0.201 F 
ATOM     19  F   UNL     1      34.124 -17.250 -25.097  0.00  0.00    -0.204 F 
ATOM     20  C   UNL     1      33.530 -13.372 -23.806  0.00  0.00    +0.194 C 
ATOM     21  C   UNL     1      33.384 -13.688 -25.157  0.00  0.00    +0.178 C 
ATOM     22  C   UNL     1      33.876 -14.367 -22.891  0.00  0.00    +0.178 C 
ATOM     23  C   UNL     1      33.585 -14.997 -25.593  0.00  0.00    +0.063 C 
ATOM     24  C   UNL     1      34.076 -15.676 -23.327  0.00  0.00    +0.063 C 
ATOM     25  C   UNL     1      33.931 -15.991 -24.678  0.00  0.00    +0.145 C 
ENDBRANCH  16  20
ENDBRANCH  15  16
ENDBRANCH   2  15
TORSDOF 4
ENDMDL
