MODEL 1
REMARK VINA RESULT:      -8.4      0.000      0.000
REMARK  Name = 448475
REMARK  3 active torsions:
REMARK  status: ('A' for Active; 'I' for Inactive)
REMARK    1  A    between atoms: C_4  and  C_13
REMARK    2  A    between atoms: C_13  and  C_16
REMARK    3  A    between atoms: N_15  and  O_18
REMARK                            x       y       z     vdW  Elec       q    Type
REMARK                         _______ _______ _______ _____ _____    ______ ____
ROOT
ATOM      1  S   UNL     1      37.178 -23.813 -14.453  0.00  0.00    -0.103 S 
ATOM      2  O   UNL     1      36.719 -24.089 -10.660  0.00  0.00    -0.274 OA
ATOM      3  N   UNL     1      35.059 -23.836 -12.199  0.00  0.00    -0.283 N 
ATOM      4  C   UNL     1      37.276 -24.721 -12.891  0.00  0.00    +0.137 C 
ATOM      5  C   UNL     1      36.348 -24.155 -11.836  0.00  0.00    +0.237 C 
ATOM      6  C   UNL     1      35.411 -23.725 -14.627  0.00  0.00    +0.039 C 
ATOM      7  C   UNL     1      34.566 -23.726 -13.513  0.00  0.00    +0.056 C 
ATOM      8  C   UNL     1      34.860 -23.578 -15.907  0.00  0.00    +0.007 C 
ATOM      9  C   UNL     1      33.185 -23.565 -13.683  0.00  0.00    +0.015 C 
ATOM     10  C   UNL     1      33.482 -23.439 -16.073  0.00  0.00    +0.001 C 
ATOM     11  C   UNL     1      32.645 -23.429 -14.962  0.00  0.00    +0.001 C 
ATOM     12  H   UNL     1      34.420 -23.669 -11.470  0.00  0.00    +0.155 HD
ENDROOT
BRANCH   4  13
ATOM     13  C   UNL     1      37.013 -26.209 -13.098  0.00  0.00    +0.107 C 
BRANCH  13  16
ATOM     14  O   UNL     1      38.678 -26.792 -14.753  0.00  0.00    -0.273 OA
ATOM     15  N   UNL     1      36.438 -27.016 -15.269  0.00  0.00    -0.197 N 
ATOM     16  C   UNL     1      37.492 -26.696 -14.449  0.00  0.00    +0.246 C 
ATOM     17  H   UNL     1      35.502 -26.922 -14.979  0.00  0.00    +0.182 HD
BRANCH  15  18
ATOM     18  O   UNL     1      36.778 -27.484 -16.545  0.00  0.00    -0.295 OA
ATOM     19  H   UNL     1      37.164 -28.370 -16.472  0.00  0.00    +0.241 HD
ENDBRANCH  15  18
ENDBRANCH  13  16
ENDBRANCH   4  13
TORSDOF 3
ENDMDL
MODEL 2
REMARK VINA RESULT:      -8.2     10.243     11.546
REMARK  Name = 448475
REMARK  3 active torsions:
REMARK  status: ('A' for Active; 'I' for Inactive)
REMARK    1  A    between atoms: C_4  and  C_13
REMARK    2  A    between atoms: C_13  and  C_16
REMARK    3  A    between atoms: N_15  and  O_18
REMARK                            x       y       z     vdW  Elec       q    Type
REMARK                         _______ _______ _______ _____ _____    ______ ____
ROOT
ATOM      1  S   UNL     1      35.667 -17.747 -23.086  0.00  0.00    -0.103 S 
ATOM      2  O   UNL     1      35.063 -15.935 -19.766  0.00  0.00    -0.274 OA
ATOM      3  N   UNL     1      34.223 -15.335 -21.797  0.00  0.00    -0.283 N 
ATOM      4  C   UNL     1      34.997 -17.663 -21.407  0.00  0.00    +0.137 C 
ATOM      5  C   UNL     1      34.803 -16.237 -20.935  0.00  0.00    +0.237 C 
ATOM      6  C   UNL     1      34.597 -16.573 -23.884  0.00  0.00    +0.039 C 
ATOM      7  C   UNL     1      34.022 -15.512 -23.178  0.00  0.00    +0.056 C 
ATOM      8  C   UNL     1      34.386 -16.675 -25.265  0.00  0.00    +0.007 C 
ATOM      9  C   UNL     1      33.257 -14.555 -23.857  0.00  0.00    +0.015 C 
ATOM     10  C   UNL     1      33.606 -15.731 -25.934  0.00  0.00    +0.001 C 
ATOM     11  C   UNL     1      33.045 -14.669 -25.231  0.00  0.00    +0.001 C 
ATOM     12  H   UNL     1      33.919 -14.482 -21.410  0.00  0.00    +0.155 HD
ENDROOT
BRANCH   4  13
ATOM     13  C   UNL     1      33.698 -18.453 -21.289  0.00  0.00    +0.107 C 
BRANCH  13  16
ATOM     14  O   UNL     1      35.009 -20.252 -20.343  0.00  0.00    -0.273 OA
ATOM     15  N   UNL     1      32.720 -20.496 -20.538  0.00  0.00    -0.197 N 
ATOM     16  C   UNL     1      33.908 -19.820 -20.675  0.00  0.00    +0.246 C 
ATOM     17  H   UNL     1      31.861 -20.107 -20.820  0.00  0.00    +0.182 HD
BRANCH  15  18
ATOM     18  O   UNL     1      32.808 -21.775 -19.972  0.00  0.00    -0.295 OA
ATOM     19  H   UNL     1      32.484 -21.748 -19.059  0.00  0.00    +0.241 HD
ENDBRANCH  15  18
ENDBRANCH  13  16
ENDBRANCH   4  13
TORSDOF 3
ENDMDL
MODEL 3
REMARK VINA RESULT:      -8.1      1.629      1.902
REMARK  Name = 448475
REMARK  3 active torsions:
REMARK  status: ('A' for Active; 'I' for Inactive)
REMARK    1  A    between atoms: C_4  and  C_13
REMARK    2  A    between atoms: C_13  and  C_16
REMARK    3  A    between atoms: N_15  and  O_18
REMARK                            x       y       z     vdW  Elec       q    Type
REMARK                         _______ _______ _______ _____ _____    ______ ____
ROOT
ATOM      1  S   UNL     1      36.333 -23.012 -15.998  0.00  0.00    -0.103 S 
ATOM      2  O   UNL     1      36.558 -23.439 -12.198  0.00  0.00    -0.274 OA
ATOM      3  N   UNL     1      34.646 -23.413 -13.437  0.00  0.00    -0.283 N 
ATOM      4  C   UNL     1      36.824 -23.928 -14.517  0.00  0.00    +0.137 C 
ATOM      5  C   UNL     1      36.010 -23.536 -13.301  0.00  0.00    +0.237 C 
ATOM      6  C   UNL     1      34.569 -23.196 -15.882  0.00  0.00    +0.039 C 
ATOM      7  C   UNL     1      33.931 -23.353 -14.647  0.00  0.00    +0.056 C 
ATOM      8  C   UNL     1      33.798 -23.109 -17.049  0.00  0.00    +0.007 C 
ATOM      9  C   UNL     1      32.533 -23.404 -14.585  0.00  0.00    +0.015 C 
ATOM     10  C   UNL     1      32.406 -23.181 -16.984  0.00  0.00    +0.001 C 
ATOM     11  C   UNL     1      31.774 -23.326 -15.753  0.00  0.00    +0.001 C 
ATOM     12  H   UNL     1      34.119 -23.363 -12.607  0.00  0.00    +0.155 HD
ENDROOT
BRANCH   4  13
ATOM     13  C   UNL     1      36.756 -25.434 -14.749  0.00  0.00    +0.107 C 
BRANCH  13  16
ATOM     14  O   UNL     1      38.385 -27.208 -14.523  0.00  0.00    -0.273 OA
ATOM     15  N   UNL     1      39.028 -25.185 -15.434  0.00  0.00    -0.197 N 
ATOM     16  C   UNL     1      38.128 -26.060 -14.875  0.00  0.00    +0.246 C 
ATOM     17  H   UNL     1      38.774 -24.273 -15.701  0.00  0.00    +0.182 HD
BRANCH  15  18
ATOM     18  O   UNL     1      40.331 -25.673 -15.600  0.00  0.00    -0.295 OA
ATOM     19  H   UNL     1      40.525 -25.764 -16.545  0.00  0.00    +0.241 HD
ENDBRANCH  15  18
ENDBRANCH  13  16
ENDBRANCH   4  13
TORSDOF 3
ENDMDL
MODEL 4
REMARK VINA RESULT:      -8.1      1.605      2.258
REMARK  Name = 448475
REMARK  3 active torsions:
REMARK  status: ('A' for Active; 'I' for Inactive)
REMARK    1  A    between atoms: C_4  and  C_13
REMARK    2  A    between atoms: C_13  and  C_16
REMARK    3  A    between atoms: N_15  and  O_18
REMARK                            x       y       z     vdW  Elec       q    Type
REMARK                         _______ _______ _______ _____ _____    ______ ____
ROOT
ATOM      1  S   UNL     1      34.928 -23.192 -16.081  0.00  0.00    -0.103 S 
ATOM      2  O   UNL     1      35.984 -23.634 -12.426  0.00  0.00    -0.274 OA
ATOM      3  N   UNL     1      33.845 -23.543 -13.205  0.00  0.00    -0.283 N 
ATOM      4  C   UNL     1      35.708 -24.127 -14.743  0.00  0.00    +0.137 C 
ATOM      5  C   UNL     1      35.200 -23.711 -13.378  0.00  0.00    +0.237 C 
ATOM      6  C   UNL     1      33.229 -23.319 -15.572  0.00  0.00    +0.039 C 
ATOM      7  C   UNL     1      32.879 -23.457 -14.225  0.00  0.00    +0.056 C 
ATOM      8  C   UNL     1      32.220 -23.203 -16.537  0.00  0.00    +0.007 C 
ATOM      9  C   UNL     1      31.529 -23.462 -13.852  0.00  0.00    +0.015 C 
ATOM     10  C   UNL     1      30.876 -23.230 -16.162  0.00  0.00    +0.001 C 
ATOM     11  C   UNL     1      30.531 -23.357 -14.820  0.00  0.00    +0.001 C 
ATOM     12  H   UNL     1      33.519 -23.477 -12.279  0.00  0.00    +0.155 HD
ENDROOT
BRANCH   4  13
ATOM     13  C   UNL     1      35.541 -25.629 -14.946  0.00  0.00    +0.107 C 
BRANCH  13  16
ATOM     14  O   UNL     1      36.832 -27.330 -16.083  0.00  0.00    -0.273 OA
ATOM     15  N   UNL     1      37.925 -25.575 -15.051  0.00  0.00    -0.197 N 
ATOM     16  C   UNL     1      36.814 -26.290 -15.430  0.00  0.00    +0.246 C 
ATOM     17  H   UNL     1      37.858 -24.745 -14.527  0.00  0.00    +0.182 HD
BRANCH  15  18
ATOM     18  O   UNL     1      39.157 -26.103 -15.457  0.00  0.00    -0.295 OA
ATOM     19  H   UNL     1      39.432 -25.682 -16.287  0.00  0.00    +0.241 HD
ENDBRANCH  15  18
ENDBRANCH  13  16
ENDBRANCH   4  13
TORSDOF 3
ENDMDL
MODEL 5
REMARK VINA RESULT:      -7.9      2.302      3.021
REMARK  Name = 448475
REMARK  3 active torsions:
REMARK  status: ('A' for Active; 'I' for Inactive)
REMARK    1  A    between atoms: C_4  and  C_13
REMARK    2  A    between atoms: C_13  and  C_16
REMARK    3  A    between atoms: N_15  and  O_18
REMARK                            x       y       z     vdW  Elec       q    Type
REMARK                         _______ _______ _______ _____ _____    ______ ____
ROOT
ATOM      1  S   UNL     1      37.161 -22.397 -15.446  0.00  0.00    -0.103 S 
ATOM      2  O   UNL     1      34.831 -24.298 -13.074  0.00  0.00    -0.274 OA
ATOM      3  N   UNL     1      34.358 -23.685 -15.217  0.00  0.00    -0.283 N 
ATOM      4  C   UNL     1      36.719 -23.847 -14.459  0.00  0.00    +0.137 C 
ATOM      5  C   UNL     1      35.232 -23.923 -14.181  0.00  0.00    +0.237 C 
ATOM      6  C   UNL     1      35.918 -22.518 -16.712  0.00  0.00    +0.039 C 
ATOM      7  C   UNL     1      34.678 -23.115 -16.463  0.00  0.00    +0.056 C 
ATOM      8  C   UNL     1      36.163 -21.937 -17.963  0.00  0.00    +0.007 C 
ATOM      9  C   UNL     1      33.690 -23.112 -17.456  0.00  0.00    +0.015 C 
ATOM     10  C   UNL     1      35.183 -21.956 -18.956  0.00  0.00    +0.001 C 
ATOM     11  C   UNL     1      33.946 -22.540 -18.701  0.00  0.00    +0.001 C 
ATOM     12  H   UNL     1      33.418 -23.938 -15.073  0.00  0.00    +0.155 HD
ENDROOT
BRANCH   4  13
ATOM     13  C   UNL     1      37.212 -25.134 -15.112  0.00  0.00    +0.107 C 
BRANCH  13  16
ATOM     14  O   UNL     1      38.688 -26.181 -13.507  0.00  0.00    -0.273 OA
ATOM     15  N   UNL     1      39.578 -25.227 -15.414  0.00  0.00    -0.197 N 
ATOM     16  C   UNL     1      38.553 -25.578 -14.568  0.00  0.00    +0.246 C 
ATOM     17  H   UNL     1      39.418 -24.743 -16.256  0.00  0.00    +0.182 HD
BRANCH  15  18
ATOM     18  O   UNL     1      40.864 -25.600 -15.001  0.00  0.00    -0.295 OA
ATOM     19  H   UNL     1      41.494 -25.440 -15.721  0.00  0.00    +0.241 HD
ENDBRANCH  15  18
ENDBRANCH  13  16
ENDBRANCH   4  13
TORSDOF 3
ENDMDL
MODEL 6
REMARK VINA RESULT:      -7.9      9.339     10.779
REMARK  Name = 448475
REMARK  3 active torsions:
REMARK  status: ('A' for Active; 'I' for Inactive)
REMARK    1  A    between atoms: C_4  and  C_13
REMARK    2  A    between atoms: C_13  and  C_16
REMARK    3  A    between atoms: N_15  and  O_18
REMARK                            x       y       z     vdW  Elec       q    Type
REMARK                         _______ _______ _______ _____ _____    ______ ____
ROOT
ATOM      1  S   UNL     1      35.003 -19.067 -23.800  0.00  0.00    -0.103 S 
ATOM      2  O   UNL     1      36.406 -18.794 -20.247  0.00  0.00    -0.274 OA
ATOM      3  N   UNL     1      35.519 -17.094 -21.475  0.00  0.00    -0.283 N 
ATOM      4  C   UNL     1      34.970 -19.452 -22.033  0.00  0.00    +0.137 C 
ATOM      5  C   UNL     1      35.720 -18.428 -21.206  0.00  0.00    +0.237 C 
ATOM      6  C   UNL     1      34.578 -17.342 -23.730  0.00  0.00    +0.039 C 
ATOM      7  C   UNL     1      34.890 -16.558 -22.615  0.00  0.00    +0.056 C 
ATOM      8  C   UNL     1      33.983 -16.743 -24.847  0.00  0.00    +0.007 C 
ATOM      9  C   UNL     1      34.622 -15.184 -22.630  0.00  0.00    +0.015 C 
ATOM     10  C   UNL     1      33.698 -15.377 -24.850  0.00  0.00    +0.001 C 
ATOM     11  C   UNL     1      34.021 -14.597 -23.743  0.00  0.00    +0.001 C 
ATOM     12  H   UNL     1      35.847 -16.451 -20.806  0.00  0.00    +0.155 HD
ENDROOT
BRANCH   4  13
ATOM     13  C   UNL     1      33.539 -19.611 -21.527  0.00  0.00    +0.107 C 
BRANCH  13  16
ATOM     14  O   UNL     1      32.458 -20.565 -19.585  0.00  0.00    -0.273 OA
ATOM     15  N   UNL     1      34.634 -21.163 -20.082  0.00  0.00    -0.197 N 
ATOM     16  C   UNL     1      33.458 -20.483 -20.293  0.00  0.00    +0.246 C 
ATOM     17  H   UNL     1      35.410 -21.064 -20.680  0.00  0.00    +0.182 HD
BRANCH  15  18
ATOM     18  O   UNL     1      34.659 -22.006 -18.963  0.00  0.00    -0.295 OA
ATOM     19  H   UNL     1      34.002 -21.705 -18.317  0.00  0.00    +0.241 HD
ENDBRANCH  15  18
ENDBRANCH  13  16
ENDBRANCH   4  13
TORSDOF 3
ENDMDL
MODEL 7
REMARK VINA RESULT:      -7.7      8.984     10.526
REMARK  Name = 448475
REMARK  3 active torsions:
REMARK  status: ('A' for Active; 'I' for Inactive)
REMARK    1  A    between atoms: C_4  and  C_13
REMARK    2  A    between atoms: C_13  and  C_16
REMARK    3  A    between atoms: N_15  and  O_18
REMARK                            x       y       z     vdW  Elec       q    Type
REMARK                         _______ _______ _______ _____ _____    ______ ____
ROOT
ATOM      1  S   UNL     1      34.200 -18.166 -21.347  0.00  0.00    -0.103 S 
ATOM      2  O   UNL     1      37.978 -18.487 -21.887  0.00  0.00    -0.274 OA
ATOM      3  N   UNL     1      36.640 -19.995 -20.828  0.00  0.00    -0.283 N 
ATOM      4  C   UNL     1      35.655 -18.349 -22.407  0.00  0.00    +0.137 C 
ATOM      5  C   UNL     1      36.844 -18.919 -21.660  0.00  0.00    +0.237 C 
ATOM      6  C   UNL     1      34.209 -19.763 -20.565  0.00  0.00    +0.039 C 
ATOM      7  C   UNL     1      35.397 -20.477 -20.377  0.00  0.00    +0.056 C 
ATOM      8  C   UNL     1      33.008 -20.280 -20.062  0.00  0.00    +0.007 C 
ATOM      9  C   UNL     1      35.379 -21.690 -19.676  0.00  0.00    +0.015 C 
ATOM     10  C   UNL     1      32.992 -21.499 -19.383  0.00  0.00    +0.001 C 
ATOM     11  C   UNL     1      34.177 -22.202 -19.187  0.00  0.00    +0.001 C 
ATOM     12  H   UNL     1      37.441 -20.476 -20.517  0.00  0.00    +0.155 HD
ENDROOT
BRANCH   4  13
ATOM     13  C   UNL     1      35.341 -19.187 -23.641  0.00  0.00    +0.107 C 
BRANCH  13  16
ATOM     14  O   UNL     1      33.622 -18.832 -25.306  0.00  0.00    -0.273 OA
ATOM     15  N   UNL     1      35.151 -17.154 -24.877  0.00  0.00    -0.197 N 
ATOM     16  C   UNL     1      34.598 -18.399 -24.698  0.00  0.00    +0.246 C 
ATOM     17  H   UNL     1      35.935 -16.852 -24.365  0.00  0.00    +0.182 HD
BRANCH  15  18
ATOM     18  O   UNL     1      34.529 -16.342 -25.834  0.00  0.00    -0.295 OA
ATOM     19  H   UNL     1      34.679 -16.711 -26.718  0.00  0.00    +0.241 HD
ENDBRANCH  15  18
ENDBRANCH  13  16
ENDBRANCH   4  13
TORSDOF 3
ENDMDL
MODEL 8
REMARK VINA RESULT:      -7.7     18.405     19.943
REMARK  Name = 448475
REMARK  3 active torsions:
REMARK  status: ('A' for Active; 'I' for Inactive)
REMARK    1  A    between atoms: C_4  and  C_13
REMARK    2  A    between atoms: C_13  and  C_16
REMARK    3  A    between atoms: N_15  and  O_18
REMARK                            x       y       z     vdW  Elec       q    Type
REMARK                         _______ _______ _______ _____ _____    ______ ____
ROOT
ATOM      1  S   UNL     1      32.620  -7.386 -20.480  0.00  0.00    -0.103 S 
ATOM      2  O   UNL     1      33.526  -7.137 -24.193  0.00  0.00    -0.274 OA
ATOM      3  N   UNL     1      32.702  -8.977 -23.131  0.00  0.00    -0.283 N 
ATOM      4  C   UNL     1      32.379  -6.719 -22.145  0.00  0.00    +0.137 C 
ATOM      5  C   UNL     1      32.949  -7.626 -23.216  0.00  0.00    +0.237 C 
ATOM      6  C   UNL     1      32.082  -9.058 -20.757  0.00  0.00    +0.039 C 
ATOM      7  C   UNL     1      32.196  -9.663 -22.012  0.00  0.00    +0.056 C 
ATOM      8  C   UNL     1      31.602  -9.805 -19.673  0.00  0.00    +0.007 C 
ATOM      9  C   UNL     1      31.846 -11.010 -22.172  0.00  0.00    +0.015 C 
ATOM     10  C   UNL     1      31.235 -11.141 -19.843  0.00  0.00    +0.001 C 
ATOM     11  C   UNL     1      31.360 -11.744 -21.090  0.00  0.00    +0.001 C 
ATOM     12  H   UNL     1      32.899  -9.516 -23.931  0.00  0.00    +0.155 HD
ENDROOT
BRANCH   4  13
ATOM     13  C   UNL     1      30.908  -6.422 -22.416  0.00  0.00    +0.107 C 
BRANCH  13  16
ATOM     14  O   UNL     1      30.734  -4.713 -24.117  0.00  0.00    -0.273 OA
ATOM     15  N   UNL     1      30.432  -4.142 -21.899  0.00  0.00    -0.197 N 
ATOM     16  C   UNL     1      30.689  -5.015 -22.928  0.00  0.00    +0.246 C 
ATOM     17  H   UNL     1      30.406  -4.434 -20.960  0.00  0.00    +0.182 HD
BRANCH  15  18
ATOM     18  O   UNL     1      30.209  -2.810 -22.272  0.00  0.00    -0.295 OA
ATOM     19  H   UNL     1      30.581  -2.219 -21.599  0.00  0.00    +0.241 HD
ENDBRANCH  15  18
ENDBRANCH  13  16
ENDBRANCH   4  13
TORSDOF 3
ENDMDL
MODEL 9
REMARK VINA RESULT:      -7.3     17.086     18.311
REMARK  Name = 448475
REMARK  3 active torsions:
REMARK  status: ('A' for Active; 'I' for Inactive)
REMARK    1  A    between atoms: C_4  and  C_13
REMARK    2  A    between atoms: C_13  and  C_16
REMARK    3  A    between atoms: N_15  and  O_18
REMARK                            x       y       z     vdW  Elec       q    Type
REMARK                         _______ _______ _______ _____ _____    ______ ____
ROOT
ATOM      1  S   UNL     1      31.730  -8.883 -23.331  0.00  0.00    -0.103 S 
ATOM      2  O   UNL     1      32.266  -5.674 -21.310  0.00  0.00    -0.274 OA
ATOM      3  N   UNL     1      32.036  -7.775 -20.460  0.00  0.00    -0.283 N 
ATOM      4  C   UNL     1      32.721  -7.456 -22.827  0.00  0.00    +0.137 C 
ATOM      5  C   UNL     1      32.286  -6.896 -21.489  0.00  0.00    +0.237 C 
ATOM      6  C   UNL     1      31.755  -9.806 -21.812  0.00  0.00    +0.039 C 
ATOM      7  C   UNL     1      31.881  -9.169 -20.573  0.00  0.00    +0.056 C 
ATOM      8  C   UNL     1      31.569 -11.194 -21.856  0.00  0.00    +0.007 C 
ATOM      9  C   UNL     1      31.806  -9.918 -19.392  0.00  0.00    +0.015 C 
ATOM     10  C   UNL     1      31.515 -11.938 -20.678  0.00  0.00    +0.001 C 
ATOM     11  C   UNL     1      31.631 -11.301 -19.446  0.00  0.00    +0.001 C 
ATOM     12  H   UNL     1      31.957  -7.392 -19.557  0.00  0.00    +0.155 HD
ENDROOT
BRANCH   4  13
ATOM     13  C   UNL     1      34.209  -7.793 -22.812  0.00  0.00    +0.107 C 
BRANCH  13  16
ATOM     14  O   UNL     1      34.689  -7.668 -25.179  0.00  0.00    -0.273 OA
ATOM     15  N   UNL     1      35.133  -9.624 -24.033  0.00  0.00    -0.197 N 
ATOM     16  C   UNL     1      34.692  -8.327 -24.143  0.00  0.00    +0.246 C 
ATOM     17  H   UNL     1      35.115 -10.111 -23.178  0.00  0.00    +0.182 HD
BRANCH  15  18
ATOM     18  O   UNL     1      35.608 -10.209 -25.214  0.00  0.00    -0.295 OA
ATOM     19  H   UNL     1      35.829  -9.515 -25.853  0.00  0.00    +0.241 HD
ENDBRANCH  15  18
ENDBRANCH  13  16
ENDBRANCH   4  13
TORSDOF 3
ENDMDL
