MODEL 1
REMARK VINA RESULT:      -9.7      0.000      0.000
REMARK  Name = 5288988
REMARK  9 active torsions:
REMARK  status: ('A' for Active; 'I' for Inactive)
REMARK    1  A    between atoms: C_1  and  C_4
REMARK    2  A    between atoms: C_1  and  N_14
REMARK    3  A    between atoms: C_1  and  C_25
REMARK    4  A    between atoms: N_3  and  C_7
REMARK    5  A    between atoms: N_6  and  C_12
REMARK    6  A    between atoms: C_15  and  O_17
REMARK    7  A    between atoms: O_17  and  C_18
REMARK    8  A    between atoms: C_18  and  C_19
REMARK    9  A    between atoms: C_25  and  C_26
REMARK                            x       y       z     vdW  Elec       q    Type
REMARK                         _______ _______ _______ _____ _____    ______ ____
ROOT
ATOM      1  C   UNL     1      32.618 -23.017 -14.454  0.00  0.00    +0.151 C 
ENDROOT
BRANCH   1   4
ATOM      2  O   UNL     1      32.680 -25.126 -13.260  0.00  0.00    -0.273 OA
ATOM      3  N   UNL     1      34.480 -23.674 -13.060  0.00  0.00    -0.303 N 
ATOM      4  C   UNL     1      33.230 -24.058 -13.522  0.00  0.00    +0.240 C 
ATOM      5  H   UNL     1      34.829 -22.794 -13.332  0.00  0.00    +0.149 HD
BRANCH   3   7
ATOM      6  N   UNL     1      37.502 -24.432 -13.128  0.00  0.00    -0.246 N 
ATOM      7  C   UNL     1      35.296 -24.499 -12.203  0.00  0.00    +0.094 C 
ATOM      8  C   UNL     1      36.182 -23.666 -11.290  0.00  0.00    +0.044 C 
ATOM      9  C   UNL     1      36.305 -25.315 -13.005  0.00  0.00    +0.121 C 
ATOM     10  C   UNL     1      37.365 -23.295 -12.175  0.00  0.00    +0.103 C 
BRANCH   6  12
ATOM     11  N   UNL     1      39.481 -24.864 -14.598  0.00  0.00    -0.174 NA
ATOM     12  C   UNL     1      38.564 -24.664 -13.916  0.00  0.00    +0.170 C 
ENDBRANCH   6  12
ENDBRANCH   3   7
ENDBRANCH   1   4
BRANCH   1  14
ATOM     13  O   UNL     1      35.287 -22.579 -15.516  0.00  0.00    -0.226 OA
ATOM     14  N   UNL     1      33.098 -23.303 -15.781  0.00  0.00    -0.264 N 
ATOM     15  C   UNL     1      34.392 -23.061 -16.203  0.00  0.00    +0.402 C 
ATOM     16  H   UNL     1      32.467 -23.694 -16.428  0.00  0.00    +0.153 HD
BRANCH  15  17
ATOM     17  O   UNL     1      34.533 -23.438 -17.508  0.00  0.00    -0.430 OA
BRANCH  17  18
ATOM     18  C   UNL     1      33.523 -22.965 -18.407  0.00  0.00    +0.237 C 
BRANCH  18  19
ATOM     19  C   UNL     1      34.096 -21.868 -19.254  0.00  0.00    +0.021 C 
ATOM     20  C   UNL     1      33.247 -20.965 -19.895  0.00  0.00    -0.001 C 
ATOM     21  C   UNL     1      35.479 -21.749 -19.401  0.00  0.00    -0.001 C 
ATOM     22  C   UNL     1      33.781 -19.944 -20.683  0.00  0.00    -0.000 C 
ATOM     23  C   UNL     1      36.011 -20.728 -20.188  0.00  0.00    -0.000 C 
ATOM     24  C   UNL     1      35.162 -19.826 -20.829  0.00  0.00    -0.000 C 
ENDBRANCH  18  19
ENDBRANCH  17  18
ENDBRANCH  15  17
ENDBRANCH   1  14
BRANCH   1  25
ATOM     25  C   UNL     1      31.087 -23.060 -14.368  0.00  0.00    +0.029 C 
BRANCH  25  26
ATOM     26  C   UNL     1      30.392 -23.775 -15.545  0.00  0.00    +0.002 C 
ATOM     27  C   UNL     1      29.436 -22.805 -16.244  0.00  0.00    +0.000 C 
ATOM     28  C   UNL     1      29.626 -25.021 -15.099  0.00  0.00    +0.000 C 
ENDBRANCH  25  26
ENDBRANCH   1  25
TORSDOF 9
ENDMDL
MODEL 2
REMARK VINA RESULT:      -9.5      1.768      5.495
REMARK  Name = 5288988
REMARK  9 active torsions:
REMARK  status: ('A' for Active; 'I' for Inactive)
REMARK    1  A    between atoms: C_1  and  C_4
REMARK    2  A    between atoms: C_1  and  N_14
REMARK    3  A    between atoms: C_1  and  C_25
REMARK    4  A    between atoms: N_3  and  C_7
REMARK    5  A    between atoms: N_6  and  C_12
REMARK    6  A    between atoms: C_15  and  O_17
REMARK    7  A    between atoms: O_17  and  C_18
REMARK    8  A    between atoms: C_18  and  C_19
REMARK    9  A    between atoms: C_25  and  C_26
REMARK                            x       y       z     vdW  Elec       q    Type
REMARK                         _______ _______ _______ _____ _____    ______ ____
ROOT
ATOM      1  C   UNL     1      34.749 -24.521 -15.078  0.00  0.00    +0.151 C 
ENDROOT
BRANCH   1   4
ATOM      2  O   UNL     1      33.826 -23.936 -12.914  0.00  0.00    -0.273 OA
ATOM      3  N   UNL     1      32.434 -23.899 -14.772  0.00  0.00    -0.303 N 
ATOM      4  C   UNL     1      33.640 -24.106 -14.118  0.00  0.00    +0.240 C 
ATOM      5  H   UNL     1      32.394 -24.065 -15.742  0.00  0.00    +0.149 HD
BRANCH   3   7
ATOM      6  N   UNL     1      29.425 -23.972 -15.579  0.00  0.00    -0.246 N 
ATOM      7  C   UNL     1      31.236 -23.453 -14.103  0.00  0.00    +0.094 C 
ATOM      8  C   UNL     1      30.448 -24.614 -13.518  0.00  0.00    +0.044 C 
ATOM      9  C   UNL     1      30.246 -22.829 -15.082  0.00  0.00    +0.121 C 
ATOM     10  C   UNL     1      29.665 -25.156 -14.708  0.00  0.00    +0.103 C 
BRANCH   6  12
ATOM     11  N   UNL     1      27.802 -23.876 -17.482  0.00  0.00    -0.174 NA
ATOM     12  C   UNL     1      28.554 -23.920 -16.600  0.00  0.00    +0.170 C 
ENDBRANCH   6  12
ENDBRANCH   3   7
ENDBRANCH   1   4
BRANCH   1  14
ATOM     13  O   UNL     1      33.765 -23.894 -17.739  0.00  0.00    -0.226 OA
ATOM     14  N   UNL     1      35.062 -23.371 -15.887  0.00  0.00    -0.264 N 
ATOM     15  C   UNL     1      34.545 -23.152 -17.150  0.00  0.00    +0.402 C 
ATOM     16  H   UNL     1      35.682 -22.701 -15.518  0.00  0.00    +0.153 HD
BRANCH  15  17
ATOM     17  O   UNL     1      35.032 -21.980 -17.654  0.00  0.00    -0.430 OA
BRANCH  17  18
ATOM     18  C   UNL     1      35.550 -22.041 -18.988  0.00  0.00    +0.237 C 
BRANCH  18  19
ATOM     19  C   UNL     1      34.867 -21.001 -19.826  0.00  0.00    +0.021 C 
ATOM     20  C   UNL     1      33.474 -20.922 -19.843  0.00  0.00    -0.001 C 
ATOM     21  C   UNL     1      35.625 -20.112 -20.590  0.00  0.00    -0.001 C 
ATOM     22  C   UNL     1      32.839 -19.955 -20.623  0.00  0.00    -0.000 C 
ATOM     23  C   UNL     1      34.990 -19.146 -21.369  0.00  0.00    -0.000 C 
ATOM     24  C   UNL     1      33.597 -19.068 -21.386  0.00  0.00    -0.000 C 
ENDBRANCH  18  19
ENDBRANCH  17  18
ENDBRANCH  15  17
ENDBRANCH   1  14
BRANCH   1  25
ATOM     25  C   UNL     1      35.967 -25.030 -14.296  0.00  0.00    +0.029 C 
BRANCH  25  26
ATOM     26  C   UNL     1      37.148 -24.041 -14.221  0.00  0.00    +0.002 C 
ATOM     27  C   UNL     1      38.438 -24.746 -14.650  0.00  0.00    +0.000 C 
ATOM     28  C   UNL     1      37.325 -23.451 -12.822  0.00  0.00    +0.000 C 
ENDBRANCH  25  26
ENDBRANCH   1  25
TORSDOF 9
ENDMDL
MODEL 3
REMARK VINA RESULT:      -9.3      7.957     12.216
REMARK  Name = 5288988
REMARK  9 active torsions:
REMARK  status: ('A' for Active; 'I' for Inactive)
REMARK    1  A    between atoms: C_1  and  C_4
REMARK    2  A    between atoms: C_1  and  N_14
REMARK    3  A    between atoms: C_1  and  C_25
REMARK    4  A    between atoms: N_3  and  C_7
REMARK    5  A    between atoms: N_6  and  C_12
REMARK    6  A    between atoms: C_15  and  O_17
REMARK    7  A    between atoms: O_17  and  C_18
REMARK    8  A    between atoms: C_18  and  C_19
REMARK    9  A    between atoms: C_25  and  C_26
REMARK                            x       y       z     vdW  Elec       q    Type
REMARK                         _______ _______ _______ _____ _____    ______ ____
ROOT
ATOM      1  C   UNL     1      34.229 -14.388 -22.547  0.00  0.00    +0.151 C 
ENDROOT
BRANCH   1   4
ATOM      2  O   UNL     1      32.022 -14.991 -21.745  0.00  0.00    -0.273 OA
ATOM      3  N   UNL     1      32.657 -12.757 -21.705  0.00  0.00    -0.303 N 
ATOM      4  C   UNL     1      32.844 -14.105 -21.974  0.00  0.00    +0.240 C 
ATOM      5  H   UNL     1      33.382 -12.130 -21.929  0.00  0.00    +0.149 HD
BRANCH   3   7
ATOM      6  N   UNL     1      31.870  -9.902 -20.734  0.00  0.00    -0.246 N 
ATOM      7  C   UNL     1      31.452 -12.228 -21.112  0.00  0.00    +0.094 C 
ATOM      8  C   UNL     1      30.639 -11.418 -22.110  0.00  0.00    +0.044 C 
ATOM      9  C   UNL     1      31.765 -11.209 -20.021  0.00  0.00    +0.121 C 
ATOM     10  C   UNL     1      31.320 -10.055 -22.110  0.00  0.00    +0.103 C 
BRANCH   6  12
ATOM     11  N   UNL     1      32.710  -7.766 -19.736  0.00  0.00    -0.174 NA
ATOM     12  C   UNL     1      32.321  -8.756 -20.198  0.00  0.00    +0.170 C 
ENDBRANCH   6  12
ENDBRANCH   3   7
ENDBRANCH   1   4
BRANCH   1  14
ATOM     13  O   UNL     1      34.947 -15.315 -19.888  0.00  0.00    -0.226 OA
ATOM     14  N   UNL     1      34.590 -15.723 -22.145  0.00  0.00    -0.264 N 
ATOM     15  C   UNL     1      34.918 -16.076 -20.850  0.00  0.00    +0.402 C 
ATOM     16  H   UNL     1      34.604 -16.426 -22.834  0.00  0.00    +0.153 HD
BRANCH  15  17
ATOM     17  O   UNL     1      35.212 -17.409 -20.793  0.00  0.00    -0.430 OA
BRANCH  17  18
ATOM     18  C   UNL     1      34.252 -18.286 -21.394  0.00  0.00    +0.237 C 
BRANCH  18  19
ATOM     19  C   UNL     1      34.299 -19.615 -20.700  0.00  0.00    +0.021 C 
ATOM     20  C   UNL     1      33.116 -20.238 -20.304  0.00  0.00    -0.001 C 
ATOM     21  C   UNL     1      35.528 -20.228 -20.450  0.00  0.00    -0.001 C 
ATOM     22  C   UNL     1      33.161 -21.474 -19.658  0.00  0.00    -0.000 C 
ATOM     23  C   UNL     1      35.572 -21.463 -19.805  0.00  0.00    -0.000 C 
ATOM     24  C   UNL     1      34.388 -22.086 -19.408  0.00  0.00    -0.000 C 
ENDBRANCH  18  19
ENDBRANCH  17  18
ENDBRANCH  15  17
ENDBRANCH   1  14
BRANCH   1  25
ATOM     25  C   UNL     1      34.218 -14.224 -24.072  0.00  0.00    +0.029 C 
BRANCH  25  26
ATOM     26  C   UNL     1      33.512 -15.359 -24.841  0.00  0.00    +0.002 C 
ATOM     27  C   UNL     1      34.522 -16.458 -25.179  0.00  0.00    +0.000 C 
ATOM     28  C   UNL     1      32.840 -14.865 -26.122  0.00  0.00    +0.000 C 
ENDBRANCH  25  26
ENDBRANCH   1  25
TORSDOF 9
ENDMDL
MODEL 4
REMARK VINA RESULT:      -9.2      1.774      2.432
REMARK  Name = 5288988
REMARK  9 active torsions:
REMARK  status: ('A' for Active; 'I' for Inactive)
REMARK    1  A    between atoms: C_1  and  C_4
REMARK    2  A    between atoms: C_1  and  N_14
REMARK    3  A    between atoms: C_1  and  C_25
REMARK    4  A    between atoms: N_3  and  C_7
REMARK    5  A    between atoms: N_6  and  C_12
REMARK    6  A    between atoms: C_15  and  O_17
REMARK    7  A    between atoms: O_17  and  C_18
REMARK    8  A    between atoms: C_18  and  C_19
REMARK    9  A    between atoms: C_25  and  C_26
REMARK                            x       y       z     vdW  Elec       q    Type
REMARK                         _______ _______ _______ _____ _____    ______ ____
ROOT
ATOM      1  C   UNL     1      34.613 -23.307 -15.471  0.00  0.00    +0.151 C 
ENDROOT
BRANCH   1   4
ATOM      2  O   UNL     1      35.491 -25.544 -15.793  0.00  0.00    -0.273 OA
ATOM      3  N   UNL     1      35.782 -24.513 -13.733  0.00  0.00    -0.303 N 
ATOM      4  C   UNL     1      35.321 -24.587 -15.040  0.00  0.00    +0.240 C 
ATOM      5  H   UNL     1      35.590 -23.697 -13.215  0.00  0.00    +0.149 HD
BRANCH   3   7
ATOM      6  N   UNL     1      38.718 -25.504 -14.063  0.00  0.00    -0.246 N 
ATOM      7  C   UNL     1      36.530 -25.569 -13.096  0.00  0.00    +0.094 C 
ATOM      8  C   UNL     1      37.504 -25.029 -12.061  0.00  0.00    +0.044 C 
ATOM      9  C   UNL     1      37.445 -26.284 -14.085  0.00  0.00    +0.121 C 
ATOM     10  C   UNL     1      38.704 -24.586 -12.890  0.00  0.00    +0.103 C 
BRANCH   6  12
ATOM     11  N   UNL     1      40.625 -25.791 -15.659  0.00  0.00    -0.174 NA
ATOM     12  C   UNL     1      39.741 -25.658 -14.920  0.00  0.00    +0.170 C 
ENDBRANCH   6  12
ENDBRANCH   3   7
ENDBRANCH   1   4
BRANCH   1  14
ATOM     13  O   UNL     1      37.074 -21.841 -15.957  0.00  0.00    -0.226 OA
ATOM     14  N   UNL     1      35.173 -22.919 -16.740  0.00  0.00    -0.264 N 
ATOM     15  C   UNL     1      36.357 -22.219 -16.878  0.00  0.00    +0.402 C 
ATOM     16  H   UNL     1      34.684 -23.168 -17.557  0.00  0.00    +0.153 HD
BRANCH  15  17
ATOM     17  O   UNL     1      36.616 -22.004 -18.202  0.00  0.00    -0.430 OA
BRANCH  17  18
ATOM     18  C   UNL     1      35.497 -22.131 -19.087  0.00  0.00    +0.237 C 
BRANCH  18  19
ATOM     19  C   UNL     1      35.373 -20.879 -19.902  0.00  0.00    +0.021 C 
ATOM     20  C   UNL     1      36.515 -20.157 -20.252  0.00  0.00    -0.001 C 
ATOM     21  C   UNL     1      34.115 -20.435 -20.312  0.00  0.00    -0.001 C 
ATOM     22  C   UNL     1      36.399 -18.992 -21.010  0.00  0.00    -0.000 C 
ATOM     23  C   UNL     1      34.000 -19.270 -21.071  0.00  0.00    -0.000 C 
ATOM     24  C   UNL     1      35.142 -18.549 -21.420  0.00  0.00    -0.000 C 
ENDBRANCH  18  19
ENDBRANCH  17  18
ENDBRANCH  15  17
ENDBRANCH   1  14
BRANCH   1  25
ATOM     25  C   UNL     1      33.098 -23.539 -15.552  0.00  0.00    +0.029 C 
BRANCH  25  26
ATOM     26  C   UNL     1      32.360 -23.469 -14.200  0.00  0.00    +0.002 C 
ATOM     27  C   UNL     1      31.959 -24.879 -13.758  0.00  0.00    +0.000 C 
ATOM     28  C   UNL     1      31.120 -22.576 -14.259  0.00  0.00    +0.000 C 
ENDBRANCH  25  26
ENDBRANCH   1  25
TORSDOF 9
ENDMDL
MODEL 5
REMARK VINA RESULT:      -9.1      1.149      1.773
REMARK  Name = 5288988
REMARK  9 active torsions:
REMARK  status: ('A' for Active; 'I' for Inactive)
REMARK    1  A    between atoms: C_1  and  C_4
REMARK    2  A    between atoms: C_1  and  N_14
REMARK    3  A    between atoms: C_1  and  C_25
REMARK    4  A    between atoms: N_3  and  C_7
REMARK    5  A    between atoms: N_6  and  C_12
REMARK    6  A    between atoms: C_15  and  O_17
REMARK    7  A    between atoms: O_17  and  C_18
REMARK    8  A    between atoms: C_18  and  C_19
REMARK    9  A    between atoms: C_25  and  C_26
REMARK                            x       y       z     vdW  Elec       q    Type
REMARK                         _______ _______ _______ _____ _____    ______ ____
ROOT
ATOM      1  C   UNL     1      32.568 -23.458 -14.892  0.00  0.00    +0.151 C 
ENDROOT
BRANCH   1   4
ATOM      2  O   UNL     1      32.872 -24.816 -12.907  0.00  0.00    -0.273 OA
ATOM      3  N   UNL     1      34.617 -23.456 -13.610  0.00  0.00    -0.303 N 
ATOM      4  C   UNL     1      33.337 -23.985 -13.685  0.00  0.00    +0.240 C 
ATOM      5  H   UNL     1      34.890 -22.794 -14.287  0.00  0.00    +0.149 HD
BRANCH   3   7
ATOM      6  N   UNL     1      37.228 -25.156 -13.692  0.00  0.00    -0.246 N 
ATOM      7  C   UNL     1      35.569 -23.827 -12.591  0.00  0.00    +0.094 C 
ATOM      8  C   UNL     1      36.852 -23.018 -12.694  0.00  0.00    +0.044 C 
ATOM      9  C   UNL     1      36.056 -25.261 -12.774  0.00  0.00    +0.121 C 
ATOM     10  C   UNL     1      37.641 -23.728 -13.787  0.00  0.00    +0.103 C 
BRANCH   6  12
ATOM     11  N   UNL     1      38.395 -27.082 -14.784  0.00  0.00    -0.174 NA
ATOM     12  C   UNL     1      37.854 -26.189 -14.278  0.00  0.00    +0.170 C 
ENDBRANCH   6  12
ENDBRANCH   3   7
ENDBRANCH   1   4
BRANCH   1  14
ATOM     13  O   UNL     1      32.075 -22.486 -17.586  0.00  0.00    -0.226 OA
ATOM     14  N   UNL     1      33.502 -23.374 -15.985  0.00  0.00    -0.264 N 
ATOM     15  C   UNL     1      33.179 -22.895 -17.240  0.00  0.00    +0.402 C 
ATOM     16  H   UNL     1      34.426 -23.675 -15.828  0.00  0.00    +0.153 HD
BRANCH  15  17
ATOM     17  O   UNL     1      34.277 -22.943 -18.052  0.00  0.00    -0.430 OA
BRANCH  17  18
ATOM     18  C   UNL     1      34.025 -22.780 -19.453  0.00  0.00    +0.237 C 
BRANCH  18  19
ATOM     19  C   UNL     1      34.664 -21.506 -19.921  0.00  0.00    +0.021 C 
ATOM     20  C   UNL     1      36.044 -21.338 -19.815  0.00  0.00    -0.001 C 
ATOM     21  C   UNL     1      33.876 -20.490 -20.463  0.00  0.00    -0.001 C 
ATOM     22  C   UNL     1      36.638 -20.152 -20.250  0.00  0.00    -0.000 C 
ATOM     23  C   UNL     1      34.470 -19.305 -20.899  0.00  0.00    -0.000 C 
ATOM     24  C   UNL     1      35.851 -19.137 -20.792  0.00  0.00    -0.000 C 
ENDBRANCH  18  19
ENDBRANCH  17  18
ENDBRANCH  15  17
ENDBRANCH   1  14
BRANCH   1  25
ATOM     25  C   UNL     1      31.383 -24.378 -15.211  0.00  0.00    +0.029 C 
BRANCH  25  26
ATOM     26  C   UNL     1      30.036 -23.931 -14.608  0.00  0.00    +0.002 C 
ATOM     27  C   UNL     1      28.970 -24.996 -14.880  0.00  0.00    +0.000 C 
ATOM     28  C   UNL     1      29.569 -22.584 -15.161  0.00  0.00    +0.000 C 
ENDBRANCH  25  26
ENDBRANCH   1  25
TORSDOF 9
ENDMDL
MODEL 6
REMARK VINA RESULT:      -8.7      8.559     12.436
REMARK  Name = 5288988
REMARK  9 active torsions:
REMARK  status: ('A' for Active; 'I' for Inactive)
REMARK    1  A    between atoms: C_1  and  C_4
REMARK    2  A    between atoms: C_1  and  N_14
REMARK    3  A    between atoms: C_1  and  C_25
REMARK    4  A    between atoms: N_3  and  C_7
REMARK    5  A    between atoms: N_6  and  C_12
REMARK    6  A    between atoms: C_15  and  O_17
REMARK    7  A    between atoms: O_17  and  C_18
REMARK    8  A    between atoms: C_18  and  C_19
REMARK    9  A    between atoms: C_25  and  C_26
REMARK                            x       y       z     vdW  Elec       q    Type
REMARK                         _______ _______ _______ _____ _____    ______ ____
ROOT
ATOM      1  C   UNL     1      33.182 -14.207 -23.317  0.00  0.00    +0.151 C 
ENDROOT
BRANCH   1   4
ATOM      2  O   UNL     1      35.148 -14.347 -21.905  0.00  0.00    -0.273 OA
ATOM      3  N   UNL     1      34.393 -16.269 -22.966  0.00  0.00    -0.303 N 
ATOM      4  C   UNL     1      34.359 -14.917 -22.657  0.00  0.00    +0.240 C 
ATOM      5  H   UNL     1      33.711 -16.625 -23.581  0.00  0.00    +0.149 HD
BRANCH   3   7
ATOM      6  N   UNL     1      34.152 -19.072 -21.626  0.00  0.00    -0.246 N 
ATOM      7  C   UNL     1      35.376 -17.180 -22.431  0.00  0.00    +0.094 C 
ATOM      8  C   UNL     1      35.625 -18.355 -23.363  0.00  0.00    +0.044 C 
ATOM      9  C   UNL     1      34.879 -17.856 -21.157  0.00  0.00    +0.121 C 
ATOM     10  C   UNL     1      34.476 -19.308 -23.060  0.00  0.00    +0.103 C 
BRANCH   6  12
ATOM     11  N   UNL     1      32.726 -20.552 -20.197  0.00  0.00    -0.174 NA
ATOM     12  C   UNL     1      33.387 -19.866 -20.859  0.00  0.00    +0.170 C 
ENDBRANCH   6  12
ENDBRANCH   3   7
ENDBRANCH   1   4
BRANCH   1  14
ATOM     13  O   UNL     1      32.101 -14.616 -20.651  0.00  0.00    -0.226 OA
ATOM     14  N   UNL     1      32.715 -13.208 -22.391  0.00  0.00    -0.264 N 
ATOM     15  C   UNL     1      32.214 -13.494 -21.135  0.00  0.00    +0.402 C 
ATOM     16  H   UNL     1      32.756 -12.264 -22.669  0.00  0.00    +0.153 HD
BRANCH  15  17
ATOM     17  O   UNL     1      31.857 -12.337 -20.503  0.00  0.00    -0.430 OA
BRANCH  17  18
ATOM     18  C   UNL     1      31.022 -11.447 -21.254  0.00  0.00    +0.237 C 
BRANCH  18  19
ATOM     19  C   UNL     1      31.679 -10.101 -21.323  0.00  0.00    +0.021 C 
ATOM     20  C   UNL     1      31.906  -9.374 -20.155  0.00  0.00    -0.001 C 
ATOM     21  C   UNL     1      32.065  -9.576 -22.557  0.00  0.00    -0.001 C 
ATOM     22  C   UNL     1      32.518  -8.121 -20.220  0.00  0.00    -0.000 C 
ATOM     23  C   UNL     1      32.677  -8.324 -22.622  0.00  0.00    -0.000 C 
ATOM     24  C   UNL     1      32.903  -7.597 -21.453  0.00  0.00    -0.000 C 
ENDBRANCH  18  19
ENDBRANCH  17  18
ENDBRANCH  15  17
ENDBRANCH   1  14
BRANCH   1  25
ATOM     25  C   UNL     1      33.612 -13.600 -24.659  0.00  0.00    +0.029 C 
BRANCH  25  26
ATOM     26  C   UNL     1      32.847 -14.135 -25.886  0.00  0.00    +0.002 C 
ATOM     27  C   UNL     1      33.228 -15.597 -26.134  0.00  0.00    +0.000 C 
ATOM     28  C   UNL     1      33.120 -13.313 -27.146  0.00  0.00    +0.000 C 
ENDBRANCH  25  26
ENDBRANCH   1  25
TORSDOF 9
ENDMDL
MODEL 7
REMARK VINA RESULT:      -8.6      5.257      9.992
REMARK  Name = 5288988
REMARK  9 active torsions:
REMARK  status: ('A' for Active; 'I' for Inactive)
REMARK    1  A    between atoms: C_1  and  C_4
REMARK    2  A    between atoms: C_1  and  N_14
REMARK    3  A    between atoms: C_1  and  C_25
REMARK    4  A    between atoms: N_3  and  C_7
REMARK    5  A    between atoms: N_6  and  C_12
REMARK    6  A    between atoms: C_15  and  O_17
REMARK    7  A    between atoms: O_17  and  C_18
REMARK    8  A    between atoms: C_18  and  C_19
REMARK    9  A    between atoms: C_25  and  C_26
REMARK                            x       y       z     vdW  Elec       q    Type
REMARK                         _______ _______ _______ _____ _____    ______ ____
ROOT
ATOM      1  C   UNL     1      34.674 -19.286 -21.751  0.00  0.00    +0.151 C 
ENDROOT
BRANCH   1   4
ATOM      2  O   UNL     1      36.059 -17.844 -20.380  0.00  0.00    -0.273 OA
ATOM      3  N   UNL     1      34.095 -16.988 -21.276  0.00  0.00    -0.303 N 
ATOM      4  C   UNL     1      35.032 -17.985 -21.041  0.00  0.00    +0.240 C 
ATOM      5  H   UNL     1      33.306 -17.207 -21.822  0.00  0.00    +0.149 HD
BRANCH   3   7
ATOM      6  N   UNL     1      33.595 -14.191 -22.556  0.00  0.00    -0.246 N 
ATOM      7  C   UNL     1      34.222 -15.646 -20.762  0.00  0.00    +0.094 C 
ATOM      8  C   UNL     1      32.868 -15.032 -20.442  0.00  0.00    +0.044 C 
ATOM      9  C   UNL     1      34.787 -14.694 -21.811  0.00  0.00    +0.121 C 
ATOM     10  C   UNL     1      32.364 -14.541 -21.794  0.00  0.00    +0.103 C 
BRANCH   6  12
ATOM     11  N   UNL     1      33.661 -12.855 -24.671  0.00  0.00    -0.174 NA
ATOM     12  C   UNL     1      33.631 -13.475 -23.691  0.00  0.00    +0.170 C 
ENDBRANCH   6  12
ENDBRANCH   3   7
ENDBRANCH   1   4
BRANCH   1  14
ATOM     13  O   UNL     1      35.503 -21.198 -19.727  0.00  0.00    -0.226 OA
ATOM     14  N   UNL     1      33.837 -20.042 -20.855  0.00  0.00    -0.264 N 
ATOM     15  C   UNL     1      34.320 -20.934 -19.917  0.00  0.00    +0.402 C 
ATOM     16  H   UNL     1      32.863 -19.915 -20.914  0.00  0.00    +0.153 HD
BRANCH  15  17
ATOM     17  O   UNL     1      33.281 -21.489 -19.226  0.00  0.00    -0.430 OA
BRANCH  17  18
ATOM     18  C   UNL     1      33.437 -22.865 -18.860  0.00  0.00    +0.237 C 
BRANCH  18  19
ATOM     19  C   UNL     1      33.195 -23.011 -17.387  0.00  0.00    +0.021 C 
ATOM     20  C   UNL     1      31.892 -23.006 -16.890  0.00  0.00    -0.001 C 
ATOM     21  C   UNL     1      34.274 -23.153 -16.514  0.00  0.00    -0.001 C 
ATOM     22  C   UNL     1      31.667 -23.141 -15.520  0.00  0.00    -0.000 C 
ATOM     23  C   UNL     1      34.049 -23.290 -15.144  0.00  0.00    -0.000 C 
ATOM     24  C   UNL     1      32.746 -23.283 -14.647  0.00  0.00    -0.000 C 
ENDBRANCH  18  19
ENDBRANCH  17  18
ENDBRANCH  15  17
ENDBRANCH   1  14
BRANCH   1  25
ATOM     25  C   UNL     1      33.977 -18.990 -23.086  0.00  0.00    +0.029 C 
BRANCH  25  26
ATOM     26  C   UNL     1      34.925 -18.847 -24.293  0.00  0.00    +0.002 C 
ATOM     27  C   UNL     1      34.556 -17.594 -25.092  0.00  0.00    +0.000 C 
ATOM     28  C   UNL     1      34.890 -20.070 -25.210  0.00  0.00    +0.000 C 
ENDBRANCH  25  26
ENDBRANCH   1  25
TORSDOF 9
ENDMDL
MODEL 8
REMARK VINA RESULT:      -8.4      2.201      7.405
REMARK  Name = 5288988
REMARK  9 active torsions:
REMARK  status: ('A' for Active; 'I' for Inactive)
REMARK    1  A    between atoms: C_1  and  C_4
REMARK    2  A    between atoms: C_1  and  N_14
REMARK    3  A    between atoms: C_1  and  C_25
REMARK    4  A    between atoms: N_3  and  C_7
REMARK    5  A    between atoms: N_6  and  C_12
REMARK    6  A    between atoms: C_15  and  O_17
REMARK    7  A    between atoms: O_17  and  C_18
REMARK    8  A    between atoms: C_18  and  C_19
REMARK    9  A    between atoms: C_25  and  C_26
REMARK                            x       y       z     vdW  Elec       q    Type
REMARK                         _______ _______ _______ _____ _____    ______ ____
ROOT
ATOM      1  C   UNL     1      33.315 -22.980 -16.312  0.00  0.00    +0.151 C 
ENDROOT
BRANCH   1   4
ATOM      2  O   UNL     1      32.405 -24.303 -14.495  0.00  0.00    -0.273 OA
ATOM      3  N   UNL     1      30.952 -23.053 -15.806  0.00  0.00    -0.303 N 
ATOM      4  C   UNL     1      32.198 -23.542 -15.439  0.00  0.00    +0.240 C 
ATOM      5  H   UNL     1      30.898 -22.447 -16.581  0.00  0.00    +0.149 HD
BRANCH   3   7
ATOM      6  N   UNL     1      27.946 -22.714 -16.553  0.00  0.00    -0.246 N 
ATOM      7  C   UNL     1      29.733 -23.388 -15.111  0.00  0.00    +0.094 C 
ATOM      8  C   UNL     1      29.076 -24.632 -15.686  0.00  0.00    +0.044 C 
ATOM      9  C   UNL     1      28.664 -22.317 -15.306  0.00  0.00    +0.121 C 
ATOM     10  C   UNL     1      28.321 -24.112 -16.904  0.00  0.00    +0.103 C 
BRANCH   6  12
ATOM     11  N   UNL     1      26.277 -21.307 -17.777  0.00  0.00    -0.174 NA
ATOM     12  C   UNL     1      27.050 -21.959 -17.210  0.00  0.00    +0.170 C 
ENDBRANCH   6  12
ENDBRANCH   3   7
ENDBRANCH   1   4
BRANCH   1  14
ATOM     13  O   UNL     1      36.068 -22.192 -15.824  0.00  0.00    -0.226 OA
ATOM     14  N   UNL     1      34.460 -23.835 -16.138  0.00  0.00    -0.264 N 
ATOM     15  C   UNL     1      35.741 -23.371 -15.908  0.00  0.00    +0.402 C 
ATOM     16  H   UNL     1      34.322 -24.809 -16.185  0.00  0.00    +0.153 HD
BRANCH  15  17
ATOM     17  O   UNL     1      36.602 -24.425 -15.787  0.00  0.00    -0.430 OA
BRANCH  17  18
ATOM     18  C   UNL     1      36.285 -25.377 -14.764  0.00  0.00    +0.237 C 
BRANCH  18  19
ATOM     19  C   UNL     1      36.503 -24.743 -13.422  0.00  0.00    +0.021 C 
ATOM     20  C   UNL     1      37.766 -24.264 -13.073  0.00  0.00    -0.001 C 
ATOM     21  C   UNL     1      35.442 -24.631 -12.522  0.00  0.00    -0.001 C 
ATOM     22  C   UNL     1      37.968 -23.675 -11.824  0.00  0.00    -0.000 C 
ATOM     23  C   UNL     1      35.645 -24.041 -11.275  0.00  0.00    -0.000 C 
ATOM     24  C   UNL     1      36.908 -23.564 -10.926  0.00  0.00    -0.000 C 
ENDBRANCH  18  19
ENDBRANCH  17  18
ENDBRANCH  15  17
ENDBRANCH   1  14
BRANCH   1  25
ATOM     25  C   UNL     1      32.860 -22.909 -17.776  0.00  0.00    +0.029 C 
BRANCH  25  26
ATOM     26  C   UNL     1      33.728 -22.011 -18.680  0.00  0.00    +0.002 C 
ATOM     27  C   UNL     1      32.830 -21.065 -19.482  0.00  0.00    +0.000 C 
ATOM     28  C   UNL     1      34.606 -22.821 -19.635  0.00  0.00    +0.000 C 
ENDBRANCH  25  26
ENDBRANCH   1  25
TORSDOF 9
ENDMDL
MODEL 9
REMARK VINA RESULT:      -8.2      9.879     14.265
REMARK  Name = 5288988
REMARK  9 active torsions:
REMARK  status: ('A' for Active; 'I' for Inactive)
REMARK    1  A    between atoms: C_1  and  C_4
REMARK    2  A    between atoms: C_1  and  N_14
REMARK    3  A    between atoms: C_1  and  C_25
REMARK    4  A    between atoms: N_3  and  C_7
REMARK    5  A    between atoms: N_6  and  C_12
REMARK    6  A    between atoms: C_15  and  O_17
REMARK    7  A    between atoms: O_17  and  C_18
REMARK    8  A    between atoms: C_18  and  C_19
REMARK    9  A    between atoms: C_25  and  C_26
REMARK                            x       y       z     vdW  Elec       q    Type
REMARK                         _______ _______ _______ _____ _____    ______ ____
ROOT
ATOM      1  C   UNL     1      33.924 -12.412 -23.611  0.00  0.00    +0.151 C 
ENDROOT
BRANCH   1   4
ATOM      2  O   UNL     1      31.908 -12.855 -22.339  0.00  0.00    -0.273 OA
ATOM      3  N   UNL     1      32.342 -10.680 -23.026  0.00  0.00    -0.303 N 
ATOM      4  C   UNL     1      32.610 -12.038 -22.933  0.00  0.00    +0.240 C 
ATOM      5  H   UNL     1      32.973 -10.113 -23.527  0.00  0.00    +0.149 HD
BRANCH   3   7
ATOM      6  N   UNL     1      32.017  -8.179 -21.196  0.00  0.00    -0.246 N 
ATOM      7  C   UNL     1      31.188 -10.057 -22.426  0.00  0.00    +0.094 C 
ATOM      8  C   UNL     1      30.789  -8.784 -23.154  0.00  0.00    +0.044 C 
ATOM      9  C   UNL     1      31.487  -9.562 -21.015  0.00  0.00    +0.121 C 
ATOM     10  C   UNL     1      31.736  -7.732 -22.590  0.00  0.00    +0.103 C 
BRANCH   6  12
ATOM     11  N   UNL     1      33.081  -6.785 -19.411  0.00  0.00    -0.174 NA
ATOM     12  C   UNL     1      32.587  -7.431 -20.238  0.00  0.00    +0.170 C 
ENDBRANCH   6  12
ENDBRANCH   3   7
ENDBRANCH   1   4
BRANCH   1  14
ATOM     13  O   UNL     1      34.780 -14.385 -21.657  0.00  0.00    -0.226 OA
ATOM     14  N   UNL     1      33.937 -13.845 -23.751  0.00  0.00    -0.264 N 
ATOM     15  C   UNL     1      34.363 -14.713 -22.763  0.00  0.00    +0.402 C 
ATOM     16  H   UNL     1      33.623 -14.230 -24.601  0.00  0.00    +0.153 HD
BRANCH  15  17
ATOM     17  O   UNL     1      34.253 -16.002 -23.200  0.00  0.00    -0.430 OA
BRANCH  17  18
ATOM     18  C   UNL     1      35.453 -16.784 -23.146  0.00  0.00    +0.237 C 
BRANCH  18  19
ATOM     19  C   UNL     1      35.238 -17.949 -22.227  0.00  0.00    +0.021 C 
ATOM     20  C   UNL     1      36.330 -18.580 -21.631  0.00  0.00    -0.001 C 
ATOM     21  C   UNL     1      33.944 -18.403 -21.967  0.00  0.00    -0.001 C 
ATOM     22  C   UNL     1      36.129 -19.664 -20.776  0.00  0.00    -0.000 C 
ATOM     23  C   UNL     1      33.744 -19.486 -21.112  0.00  0.00    -0.000 C 
ATOM     24  C   UNL     1      34.837 -20.117 -20.517  0.00  0.00    -0.000 C 
ENDBRANCH  18  19
ENDBRANCH  17  18
ENDBRANCH  15  17
ENDBRANCH   1  14
BRANCH   1  25
ATOM     25  C   UNL     1      34.048 -11.695 -24.961  0.00  0.00    +0.029 C 
BRANCH  25  26
ATOM     26  C   UNL     1      35.216 -10.692 -25.058  0.00  0.00    +0.002 C 
ATOM     27  C   UNL     1      34.807  -9.362 -24.420  0.00  0.00    +0.000 C 
ATOM     28  C   UNL     1      35.662 -10.455 -26.500  0.00  0.00    +0.000 C 
ENDBRANCH  25  26
ENDBRANCH   1  25
TORSDOF 9
ENDMDL
