MODEL 1
REMARK VINA RESULT:      -9.0      0.000      0.000
REMARK  Name = 5564
REMARK  3 active torsions:
REMARK  status: ('A' for Active; 'I' for Inactive)
REMARK    1  A    between atoms: O_1  and  C_4
REMARK    2  A    between atoms: O_1  and  C_11
REMARK    3  A    between atoms: C_12  and  O_17
REMARK                            x       y       z     vdW  Elec       q    Type
REMARK                         _______ _______ _______ _____ _____    ______ ____
ROOT
ATOM      1  O   UNL     1      35.767 -17.530 -21.743  0.00  0.00    -0.450 OA
ENDROOT
BRANCH   1   4
ATOM      2 CL   UNL     1      34.461 -14.872 -21.228  0.00  0.00    -0.079 Cl
ATOM      3 CL   UNL     1      32.968 -15.273 -26.389  0.00  0.00    -0.082 Cl
ATOM      4  C   UNL     1      35.101 -16.980 -22.825  0.00  0.00    +0.156 C 
ATOM      5  C   UNL     1      34.461 -15.758 -22.709  0.00  0.00    +0.093 C 
ATOM      6  C   UNL     1      35.100 -17.686 -24.016  0.00  0.00    +0.039 C 
ATOM      7  C   UNL     1      33.798 -15.227 -23.816  0.00  0.00    +0.026 C 
ATOM      8  C   UNL     1      34.438 -17.155 -25.122  0.00  0.00    +0.015 C 
ATOM      9  C   UNL     1      33.787 -15.927 -25.023  0.00  0.00    +0.059 C 
ENDBRANCH   1   4
BRANCH   1  11
ATOM     10 CL   UNL     1      33.430 -22.330 -19.298  0.00  0.00    -0.082 Cl
ATOM     11  C   UNL     1      35.235 -18.647 -21.176  0.00  0.00    +0.179 C 
ATOM     12  C   UNL     1      36.063 -19.643 -20.657  0.00  0.00    +0.169 C 
ATOM     13  C   UNL     1      33.849 -18.790 -21.113  0.00  0.00    +0.042 C 
ATOM     14  C   UNL     1      35.505 -20.782 -20.076  0.00  0.00    +0.051 C 
ATOM     15  C   UNL     1      33.291 -19.929 -20.532  0.00  0.00    +0.015 C 
ATOM     16  C   UNL     1      34.119 -20.925 -20.014  0.00  0.00    +0.061 C 
BRANCH  12  17
ATOM     17  O   UNL     1      37.418 -19.514 -20.712  0.00  0.00    -0.503 OA
ATOM     18  H   UNL     1      37.841 -18.811 -20.259  0.00  0.00    +0.292 HD
ENDBRANCH  12  17
ENDBRANCH   1  11
TORSDOF 3
ENDMDL
MODEL 2
REMARK VINA RESULT:      -8.9      1.351      2.325
REMARK  Name = 5564
REMARK  3 active torsions:
REMARK  status: ('A' for Active; 'I' for Inactive)
REMARK    1  A    between atoms: O_1  and  C_4
REMARK    2  A    between atoms: O_1  and  C_11
REMARK    3  A    between atoms: C_12  and  O_17
REMARK                            x       y       z     vdW  Elec       q    Type
REMARK                         _______ _______ _______ _____ _____    ______ ____
ROOT
ATOM      1  O   UNL     1      35.638 -17.873 -22.058  0.00  0.00    -0.450 OA
ENDROOT
BRANCH   1   4
ATOM      2 CL   UNL     1      34.599 -17.068 -24.761  0.00  0.00    -0.079 Cl
ATOM      3 CL   UNL     1      32.404 -12.968 -22.040  0.00  0.00    -0.082 Cl
ATOM      4  C   UNL     1      34.873 -16.719 -22.076  0.00  0.00    +0.156 C 
ATOM      5  C   UNL     1      34.340 -16.249 -23.264  0.00  0.00    +0.093 C 
ATOM      6  C   UNL     1      34.661 -16.059 -20.878  0.00  0.00    +0.039 C 
ATOM      7  C   UNL     1      33.572 -15.084 -23.254  0.00  0.00    +0.026 C 
ATOM      8  C   UNL     1      33.893 -14.895 -20.867  0.00  0.00    +0.015 C 
ATOM      9  C   UNL     1      33.350 -14.407 -22.055  0.00  0.00    +0.059 C 
ENDBRANCH   1   4
BRANCH   1  11
ATOM     10 CL   UNL     1      33.596 -22.395 -18.916  0.00  0.00    -0.082 Cl
ATOM     11  C   UNL     1      35.174 -18.925 -21.328  0.00  0.00    +0.179 C 
ATOM     12  C   UNL     1      36.058 -19.751 -20.634  0.00  0.00    +0.169 C 
ATOM     13  C   UNL     1      33.802 -19.171 -21.275  0.00  0.00    +0.042 C 
ATOM     14  C   UNL     1      35.571 -20.825 -19.888  0.00  0.00    +0.051 C 
ATOM     15  C   UNL     1      33.315 -20.244 -20.529  0.00  0.00    +0.015 C 
ATOM     16  C   UNL     1      34.199 -21.071 -19.836  0.00  0.00    +0.061 C 
BRANCH  12  17
ATOM     17  O   UNL     1      37.400 -19.521 -20.678  0.00  0.00    -0.503 OA
ATOM     18  H   UNL     1      37.839 -19.466 -21.504  0.00  0.00    +0.292 HD
ENDBRANCH  12  17
ENDBRANCH   1  11
TORSDOF 3
ENDMDL
MODEL 3
REMARK VINA RESULT:      -8.5      1.554      5.927
REMARK  Name = 5564
REMARK  3 active torsions:
REMARK  status: ('A' for Active; 'I' for Inactive)
REMARK    1  A    between atoms: O_1  and  C_4
REMARK    2  A    between atoms: O_1  and  C_11
REMARK    3  A    between atoms: C_12  and  O_17
REMARK                            x       y       z     vdW  Elec       q    Type
REMARK                         _______ _______ _______ _____ _____    ______ ____
ROOT
ATOM      1  O   UNL     1      35.673 -17.310 -21.883  0.00  0.00    -0.450 OA
ENDROOT
BRANCH   1   4
ATOM      2 CL   UNL     1      37.670 -19.370 -20.986  0.00  0.00    -0.079 Cl
ATOM      3 CL   UNL     1      33.284 -22.081 -19.426  0.00  0.00    -0.082 Cl
ATOM      4  C   UNL     1      35.131 -18.444 -21.302  0.00  0.00    +0.156 C 
ATOM      5  C   UNL     1      35.952 -19.462 -20.849  0.00  0.00    +0.093 C 
ATOM      6  C   UNL     1      33.754 -18.522 -21.187  0.00  0.00    +0.039 C 
ATOM      7  C   UNL     1      35.379 -20.592 -20.265  0.00  0.00    +0.026 C 
ATOM      8  C   UNL     1      33.180 -19.651 -20.604  0.00  0.00    +0.015 C 
ATOM      9  C   UNL     1      33.992 -20.687 -20.144  0.00  0.00    +0.059 C 
ENDBRANCH   1   4
BRANCH   1  11
ATOM     10 CL   UNL     1      32.886 -15.052 -26.533  0.00  0.00    -0.082 Cl
ATOM     11  C   UNL     1      35.023 -16.779 -22.955  0.00  0.00    +0.179 C 
ATOM     12  C   UNL     1      34.436 -15.516 -22.874  0.00  0.00    +0.169 C 
ATOM     13  C   UNL     1      34.950 -17.507 -24.142  0.00  0.00    +0.042 C 
ATOM     14  C   UNL     1      33.775 -14.982 -23.980  0.00  0.00    +0.051 C 
ATOM     15  C   UNL     1      34.289 -16.973 -25.248  0.00  0.00    +0.015 C 
ATOM     16  C   UNL     1      33.701 -15.710 -25.167  0.00  0.00    +0.061 C 
BRANCH  12  17
ATOM     17  O   UNL     1      34.502 -14.795 -21.720  0.00  0.00    -0.503 OA
ATOM     18  H   UNL     1      35.330 -14.496 -21.401  0.00  0.00    +0.292 HD
ENDBRANCH  12  17
ENDBRANCH   1  11
TORSDOF 3
ENDMDL
MODEL 4
REMARK VINA RESULT:      -8.5      1.934      5.931
REMARK  Name = 5564
REMARK  3 active torsions:
REMARK  status: ('A' for Active; 'I' for Inactive)
REMARK    1  A    between atoms: O_1  and  C_4
REMARK    2  A    between atoms: O_1  and  C_11
REMARK    3  A    between atoms: C_12  and  O_17
REMARK                            x       y       z     vdW  Elec       q    Type
REMARK                         _______ _______ _______ _____ _____    ______ ____
ROOT
ATOM      1  O   UNL     1      35.321 -17.865 -22.132  0.00  0.00    -0.450 OA
ENDROOT
BRANCH   1   4
ATOM      2 CL   UNL     1      37.504 -19.446 -20.801  0.00  0.00    -0.079 Cl
ATOM      3 CL   UNL     1      33.403 -22.359 -18.871  0.00  0.00    -0.082 Cl
ATOM      4  C   UNL     1      34.891 -18.930 -21.359  0.00  0.00    +0.156 C 
ATOM      5  C   UNL     1      35.805 -19.731 -20.696  0.00  0.00    +0.093 C 
ATOM      6  C   UNL     1      33.529 -19.162 -21.270  0.00  0.00    +0.039 C 
ATOM      7  C   UNL     1      35.344 -20.796 -19.922  0.00  0.00    +0.026 C 
ATOM      8  C   UNL     1      33.068 -20.227 -20.497  0.00  0.00    +0.015 C 
ATOM      9  C   UNL     1      33.974 -21.044 -19.824  0.00  0.00    +0.059 C 
ENDBRANCH   1   4
BRANCH   1  11
ATOM     10 CL   UNL     1      32.287 -12.852 -21.740  0.00  0.00    -0.082 Cl
ATOM     11  C   UNL     1      34.617 -16.702 -22.052  0.00  0.00    +0.179 C 
ATOM     12  C   UNL     1      34.048 -16.137 -23.193  0.00  0.00    +0.169 C 
ATOM     13  C   UNL     1      34.466 -16.077 -20.814  0.00  0.00    +0.042 C 
ATOM     14  C   UNL     1      33.328 -14.946 -23.097  0.00  0.00    +0.051 C 
ATOM     15  C   UNL     1      33.745 -14.886 -20.718  0.00  0.00    +0.015 C 
ATOM     16  C   UNL     1      33.176 -14.321 -21.860  0.00  0.00    +0.061 C 
BRANCH  12  17
ATOM     17  O   UNL     1      34.190 -16.738 -24.407  0.00  0.00    -0.503 OA
ATOM     18  H   UNL     1      33.591 -17.409 -24.670  0.00  0.00    +0.292 HD
ENDBRANCH  12  17
ENDBRANCH   1  11
TORSDOF 3
ENDMDL
MODEL 5
REMARK VINA RESULT:      -8.2      3.728      8.011
REMARK  Name = 5564
REMARK  3 active torsions:
REMARK  status: ('A' for Active; 'I' for Inactive)
REMARK    1  A    between atoms: O_1  and  C_4
REMARK    2  A    between atoms: O_1  and  C_11
REMARK    3  A    between atoms: C_12  and  O_17
REMARK                            x       y       z     vdW  Elec       q    Type
REMARK                         _______ _______ _______ _____ _____    ______ ____
ROOT
ATOM      1  O   UNL     1      34.558 -23.065 -18.626  0.00  0.00    -0.450 OA
ENDROOT
BRANCH   1   4
ATOM      2 CL   UNL     1      36.376 -22.881 -16.240  0.00  0.00    -0.079 Cl
ATOM      3 CL   UNL     1      31.778 -23.215 -13.453  0.00  0.00    -0.082 Cl
ATOM      4  C   UNL     1      33.923 -23.100 -17.396  0.00  0.00    +0.156 C 
ATOM      5  C   UNL     1      34.657 -23.022 -16.225  0.00  0.00    +0.093 C 
ATOM      6  C   UNL     1      32.543 -23.210 -17.378  0.00  0.00    +0.039 C 
ATOM      7  C   UNL     1      33.991 -23.057 -14.999  0.00  0.00    +0.026 C 
ATOM      8  C   UNL     1      31.878 -23.246 -16.153  0.00  0.00    +0.015 C 
ATOM      9  C   UNL     1      32.601 -23.170 -14.964  0.00  0.00    +0.059 C 
ENDBRANCH   1   4
BRANCH   1  11
ATOM     10 CL   UNL     1      34.250 -18.066 -21.692  0.00  0.00    -0.082 Cl
ATOM     11  C   UNL     1      34.497 -21.905 -19.335  0.00  0.00    +0.179 C 
ATOM     12  C   UNL     1      35.664 -21.233 -19.699  0.00  0.00    +0.169 C 
ATOM     13  C   UNL     1      33.253 -21.389 -19.701  0.00  0.00    +0.042 C 
ATOM     14  C   UNL     1      35.588 -20.046 -20.427  0.00  0.00    +0.051 C 
ATOM     15  C   UNL     1      33.177 -20.203 -20.430  0.00  0.00    +0.015 C 
ATOM     16  C   UNL     1      34.345 -19.531 -20.793  0.00  0.00    +0.061 C 
BRANCH  12  17
ATOM     17  O   UNL     1      36.885 -21.727 -19.347  0.00  0.00    -0.503 OA
ATOM     18  H   UNL     1      37.019 -22.076 -18.488  0.00  0.00    +0.292 HD
ENDBRANCH  12  17
ENDBRANCH   1  11
TORSDOF 3
ENDMDL
MODEL 6
REMARK VINA RESULT:      -8.1      3.806      5.905
REMARK  Name = 5564
REMARK  3 active torsions:
REMARK  status: ('A' for Active; 'I' for Inactive)
REMARK    1  A    between atoms: O_1  and  C_4
REMARK    2  A    between atoms: O_1  and  C_11
REMARK    3  A    between atoms: C_12  and  O_17
REMARK                            x       y       z     vdW  Elec       q    Type
REMARK                         _______ _______ _______ _____ _____    ______ ____
ROOT
ATOM      1  O   UNL     1      34.356 -22.988 -18.841  0.00  0.00    -0.450 OA
ENDROOT
BRANCH   1   4
ATOM      2 CL   UNL     1      37.014 -21.728 -19.459  0.00  0.00    -0.079 Cl
ATOM      3 CL   UNL     1      33.994 -17.855 -21.674  0.00  0.00    -0.082 Cl
ATOM      4  C   UNL     1      34.294 -21.777 -19.508  0.00  0.00    +0.156 C 
ATOM      5  C   UNL     1      35.454 -21.101 -19.847  0.00  0.00    +0.093 C 
ATOM      6  C   UNL     1      33.045 -21.271 -19.824  0.00  0.00    +0.039 C 
ATOM      7  C   UNL     1      35.362 -19.883 -20.521  0.00  0.00    +0.026 C 
ATOM      8  C   UNL     1      32.952 -20.053 -20.497  0.00  0.00    +0.015 C 
ATOM      9  C   UNL     1      34.110 -19.359 -20.845  0.00  0.00    +0.059 C 
ENDBRANCH   1   4
BRANCH   1  11
ATOM     10 CL   UNL     1      31.932 -23.261 -13.499  0.00  0.00    -0.082 Cl
ATOM     11  C   UNL     1      33.804 -23.053 -17.599  0.00  0.00    +0.179 C 
ATOM     12  C   UNL     1      34.613 -23.085 -16.463  0.00  0.00    +0.169 C 
ATOM     13  C   UNL     1      32.416 -23.085 -17.466  0.00  0.00    +0.042 C 
ATOM     14  C   UNL     1      34.035 -23.150 -15.195  0.00  0.00    +0.051 C 
ATOM     15  C   UNL     1      31.837 -23.149 -16.199  0.00  0.00    +0.015 C 
ATOM     16  C   UNL     1      32.647 -23.182 -15.063  0.00  0.00    +0.061 C 
BRANCH  12  17
ATOM     17  O   UNL     1      35.971 -23.054 -16.579  0.00  0.00    -0.503 OA
ATOM     18  H   UNL     1      36.493 -23.693 -16.136  0.00  0.00    +0.292 HD
ENDBRANCH  12  17
ENDBRANCH   1  11
TORSDOF 3
ENDMDL
MODEL 7
REMARK VINA RESULT:      -8.0      4.246      6.012
REMARK  Name = 5564
REMARK  3 active torsions:
REMARK  status: ('A' for Active; 'I' for Inactive)
REMARK    1  A    between atoms: O_1  and  C_4
REMARK    2  A    between atoms: O_1  and  C_11
REMARK    3  A    between atoms: C_12  and  O_17
REMARK                            x       y       z     vdW  Elec       q    Type
REMARK                         _______ _______ _______ _____ _____    ______ ____
ROOT
ATOM      1  O   UNL     1      32.315 -13.065 -23.590  0.00  0.00    -0.450 OA
ENDROOT
BRANCH   1   4
ATOM      2 CL   UNL     1      30.968 -11.072 -21.788  0.00  0.00    -0.079 Cl
ATOM      3 CL   UNL     1      34.752  -7.720 -23.651  0.00  0.00    -0.082 Cl
ATOM      4  C   UNL     1      32.873 -11.798 -23.590  0.00  0.00    +0.156 C 
ATOM      5  C   UNL     1      32.339 -10.796 -22.799  0.00  0.00    +0.093 C 
ATOM      6  C   UNL     1      33.975 -11.572 -24.397  0.00  0.00    +0.039 C 
ATOM      7  C   UNL     1      32.922  -9.528 -22.817  0.00  0.00    +0.026 C 
ATOM      8  C   UNL     1      34.558 -10.305 -24.415  0.00  0.00    +0.015 C 
ATOM      9  C   UNL     1      34.032  -9.284 -23.626  0.00  0.00    +0.059 C 
ENDBRANCH   1   4
BRANCH   1  11
ATOM     10 CL   UNL     1      35.318 -17.341 -20.909  0.00  0.00    -0.082 Cl
ATOM     11  C   UNL     1      33.012 -14.062 -22.978  0.00  0.00    +0.179 C 
ATOM     12  C   UNL     1      33.628 -15.062 -23.730  0.00  0.00    +0.169 C 
ATOM     13  C   UNL     1      33.109 -14.075 -21.586  0.00  0.00    +0.042 C 
ATOM     14  C   UNL     1      34.341 -16.077 -23.091  0.00  0.00    +0.051 C 
ATOM     15  C   UNL     1      33.823 -15.089 -20.947  0.00  0.00    +0.015 C 
ATOM     16  C   UNL     1      34.438 -16.090 -21.699  0.00  0.00    +0.061 C 
BRANCH  12  17
ATOM     17  O   UNL     1      33.540 -15.060 -25.089  0.00  0.00    -0.503 OA
ATOM     18  H   UNL     1      33.962 -15.732 -25.587  0.00  0.00    +0.292 HD
ENDBRANCH  12  17
ENDBRANCH   1  11
TORSDOF 3
ENDMDL
MODEL 8
REMARK VINA RESULT:      -8.0      4.391      8.196
REMARK  Name = 5564
REMARK  3 active torsions:
REMARK  status: ('A' for Active; 'I' for Inactive)
REMARK    1  A    between atoms: O_1  and  C_4
REMARK    2  A    between atoms: O_1  and  C_11
REMARK    3  A    between atoms: C_12  and  O_17
REMARK                            x       y       z     vdW  Elec       q    Type
REMARK                         _______ _______ _______ _____ _____    ______ ____
ROOT
ATOM      1  O   UNL     1      32.295 -12.983 -23.579  0.00  0.00    -0.450 OA
ENDROOT
BRANCH   1   4
ATOM      2 CL   UNL     1      33.397 -15.046 -25.466  0.00  0.00    -0.079 Cl
ATOM      3 CL   UNL     1      35.291 -17.301 -20.954  0.00  0.00    -0.082 Cl
ATOM      4  C   UNL     1      33.004 -14.011 -22.981  0.00  0.00    +0.156 C 
ATOM      5  C   UNL     1      33.560 -15.020 -23.749  0.00  0.00    +0.093 C 
ATOM      6  C   UNL     1      33.139 -13.993 -21.603  0.00  0.00    +0.039 C 
ATOM      7  C   UNL     1      34.271 -16.042 -23.120  0.00  0.00    +0.026 C 
ATOM      8  C   UNL     1      33.850 -15.015 -20.975  0.00  0.00    +0.015 C 
ATOM      9  C   UNL     1      34.415 -16.040 -21.732  0.00  0.00    +0.059 C 
ENDBRANCH   1   4
BRANCH   1  11
ATOM     10 CL   UNL     1      34.804  -7.674 -23.681  0.00  0.00    -0.082 Cl
ATOM     11  C   UNL     1      32.868 -11.748 -23.597  0.00  0.00    +0.179 C 
ATOM     12  C   UNL     1      32.338 -10.709 -22.833  0.00  0.00    +0.169 C 
ATOM     13  C   UNL     1      33.997 -11.528 -24.387  0.00  0.00    +0.042 C 
ATOM     14  C   UNL     1      32.936  -9.448 -22.859  0.00  0.00    +0.051 C 
ATOM     15  C   UNL     1      34.595 -10.268 -24.412  0.00  0.00    +0.015 C 
ATOM     16  C   UNL     1      34.064  -9.228 -23.649  0.00  0.00    +0.061 C 
BRANCH  12  17
ATOM     17  O   UNL     1      31.236 -10.911 -22.058  0.00  0.00    -0.503 OA
ATOM     18  H   UNL     1      30.380 -10.816 -22.427  0.00  0.00    +0.292 HD
ENDBRANCH  12  17
ENDBRANCH   1  11
TORSDOF 3
ENDMDL
MODEL 9
REMARK VINA RESULT:      -8.0      1.600      5.955
REMARK  Name = 5564
REMARK  3 active torsions:
REMARK  status: ('A' for Active; 'I' for Inactive)
REMARK    1  A    between atoms: O_1  and  C_4
REMARK    2  A    between atoms: O_1  and  C_11
REMARK    3  A    between atoms: C_12  and  O_17
REMARK                            x       y       z     vdW  Elec       q    Type
REMARK                         _______ _______ _______ _____ _____    ______ ____
ROOT
ATOM      1  O   UNL     1      35.914 -18.992 -22.018  0.00  0.00    -0.450 OA
ENDROOT
BRANCH   1   4
ATOM      2 CL   UNL     1      37.296 -21.030 -20.294  0.00  0.00    -0.079 Cl
ATOM      3 CL   UNL     1      32.318 -21.991 -18.471  0.00  0.00    -0.082 Cl
ATOM      4  C   UNL     1      35.084 -19.711 -21.175  0.00  0.00    +0.156 C 
ATOM      5  C   UNL     1      35.607 -20.678 -20.332  0.00  0.00    +0.093 C 
ATOM      6  C   UNL     1      33.729 -19.431 -21.200  0.00  0.00    +0.039 C 
ATOM      7  C   UNL     1      34.748 -21.386 -19.491  0.00  0.00    +0.026 C 
ATOM      8  C   UNL     1      32.871 -20.139 -20.360  0.00  0.00    +0.015 C 
ATOM      9  C   UNL     1      33.379 -21.116 -19.506  0.00  0.00    +0.059 C 
ENDBRANCH   1   4
BRANCH   1  11
ATOM     10 CL   UNL     1      33.385 -15.274 -25.796  0.00  0.00    -0.082 Cl
ATOM     11  C   UNL     1      35.328 -18.138 -22.902  0.00  0.00    +0.179 C 
ATOM     12  C   UNL     1      34.893 -18.592 -24.147  0.00  0.00    +0.169 C 
ATOM     13  C   UNL     1      35.162 -16.798 -22.552  0.00  0.00    +0.042 C 
ATOM     14  C   UNL     1      34.293 -17.707 -25.042  0.00  0.00    +0.051 C 
ATOM     15  C   UNL     1      34.561 -15.913 -23.447  0.00  0.00    +0.015 C 
ATOM     16  C   UNL     1      34.126 -16.367 -24.692  0.00  0.00    +0.061 C 
BRANCH  12  17
ATOM     17  O   UNL     1      35.050 -19.899 -24.500  0.00  0.00    -0.503 OA
ATOM     18  H   UNL     1      34.617 -20.233 -25.260  0.00  0.00    +0.292 HD
ENDBRANCH  12  17
ENDBRANCH   1  11
TORSDOF 3
ENDMDL
