MODEL 1
REMARK VINA RESULT:      -6.2      0.000      0.000
REMARK  Name = 9867361
REMARK  3 active torsions:
REMARK  status: ('A' for Active; 'I' for Inactive)
REMARK    1  A    between atoms: C_5  and  C_29
REMARK    2  A    between atoms: C_5  and  O_32
REMARK    3  A    between atoms: C_8  and  C_22
REMARK                            x       y       z     vdW  Elec       q    Type
REMARK                         _______ _______ _______ _____ _____    ______ ____
ROOT
ATOM      1  O   UNL     1      28.158 -25.317 -14.940  0.00  0.00    -0.291 OA
ATOM      2  C   UNL     1      36.157 -23.333 -15.628  0.00  0.00    +0.034 C 
ATOM      3  C   UNL     1      35.234 -23.373 -14.394  0.00  0.00    +0.007 C 
ATOM      4  C   UNL     1      33.896 -22.660 -14.614  0.00  0.00    +0.019 C 
ATOM      5  C   UNL     1      37.438 -24.016 -15.045  0.00  0.00    +0.141 C 
ATOM      6  C   UNL     1      35.439 -24.079 -16.769  0.00  0.00    +0.012 C 
ATOM      7  C   UNL     1      36.136 -22.888 -13.260  0.00  0.00    +0.004 C 
ATOM      8  C   UNL     1      33.992 -23.575 -17.069  0.00  0.00    +0.040 C 
ATOM      9  C   UNL     1      37.544 -23.401 -13.624  0.00  0.00    +0.039 C 
ATOM     10  C   UNL     1      33.148 -23.292 -15.807  0.00  0.00    -0.045 C 
ATOM     11  C   UNL     1      33.078 -22.657 -13.309  0.00  0.00    +0.009 C 
ATOM     12  C   UNL     1      36.511 -21.897 -16.102  0.00  0.00    +0.003 C 
ATOM     13  C   UNL     1      31.816 -23.559 -15.738  0.00  0.00    -0.033 C 
ATOM     14  C   UNL     1      31.636 -22.260 -13.578  0.00  0.00    +0.026 C 
ATOM     15  C   UNL     1      31.028 -23.242 -14.541  0.00  0.00    -0.024 C 
ATOM     16  C   UNL     1      30.970 -24.119 -16.865  0.00  0.00    +0.034 C 
ATOM     17  C   UNL     1      29.827 -23.791 -14.288  0.00  0.00    +0.033 C 
ATOM     18  C   UNL     1      30.076 -25.253 -16.379  0.00  0.00    +0.074 C 
ATOM     19  C   UNL     1      29.251 -24.813 -15.196  0.00  0.00    +0.173 C 
ENDROOT
BRANCH   8  22
ATOM     20  O   UNL     1      36.043 -20.533 -20.417  0.00  0.00    -0.435 OA
ATOM     21  O   UNL     1      33.916 -19.582 -21.036  0.00  0.00    -0.435 OA
ATOM     22  C   UNL     1      33.934 -22.487 -18.144  0.00  0.00    -0.016 C 
ATOM     23  C   UNL     1      35.112 -22.059 -18.754  0.00  0.00    +0.036 C 
ATOM     24  C   UNL     1      32.694 -21.935 -18.501  0.00  0.00    -0.001 C 
ATOM     25  C   UNL     1      35.009 -21.076 -19.718  0.00  0.00    +0.176 C 
ATOM     26  C   UNL     1      32.618 -20.941 -19.480  0.00  0.00    +0.040 C 
ATOM     27  C   UNL     1      33.796 -20.533 -20.071  0.00  0.00    +0.176 C 
ATOM     28  C   UNL     1      35.342 -19.587 -21.252  0.00  0.00    +0.429 C 
ENDBRANCH   8  22
BRANCH   5  29
ATOM     29  C   UNL     1      37.326 -25.485 -14.936  0.00  0.00    -0.066 C 
ATOM     30  C   UNL     1      37.235 -26.679 -14.846  0.00  0.00    -0.088 C 
ATOM     31  C   UNL     1      37.123 -28.133 -14.737  0.00  0.00    +0.090 C 
ENDBRANCH   5  29
BRANCH   5  32
ATOM     32  O   UNL     1      38.600 -23.743 -15.813  0.00  0.00    -0.375 OA
ATOM     33  H   UNL     1      38.793 -24.501 -16.389  0.00  0.00    +0.211 HD
ENDBRANCH   5  32
TORSDOF 3
ENDMDL
