MODEL 1
REMARK VINA RESULT:      -7.5      0.000      0.000
REMARK  Name = 11658860
REMARK  0 active torsions:
REMARK  status: ('A' for Active; 'I' for Inactive)
REMARK                            x       y       z     vdW  Elec       q    Type
REMARK                         _______ _______ _______ _____ _____    ______ ____
ROOT
ATOM      1 CL   UNL     1      35.000 -10.748 -25.371  0.00  0.00    -0.082 Cl
ATOM      2  N   UNL     1      31.812  -8.358 -19.453  0.00  0.00    +0.384 N 
ATOM      3  C   UNL     1      31.527  -9.745 -21.541  0.00  0.00    +0.001 C 
ATOM      4  C   UNL     1      32.648  -9.267 -22.461  0.00  0.00    -0.028 C 
ATOM      5  C   UNL     1      31.956  -9.684 -20.058  0.00  0.00    -0.077 C 
ATOM      6  C   UNL     1      33.099  -7.931 -22.388  0.00  0.00    -0.028 C 
ATOM      7  C   UNL     1      32.517  -6.953 -21.396  0.00  0.00    +0.003 C 
ATOM      8  C   UNL     1      32.767  -7.369 -19.946  0.00  0.00    -0.077 C 
ATOM      9  C   UNL     1      31.001 -11.157 -21.850  0.00  0.00    +0.002 C 
ATOM     10  C   UNL     1      33.260 -10.121 -23.398  0.00  0.00    +0.007 C 
ATOM     11  C   UNL     1      34.120  -7.486 -23.248  0.00  0.00    -0.004 C 
ATOM     12  C   UNL     1      34.276  -9.668 -24.243  0.00  0.00    +0.057 C 
ATOM     13  C   UNL     1      34.705  -8.349 -24.169  0.00  0.00    +0.011 C 
ATOM     14  H   UNL     1      31.939  -8.451 -18.445  0.00  0.00    -0.084 HD
ATOM     15  H   UNL     1      30.884  -8.020 -19.706  0.00  0.00    -0.084 HD
ENDROOT
TORSDOF 0
ENDMDL
MODEL 2
REMARK VINA RESULT:      -7.4      7.340      8.836
REMARK  Name = 11658860
REMARK  0 active torsions:
REMARK  status: ('A' for Active; 'I' for Inactive)
REMARK                            x       y       z     vdW  Elec       q    Type
REMARK                         _______ _______ _______ _____ _____    ______ ____
ROOT
ATOM      1 CL   UNL     1      32.657 -13.841 -20.398  0.00  0.00    -0.082 Cl
ATOM      2  N   UNL     1      34.857 -19.290 -24.444  0.00  0.00    +0.384 N 
ATOM      3  C   UNL     1      35.356 -17.895 -22.403  0.00  0.00    +0.001 C 
ATOM      4  C   UNL     1      34.543 -16.621 -22.615  0.00  0.00    -0.028 C 
ATOM      5  C   UNL     1      34.639 -19.124 -23.006  0.00  0.00    -0.077 C 
ATOM      6  C   UNL     1      34.300 -16.148 -23.924  0.00  0.00    -0.028 C 
ATOM      7  C   UNL     1      34.805 -16.890 -25.138  0.00  0.00    +0.003 C 
ATOM      8  C   UNL     1      34.193 -18.285 -25.271  0.00  0.00    -0.077 C 
ATOM      9  C   UNL     1      35.709 -18.195 -20.936  0.00  0.00    +0.002 C 
ATOM     10  C   UNL     1      34.018 -15.882 -21.537  0.00  0.00    +0.007 C 
ATOM     11  C   UNL     1      33.566 -14.964 -24.118  0.00  0.00    -0.004 C 
ATOM     12  C   UNL     1      33.286 -14.710 -21.745  0.00  0.00    +0.057 C 
ATOM     13  C   UNL     1      33.062 -14.250 -23.035  0.00  0.00    +0.011 C 
ATOM     14  H   UNL     1      34.507 -20.209 -24.717  0.00  0.00    -0.084 HD
ATOM     15  H   UNL     1      35.858 -19.185 -24.603  0.00  0.00    -0.084 HD
ENDROOT
TORSDOF 0
ENDMDL
MODEL 3
REMARK VINA RESULT:      -7.4      7.183      8.618
REMARK  Name = 11658860
REMARK  0 active torsions:
REMARK  status: ('A' for Active; 'I' for Inactive)
REMARK                            x       y       z     vdW  Elec       q    Type
REMARK                         _______ _______ _______ _____ _____    ______ ____
ROOT
ATOM      1 CL   UNL     1      32.750 -13.621 -25.300  0.00  0.00    -0.082 Cl
ATOM      2  N   UNL     1      34.745 -19.043 -21.116  0.00  0.00    +0.384 N 
ATOM      3  C   UNL     1      34.813 -16.542 -21.434  0.00  0.00    +0.001 C 
ATOM      4  C   UNL     1      34.505 -16.347 -22.917  0.00  0.00    -0.028 C 
ATOM      5  C   UNL     1      34.068 -17.769 -20.864  0.00  0.00    -0.077 C 
ATOM      6  C   UNL     1      34.894 -17.330 -23.853  0.00  0.00    -0.028 C 
ATOM      7  C   UNL     1      35.591 -18.599 -23.425  0.00  0.00    +0.003 C 
ATOM      8  C   UNL     1      34.724 -19.467 -22.513  0.00  0.00    -0.077 C 
ATOM      9  C   UNL     1      34.510 -15.321 -20.550  0.00  0.00    +0.002 C 
ATOM     10  C   UNL     1      33.837 -15.204 -23.397  0.00  0.00    +0.007 C 
ATOM     11  C   UNL     1      34.625 -17.142 -25.221  0.00  0.00    -0.004 C 
ATOM     12  C   UNL     1      33.573 -15.032 -24.758  0.00  0.00    +0.057 C 
ATOM     13  C   UNL     1      33.969 -16.000 -25.671  0.00  0.00    +0.011 C 
ATOM     14  H   UNL     1      34.289 -19.764 -20.557  0.00  0.00    -0.084 HD
ATOM     15  H   UNL     1      35.724 -18.909 -20.865  0.00  0.00    -0.084 HD
ENDROOT
TORSDOF 0
ENDMDL
MODEL 4
REMARK VINA RESULT:      -7.3     14.973     16.114
REMARK  Name = 11658860
REMARK  0 active torsions:
REMARK  status: ('A' for Active; 'I' for Inactive)
REMARK                            x       y       z     vdW  Elec       q    Type
REMARK                         _______ _______ _______ _____ _____    ______ ____
ROOT
ATOM      1 CL   UNL     1      33.816 -22.425 -19.259  0.00  0.00    -0.082 Cl
ATOM      2  N   UNL     1      30.102 -24.993 -13.735  0.00  0.00    +0.384 N 
ATOM      3  C   UNL     1      30.189 -23.216 -15.524  0.00  0.00    +0.001 C 
ATOM      4  C   UNL     1      31.653 -23.191 -15.952  0.00  0.00    -0.028 C 
ATOM      5  C   UNL     1      29.750 -24.640 -15.112  0.00  0.00    -0.077 C 
ATOM      6  C   UNL     1      32.667 -23.502 -15.019  0.00  0.00    -0.028 C 
ATOM      7  C   UNL     1      32.341 -23.891 -13.598  0.00  0.00    +0.003 C 
ATOM      8  C   UNL     1      31.533 -25.186 -13.513  0.00  0.00    -0.077 C 
ATOM      9  C   UNL     1      29.203 -22.676 -16.574  0.00  0.00    +0.002 C 
ATOM     10  C   UNL     1      32.042 -22.861 -17.265  0.00  0.00    +0.007 C 
ATOM     11  C   UNL     1      34.018 -23.462 -15.411  0.00  0.00    -0.004 C 
ATOM     12  C   UNL     1      33.387 -22.829 -17.641  0.00  0.00    +0.057 C 
ATOM     13  C   UNL     1      34.375 -23.127 -16.713  0.00  0.00    +0.011 C 
ATOM     14  H   UNL     1      29.622 -25.861 -13.495  0.00  0.00    -0.084 HD
ATOM     15  H   UNL     1      29.818 -24.208 -13.150  0.00  0.00    -0.084 HD
ENDROOT
TORSDOF 0
ENDMDL
MODEL 5
REMARK VINA RESULT:      -7.3      6.494      7.841
REMARK  Name = 11658860
REMARK  0 active torsions:
REMARK  status: ('A' for Active; 'I' for Inactive)
REMARK                            x       y       z     vdW  Elec       q    Type
REMARK                         _______ _______ _______ _____ _____    ______ ____
ROOT
ATOM      1 CL   UNL     1      34.935 -19.628 -24.709  0.00  0.00    -0.082 Cl
ATOM      2  N   UNL     1      32.697 -13.790 -21.272  0.00  0.00    +0.384 N 
ATOM      3  C   UNL     1      33.853 -14.659 -23.339  0.00  0.00    +0.001 C 
ATOM      4  C   UNL     1      34.306 -16.063 -22.949  0.00  0.00    -0.028 C 
ATOM      5  C   UNL     1      32.527 -14.284 -22.640  0.00  0.00    -0.077 C 
ATOM      6  C   UNL     1      34.644 -16.349 -21.607  0.00  0.00    -0.028 C 
ATOM      7  C   UNL     1      34.543 -15.300 -20.526  0.00  0.00    +0.003 C 
ATOM      8  C   UNL     1      33.110 -14.811 -20.313  0.00  0.00    -0.077 C 
ATOM      9  C   UNL     1      33.700 -14.430 -24.852  0.00  0.00    +0.002 C 
ATOM     10  C   UNL     1      34.405 -17.105 -23.892  0.00  0.00    +0.007 C 
ATOM     11  C   UNL     1      35.078 -17.639 -21.252  0.00  0.00    -0.004 C 
ATOM     12  C   UNL     1      34.834 -18.383 -23.524  0.00  0.00    +0.057 C 
ATOM     13  C   UNL     1      35.172 -18.649 -22.204  0.00  0.00    +0.011 C 
ATOM     14  H   UNL     1      31.807 -13.400 -20.960  0.00  0.00    -0.084 HD
ATOM     15  H   UNL     1      33.444 -13.097 -21.302  0.00  0.00    -0.084 HD
ENDROOT
TORSDOF 0
ENDMDL
MODEL 6
REMARK VINA RESULT:      -7.2      4.225      5.934
REMARK  Name = 11658860
REMARK  0 active torsions:
REMARK  status: ('A' for Active; 'I' for Inactive)
REMARK                            x       y       z     vdW  Elec       q    Type
REMARK                         _______ _______ _______ _____ _____    ______ ____
ROOT
ATOM      1 CL   UNL     1      31.451  -9.568 -22.725  0.00  0.00    -0.082 Cl
ATOM      2  N   UNL     1      34.660 -15.881 -21.859  0.00  0.00    +0.384 N 
ATOM      3  C   UNL     1      33.159 -14.510 -23.353  0.00  0.00    +0.001 C 
ATOM      4  C   UNL     1      32.637 -13.404 -22.441  0.00  0.00    -0.028 C 
ATOM      5  C   UNL     1      34.597 -14.924 -22.965  0.00  0.00    -0.077 C 
ATOM      6  C   UNL     1      32.460 -13.651 -21.061  0.00  0.00    -0.028 C 
ATOM      7  C   UNL     1      32.802 -14.987 -20.447  0.00  0.00    +0.003 C 
ATOM      8  C   UNL     1      34.289 -15.323 -20.561  0.00  0.00    -0.077 C 
ATOM      9  C   UNL     1      33.125 -14.175 -24.854  0.00  0.00    +0.002 C 
ATOM     10  C   UNL     1      32.316 -12.123 -22.929  0.00  0.00    +0.007 C 
ATOM     11  C   UNL     1      31.962 -12.636 -20.224  0.00  0.00    -0.004 C 
ATOM     12  C   UNL     1      31.826 -11.123 -22.086  0.00  0.00    +0.057 C 
ATOM     13  C   UNL     1      31.647 -11.380 -20.733  0.00  0.00    +0.011 C 
ATOM     14  H   UNL     1      35.616 -16.232 -21.794  0.00  0.00    -0.084 HD
ATOM     15  H   UNL     1      33.982 -16.614 -22.067  0.00  0.00    -0.084 HD
ENDROOT
TORSDOF 0
ENDMDL
MODEL 7
REMARK VINA RESULT:      -7.1      5.011      6.779
REMARK  Name = 11658860
REMARK  0 active torsions:
REMARK  status: ('A' for Active; 'I' for Inactive)
REMARK                            x       y       z     vdW  Elec       q    Type
REMARK                         _______ _______ _______ _____ _____    ______ ____
ROOT
ATOM      1 CL   UNL     1      31.524 -10.582 -22.473  0.00  0.00    -0.082 Cl
ATOM      2  N   UNL     1      35.151 -16.725 -22.567  0.00  0.00    +0.384 N 
ATOM      3  C   UNL     1      33.474 -15.293 -23.792  0.00  0.00    +0.001 C 
ATOM      4  C   UNL     1      32.950 -14.337 -22.723  0.00  0.00    -0.028 C 
ATOM      5  C   UNL     1      34.956 -15.652 -23.545  0.00  0.00    -0.077 C 
ATOM      6  C   UNL     1      32.882 -14.754 -21.376  0.00  0.00    -0.028 C 
ATOM      7  C   UNL     1      33.343 -16.127 -20.948  0.00  0.00    +0.003 C 
ATOM      8  C   UNL     1      34.836 -16.347 -21.191  0.00  0.00    -0.077 C 
ATOM      9  C   UNL     1      33.319 -14.789 -25.237  0.00  0.00    +0.002 C 
ATOM     10  C   UNL     1      32.522 -13.032 -23.034  0.00  0.00    +0.007 C 
ATOM     11  C   UNL     1      32.383 -13.878 -20.394  0.00  0.00    -0.004 C 
ATOM     12  C   UNL     1      32.032 -12.172 -22.049  0.00  0.00    +0.057 C 
ATOM     13  C   UNL     1      31.961 -12.595 -20.729  0.00  0.00    +0.011 C 
ATOM     14  H   UNL     1      36.128 -17.017 -22.602  0.00  0.00    -0.084 HD
ATOM     15  H   UNL     1      34.505 -17.473 -22.820  0.00  0.00    -0.084 HD
ENDROOT
TORSDOF 0
ENDMDL
MODEL 8
REMARK VINA RESULT:      -7.0      3.279      4.374
REMARK  Name = 11658860
REMARK  0 active torsions:
REMARK  status: ('A' for Active; 'I' for Inactive)
REMARK                            x       y       z     vdW  Elec       q    Type
REMARK                         _______ _______ _______ _____ _____    ______ ____
ROOT
ATOM      1 CL   UNL     1      31.944  -3.474 -26.795  0.00  0.00    -0.082 Cl
ATOM      2  N   UNL     1      32.853  -9.125 -22.535  0.00  0.00    +0.384 N 
ATOM      3  C   UNL     1      32.136  -6.709 -22.643  0.00  0.00    +0.001 C 
ATOM      4  C   UNL     1      32.752  -6.196 -23.942  0.00  0.00    -0.028 C 
ATOM      5  C   UNL     1      31.742  -8.198 -22.760  0.00  0.00    -0.077 C 
ATOM      6  C   UNL     1      33.970  -6.738 -24.408  0.00  0.00    -0.028 C 
ATOM      7  C   UNL     1      34.678  -7.845 -23.665  0.00  0.00    +0.003 C 
ATOM      8  C   UNL     1      33.854  -9.130 -23.600  0.00  0.00    -0.077 C 
ATOM      9  C   UNL     1      30.918  -5.909 -22.150  0.00  0.00    +0.002 C 
ATOM     10  C   UNL     1      32.144  -5.182 -24.707  0.00  0.00    +0.007 C 
ATOM     11  C   UNL     1      34.546  -6.253 -25.596  0.00  0.00    -0.004 C 
ATOM     12  C   UNL     1      32.725  -4.712 -25.888  0.00  0.00    +0.057 C 
ATOM     13  C   UNL     1      33.927  -5.246 -26.331  0.00  0.00    +0.011 C 
ATOM     14  H   UNL     1      32.472 -10.067 -22.451  0.00  0.00    -0.084 HD
ATOM     15  H   UNL     1      33.328  -8.813 -21.689  0.00  0.00    -0.084 HD
ENDROOT
TORSDOF 0
ENDMDL
MODEL 9
REMARK VINA RESULT:      -6.9      6.270      7.781
REMARK  Name = 11658860
REMARK  0 active torsions:
REMARK  status: ('A' for Active; 'I' for Inactive)
REMARK                            x       y       z     vdW  Elec       q    Type
REMARK                         _______ _______ _______ _____ _____    ______ ____
ROOT
ATOM      1 CL   UNL     1      35.954 -18.340 -21.628  0.00  0.00    -0.082 Cl
ATOM      2  N   UNL     1      33.280 -12.917 -25.415  0.00  0.00    +0.384 N 
ATOM      3  C   UNL     1      33.090 -14.239 -23.275  0.00  0.00    +0.001 C 
ATOM      4  C   UNL     1      33.812 -15.549 -23.581  0.00  0.00    -0.028 C 
ATOM      5  C   UNL     1      33.735 -13.054 -24.030  0.00  0.00    -0.077 C 
ATOM      6  C   UNL     1      33.812 -16.064 -24.896  0.00  0.00    -0.028 C 
ATOM      7  C   UNL     1      33.133 -15.335 -26.031  0.00  0.00    +0.003 C 
ATOM      8  C   UNL     1      33.759 -13.969 -26.310  0.00  0.00    -0.077 C 
ATOM      9  C   UNL     1      33.003 -13.887 -21.780  0.00  0.00    +0.002 C 
ATOM     10  C   UNL     1      34.489 -16.278 -22.585  0.00  0.00    +0.007 C 
ATOM     11  C   UNL     1      34.462 -17.280 -25.174  0.00  0.00    -0.004 C 
ATOM     12  C   UNL     1      35.134 -17.483 -22.876  0.00  0.00    +0.057 C 
ATOM     13  C   UNL     1      35.120 -17.985 -24.170  0.00  0.00    +0.011 C 
ATOM     14  H   UNL     1      33.609 -12.020 -25.773  0.00  0.00    -0.084 HD
ATOM     15  H   UNL     1      32.263 -12.988 -25.398  0.00  0.00    -0.084 HD
ENDROOT
TORSDOF 0
ENDMDL
