MODEL 1
REMARK VINA RESULT:      -7.7      0.000      0.000
REMARK  Name = 50313
REMARK  4 active torsions:
REMARK  status: ('A' for Active; 'I' for Inactive)
REMARK    1  A    between atoms: C_3  and  O_17
REMARK    2  A    between atoms: C_4  and  N_10
REMARK    3  A    between atoms: C_6  and  C_19
REMARK    4  A    between atoms: C_19  and  O_20
REMARK                            x       y       z     vdW  Elec       q    Type
REMARK                         _______ _______ _______ _____ _____    ______ ____
ROOT
ATOM      1  F   UNL     1      35.594 -22.132 -14.654  0.00  0.00    -0.230 F 
ATOM      2  O   UNL     1      35.650 -25.067 -15.290  0.00  0.00    -0.332 OA
ATOM      3  C   UNL     1      37.421 -23.576 -14.735  0.00  0.00    +0.177 C 
ATOM      4  C   UNL     1      35.575 -23.936 -16.168  0.00  0.00    +0.235 C 
ATOM      5  C   UNL     1      36.379 -22.823 -15.524  0.00  0.00    +0.237 C 
ATOM      6  C   UNL     1      36.692 -24.850 -14.319  0.00  0.00    +0.176 C 
ENDROOT
BRANCH   4  10
ATOM      7  I   UNL     1      30.686 -23.906 -13.905  0.00  0.00    -0.036 I 
ATOM      8  O   UNL     1      34.529 -22.806 -18.566  0.00  0.00    -0.252 OA
ATOM      9  O   UNL     1      30.262 -22.673 -16.873  0.00  0.00    -0.269 OA
ATOM     10  N   UNL     1      34.203 -23.593 -16.393  0.00  0.00    -0.216 N 
ATOM     11  N   UNL     1      32.407 -22.750 -17.701  0.00  0.00    -0.235 N 
ATOM     12  C   UNL     1      33.774 -23.035 -17.620  0.00  0.00    +0.315 C 
ATOM     13  C   UNL     1      33.281 -23.819 -15.372  0.00  0.00    +0.082 C 
ATOM     14  C   UNL     1      31.974 -23.543 -15.456  0.00  0.00    +0.099 C 
ATOM     15  C   UNL     1      31.447 -22.955 -16.718  0.00  0.00    +0.259 C 
ATOM     16  H   UNL     1      32.090 -22.361 -18.548  0.00  0.00    +0.159 HD
ENDBRANCH   4  10
BRANCH   3  17
ATOM     17  O   UNL     1      38.527 -23.893 -15.575  0.00  0.00    -0.379 OA
ATOM     18  H   UNL     1      38.203 -24.136 -16.457  0.00  0.00    +0.211 HD
ENDBRANCH   3  17
BRANCH   6  19
ATOM     19  C   UNL     1      36.034 -24.740 -12.950  0.00  0.00    +0.169 C 
BRANCH  19  20
ATOM     20  O   UNL     1      36.434 -25.848 -12.163  0.00  0.00    -0.379 OA
ATOM     21  H   UNL     1      37.343 -26.097 -12.393  0.00  0.00    +0.211 HD
ENDBRANCH  19  20
ENDBRANCH   6  19
TORSDOF 4
ENDMDL
MODEL 2
REMARK VINA RESULT:      -7.6      2.536      3.532
REMARK  Name = 50313
REMARK  4 active torsions:
REMARK  status: ('A' for Active; 'I' for Inactive)
REMARK    1  A    between atoms: C_3  and  O_17
REMARK    2  A    between atoms: C_4  and  N_10
REMARK    3  A    between atoms: C_6  and  C_19
REMARK    4  A    between atoms: C_19  and  O_20
REMARK                            x       y       z     vdW  Elec       q    Type
REMARK                         _______ _______ _______ _____ _____    ______ ____
ROOT
ATOM      1  F   UNL     1      35.280 -25.599 -15.785  0.00  0.00    -0.230 F 
ATOM      2  O   UNL     1      36.067 -22.956 -14.595  0.00  0.00    -0.332 OA
ATOM      3  C   UNL     1      36.059 -25.136 -13.639  0.00  0.00    +0.177 C 
ATOM      4  C   UNL     1      34.767 -23.526 -14.791  0.00  0.00    +0.235 C 
ATOM      5  C   UNL     1      34.910 -25.025 -14.609  0.00  0.00    +0.237 C 
ATOM      6  C   UNL     1      36.934 -23.938 -13.994  0.00  0.00    +0.176 C 
ENDROOT
BRANCH   4  10
ATOM      7  I   UNL     1      36.180 -21.412 -19.540  0.00  0.00    -0.036 I 
ATOM      8  O   UNL     1      32.069 -23.812 -15.663  0.00  0.00    -0.252 OA
ATOM      9  O   UNL     1      33.009 -22.036 -19.792  0.00  0.00    -0.269 OA
ATOM     10  N   UNL     1      34.268 -23.153 -16.080  0.00  0.00    -0.216 N 
ATOM     11  N   UNL     1      32.560 -22.923 -17.717  0.00  0.00    -0.235 N 
ATOM     12  C   UNL     1      32.908 -23.332 -16.426  0.00  0.00    +0.315 C 
ATOM     13  C   UNL     1      35.153 -22.601 -17.006  0.00  0.00    +0.082 C 
ATOM     14  C   UNL     1      34.814 -22.213 -18.240  0.00  0.00    +0.099 C 
ATOM     15  C   UNL     1      33.399 -22.369 -18.676  0.00  0.00    +0.259 C 
ATOM     16  H   UNL     1      31.618 -23.039 -17.975  0.00  0.00    +0.159 HD
ENDBRANCH   4  10
BRANCH   3  17
ATOM     17  O   UNL     1      35.578 -25.017 -12.304  0.00  0.00    -0.379 OA
ATOM     18  H   UNL     1      34.926 -24.299 -12.258  0.00  0.00    +0.211 HD
ENDBRANCH   3  17
BRANCH   6  19
ATOM     19  C   UNL     1      38.024 -24.273 -15.003  0.00  0.00    +0.169 C 
BRANCH  19  20
ATOM     20  O   UNL     1      38.258 -23.134 -15.813  0.00  0.00    -0.379 OA
ATOM     21  H   UNL     1      37.771 -22.376 -15.455  0.00  0.00    +0.211 HD
ENDBRANCH  19  20
ENDBRANCH   6  19
TORSDOF 4
ENDMDL
MODEL 3
REMARK VINA RESULT:      -7.2      2.291      3.264
REMARK  Name = 50313
REMARK  4 active torsions:
REMARK  status: ('A' for Active; 'I' for Inactive)
REMARK    1  A    between atoms: C_3  and  O_17
REMARK    2  A    between atoms: C_4  and  N_10
REMARK    3  A    between atoms: C_6  and  C_19
REMARK    4  A    between atoms: C_19  and  O_20
REMARK                            x       y       z     vdW  Elec       q    Type
REMARK                         _______ _______ _______ _____ _____    ______ ____
ROOT
ATOM      1  F   UNL     1      35.696 -25.739 -15.411  0.00  0.00    -0.230 F 
ATOM      2  O   UNL     1      36.132 -23.167 -13.921  0.00  0.00    -0.332 OA
ATOM      3  C   UNL     1      37.165 -25.296 -13.658  0.00  0.00    +0.177 C 
ATOM      4  C   UNL     1      35.100 -24.151 -13.776  0.00  0.00    +0.235 C 
ATOM      5  C   UNL     1      35.729 -25.499 -14.072  0.00  0.00    +0.237 C 
ATOM      6  C   UNL     1      37.414 -23.823 -13.969  0.00  0.00    +0.176 C 
ENDROOT
BRANCH   4  10
ATOM      7  I   UNL     1      33.845 -22.461 -18.735  0.00  0.00    -0.036 I 
ATOM      8  O   UNL     1      32.342 -24.303 -13.074  0.00  0.00    -0.252 OA
ATOM      9  O   UNL     1      31.004 -22.876 -17.229  0.00  0.00    -0.269 OA
ATOM     10  N   UNL     1      34.005 -23.829 -14.642  0.00  0.00    -0.216 N 
ATOM     11  N   UNL     1      31.697 -23.588 -15.154  0.00  0.00    -0.235 N 
ATOM     12  C   UNL     1      32.664 -23.935 -14.205  0.00  0.00    +0.315 C 
ATOM     13  C   UNL     1      34.281 -23.404 -15.940  0.00  0.00    +0.082 C 
ATOM     14  C   UNL     1      33.351 -23.075 -16.844  0.00  0.00    +0.099 C 
ATOM     15  C   UNL     1      31.916 -23.160 -16.457  0.00  0.00    +0.259 C 
ATOM     16  H   UNL     1      30.758 -23.655 -14.868  0.00  0.00    +0.159 HD
ENDBRANCH   4  10
BRANCH   3  17
ATOM     17  O   UNL     1      37.303 -25.535 -12.261  0.00  0.00    -0.379 OA
ATOM     18  H   UNL     1      37.956 -24.920 -11.890  0.00  0.00    +0.211 HD
ENDBRANCH   3  17
BRANCH   6  19
ATOM     19  C   UNL     1      37.999 -23.597 -15.356  0.00  0.00    +0.169 C 
BRANCH  19  20
ATOM     20  O   UNL     1      39.234 -24.286 -15.446  0.00  0.00    -0.379 OA
ATOM     21  H   UNL     1      39.965 -23.654 -15.361  0.00  0.00    +0.211 HD
ENDBRANCH  19  20
ENDBRANCH   6  19
TORSDOF 4
ENDMDL
MODEL 4
REMARK VINA RESULT:      -7.2      2.567      3.263
REMARK  Name = 50313
REMARK  4 active torsions:
REMARK  status: ('A' for Active; 'I' for Inactive)
REMARK    1  A    between atoms: C_3  and  O_17
REMARK    2  A    between atoms: C_4  and  N_10
REMARK    3  A    between atoms: C_6  and  C_19
REMARK    4  A    between atoms: C_19  and  O_20
REMARK                            x       y       z     vdW  Elec       q    Type
REMARK                         _______ _______ _______ _____ _____    ______ ____
ROOT
ATOM      1  F   UNL     1      37.560 -23.412 -14.781  0.00  0.00    -0.230 F 
ATOM      2  O   UNL     1      36.798 -25.566 -12.832  0.00  0.00    -0.332 OA
ATOM      3  C   UNL     1      38.815 -25.234 -14.051  0.00  0.00    +0.177 C 
ATOM      4  C   UNL     1      36.464 -25.419 -14.218  0.00  0.00    +0.235 C 
ATOM      5  C   UNL     1      37.654 -24.764 -14.892  0.00  0.00    +0.237 C 
ATOM      6  C   UNL     1      38.212 -25.351 -12.655  0.00  0.00    +0.176 C 
ENDROOT
BRANCH   4  10
ATOM      7  I   UNL     1      33.217 -22.985 -17.760  0.00  0.00    -0.036 I 
ATOM      8  O   UNL     1      34.760 -24.669 -12.061  0.00  0.00    -0.252 OA
ATOM      9  O   UNL     1      31.829 -22.519 -14.868  0.00  0.00    -0.269 OA
ATOM     10  N   UNL     1      35.252 -24.667 -14.343  0.00  0.00    -0.216 N 
ATOM     11  N   UNL     1      33.310 -23.601 -13.480  0.00  0.00    -0.235 N 
ATOM     12  C   UNL     1      34.467 -24.340 -13.211  0.00  0.00    +0.315 C 
ATOM     13  C   UNL     1      34.847 -24.255 -15.611  0.00  0.00    +0.082 C 
ATOM     14  C   UNL     1      33.739 -23.549 -15.861  0.00  0.00    +0.099 C 
ATOM     15  C   UNL     1      32.862 -23.165 -14.721  0.00  0.00    +0.259 C 
ATOM     16  H   UNL     1      32.752 -23.363 -12.705  0.00  0.00    +0.159 HD
ENDBRANCH   4  10
BRANCH   3  17
ATOM     17  O   UNL     1      39.256 -26.510 -14.506  0.00  0.00    -0.379 OA
ATOM     18  H   UNL     1      40.128 -26.421 -14.922  0.00  0.00    +0.211 HD
ENDBRANCH   3  17
BRANCH   6  19
ATOM     19  C   UNL     1      38.387 -24.088 -11.822  0.00  0.00    +0.169 C 
BRANCH  19  20
ATOM     20  O   UNL     1      37.324 -24.008 -10.889  0.00  0.00    -0.379 OA
ATOM     21  H   UNL     1      36.766 -24.798 -10.966  0.00  0.00    +0.211 HD
ENDBRANCH  19  20
ENDBRANCH   6  19
TORSDOF 4
ENDMDL
MODEL 5
REMARK VINA RESULT:      -7.1      1.820      2.855
REMARK  Name = 50313
REMARK  4 active torsions:
REMARK  status: ('A' for Active; 'I' for Inactive)
REMARK    1  A    between atoms: C_3  and  O_17
REMARK    2  A    between atoms: C_4  and  N_10
REMARK    3  A    between atoms: C_6  and  C_19
REMARK    4  A    between atoms: C_19  and  O_20
REMARK                            x       y       z     vdW  Elec       q    Type
REMARK                         _______ _______ _______ _____ _____    ______ ____
ROOT
ATOM      1  F   UNL     1      35.857 -25.784 -14.163  0.00  0.00    -0.230 F 
ATOM      2  O   UNL     1      37.419 -23.220 -14.074  0.00  0.00    -0.332 OA
ATOM      3  C   UNL     1      37.357 -25.041 -12.542  0.00  0.00    +0.177 C 
ATOM      4  C   UNL     1      36.050 -23.475 -13.737  0.00  0.00    +0.235 C 
ATOM      5  C   UNL     1      35.991 -24.876 -13.159  0.00  0.00    +0.237 C 
ATOM      6  C   UNL     1      38.257 -24.218 -13.460  0.00  0.00    +0.176 C 
ENDROOT
BRANCH   4  10
ATOM      7  I   UNL     1      30.971 -23.651 -15.524  0.00  0.00    -0.036 I 
ATOM      8  O   UNL     1      36.992 -22.765 -16.331  0.00  0.00    -0.252 OA
ATOM      9  O   UNL     1      32.757 -22.849 -18.107  0.00  0.00    -0.269 OA
ATOM     10  N   UNL     1      35.229 -23.302 -14.899  0.00  0.00    -0.216 N 
ATOM     11  N   UNL     1      34.870 -22.814 -17.197  0.00  0.00    -0.235 N 
ATOM     12  C   UNL     1      35.788 -22.948 -16.150  0.00  0.00    +0.315 C 
ATOM     13  C   UNL     1      33.853 -23.490 -14.780  0.00  0.00    +0.082 C 
ATOM     14  C   UNL     1      32.981 -23.358 -15.786  0.00  0.00    +0.099 C 
ATOM     15  C   UNL     1      33.494 -22.989 -17.134  0.00  0.00    +0.259 C 
ATOM     16  H   UNL     1      35.240 -22.568 -18.075  0.00  0.00    +0.159 HD
ENDBRANCH   4  10
BRANCH   3  17
ATOM     17  O   UNL     1      37.362 -24.495 -11.227  0.00  0.00    -0.379 OA
ATOM     18  H   UNL     1      37.973 -23.741 -11.193  0.00  0.00    +0.211 HD
ENDBRANCH   3  17
BRANCH   6  19
ATOM     19  C   UNL     1      38.887 -25.044 -14.573  0.00  0.00    +0.169 C 
BRANCH  19  20
ATOM     20  O   UNL     1      39.303 -24.169 -15.607  0.00  0.00    -0.379 OA
ATOM     21  H   UNL     1      40.263 -24.038 -15.554  0.00  0.00    +0.211 HD
ENDBRANCH  19  20
ENDBRANCH   6  19
TORSDOF 4
ENDMDL
MODEL 6
REMARK VINA RESULT:      -7.1      8.430     10.046
REMARK  Name = 50313
REMARK  4 active torsions:
REMARK  status: ('A' for Active; 'I' for Inactive)
REMARK    1  A    between atoms: C_3  and  O_17
REMARK    2  A    between atoms: C_4  and  N_10
REMARK    3  A    between atoms: C_6  and  C_19
REMARK    4  A    between atoms: C_19  and  O_20
REMARK                            x       y       z     vdW  Elec       q    Type
REMARK                         _______ _______ _______ _____ _____    ______ ____
ROOT
ATOM      1  F   UNL     1      34.414 -16.874 -20.930  0.00  0.00    -0.230 F 
ATOM      2  O   UNL     1      34.440 -19.177 -22.859  0.00  0.00    -0.332 OA
ATOM      3  C   UNL     1      35.428 -18.959 -20.704  0.00  0.00    +0.177 C 
ATOM      4  C   UNL     1      35.227 -17.979 -22.846  0.00  0.00    +0.235 C 
ATOM      5  C   UNL     1      35.456 -17.617 -21.391  0.00  0.00    +0.237 C 
ATOM      6  C   UNL     1      34.435 -19.760 -21.542  0.00  0.00    +0.176 C 
ENDROOT
BRANCH   4  10
ATOM      7  I   UNL     1      32.618 -13.288 -22.385  0.00  0.00    -0.036 I 
ATOM      8  O   UNL     1      34.875 -17.956 -25.674  0.00  0.00    -0.252 OA
ATOM      9  O   UNL     1      32.615 -13.960 -25.556  0.00  0.00    -0.269 OA
ATOM     10  N   UNL     1      34.556 -16.955 -23.589  0.00  0.00    -0.216 N 
ATOM     11  N   UNL     1      33.748 -15.961 -25.592  0.00  0.00    -0.235 N 
ATOM     12  C   UNL     1      34.428 -17.029 -24.997  0.00  0.00    +0.315 C 
ATOM     13  C   UNL     1      34.021 -15.869 -22.900  0.00  0.00    +0.082 C 
ATOM     14  C   UNL     1      33.372 -14.850 -23.476  0.00  0.00    +0.099 C 
ATOM     15  C   UNL     1      33.197 -14.858 -24.954  0.00  0.00    +0.259 C 
ATOM     16  H   UNL     1      33.650 -15.996 -26.570  0.00  0.00    +0.159 HD
ENDBRANCH   4  10
BRANCH   3  17
ATOM     17  O   UNL     1      36.718 -19.559 -20.762  0.00  0.00    -0.379 OA
ATOM     18  H   UNL     1      36.723 -20.252 -21.441  0.00  0.00    +0.211 HD
ENDBRANCH   3  17
BRANCH   6  19
ATOM     19  C   UNL     1      33.011 -19.688 -21.008  0.00  0.00    +0.169 C 
BRANCH  19  20
ATOM     20  O   UNL     1      32.741 -20.869 -20.273  0.00  0.00    -0.379 OA
ATOM     21  H   UNL     1      32.176 -21.456 -20.799  0.00  0.00    +0.211 HD
ENDBRANCH  19  20
ENDBRANCH   6  19
TORSDOF 4
ENDMDL
MODEL 7
REMARK VINA RESULT:      -7.0      2.750      5.486
REMARK  Name = 50313
REMARK  4 active torsions:
REMARK  status: ('A' for Active; 'I' for Inactive)
REMARK    1  A    between atoms: C_3  and  O_17
REMARK    2  A    between atoms: C_4  and  N_10
REMARK    3  A    between atoms: C_6  and  C_19
REMARK    4  A    between atoms: C_19  and  O_20
REMARK                            x       y       z     vdW  Elec       q    Type
REMARK                         _______ _______ _______ _____ _____    ______ ____
ROOT
ATOM      1  F   UNL     1      31.915 -22.039 -14.125  0.00  0.00    -0.230 F 
ATOM      2  O   UNL     1      31.616 -24.718 -15.452  0.00  0.00    -0.332 OA
ATOM      3  C   UNL     1      30.458 -23.779 -13.596  0.00  0.00    +0.177 C 
ATOM      4  C   UNL     1      32.588 -24.266 -14.500  0.00  0.00    +0.235 C 
ATOM      5  C   UNL     1      31.883 -23.286 -13.581  0.00  0.00    +0.237 C 
ATOM      6  C   UNL     1      30.298 -24.346 -15.003  0.00  0.00    +0.176 C 
ENDROOT
BRANCH   4  10
ATOM      7  I   UNL     1      34.189 -22.213 -19.216  0.00  0.00    -0.036 I 
ATOM      8  O   UNL     1      35.176 -23.851 -13.382  0.00  0.00    -0.252 OA
ATOM      9  O   UNL     1      36.793 -22.065 -17.292  0.00  0.00    -0.269 OA
ATOM     10  N   UNL     1      33.707 -23.697 -15.189  0.00  0.00    -0.216 N 
ATOM     11  N   UNL     1      35.963 -22.964 -15.344  0.00  0.00    -0.235 N 
ATOM     12  C   UNL     1      34.959 -23.530 -14.551  0.00  0.00    +0.315 C 
ATOM     13  C   UNL     1      33.547 -23.306 -16.517  0.00  0.00    +0.082 C 
ATOM     14  C   UNL     1      34.511 -22.763 -17.270  0.00  0.00    +0.099 C 
ATOM     15  C   UNL     1      35.857 -22.557 -16.667  0.00  0.00    +0.259 C 
ATOM     16  H   UNL     1      36.841 -22.840 -14.916  0.00  0.00    +0.159 HD
ENDBRANCH   4  10
BRANCH   3  17
ATOM     17  O   UNL     1      30.294 -24.811 -12.627  0.00  0.00    -0.379 OA
ATOM     18  H   UNL     1      30.330 -25.675 -13.067  0.00  0.00    +0.211 HD
ENDBRANCH   3  17
BRANCH   6  19
ATOM     19  C   UNL     1      29.740 -23.333 -15.994  0.00  0.00    +0.169 C 
BRANCH  19  20
ATOM     20  O   UNL     1      28.889 -22.439 -15.298  0.00  0.00    -0.379 OA
ATOM     21  H   UNL     1      28.985 -22.578 -14.343  0.00  0.00    +0.211 HD
ENDBRANCH  19  20
ENDBRANCH   6  19
TORSDOF 4
ENDMDL
MODEL 8
REMARK VINA RESULT:      -6.9      8.994     10.781
REMARK  Name = 50313
REMARK  4 active torsions:
REMARK  status: ('A' for Active; 'I' for Inactive)
REMARK    1  A    between atoms: C_3  and  O_17
REMARK    2  A    between atoms: C_4  and  N_10
REMARK    3  A    between atoms: C_6  and  C_19
REMARK    4  A    between atoms: C_19  and  O_20
REMARK                            x       y       z     vdW  Elec       q    Type
REMARK                         _______ _______ _______ _____ _____    ______ ____
ROOT
ATOM      1  F   UNL     1      33.402 -17.860 -21.399  0.00  0.00    -0.230 F 
ATOM      2  O   UNL     1      35.852 -17.659 -23.126  0.00  0.00    -0.332 OA
ATOM      3  C   UNL     1      35.303 -19.207 -21.402  0.00  0.00    +0.177 C 
ATOM      4  C   UNL     1      35.487 -16.915 -21.955  0.00  0.00    +0.235 C 
ATOM      5  C   UNL     1      34.717 -17.861 -21.053  0.00  0.00    +0.237 C 
ATOM      6  C   UNL     1      35.651 -19.065 -22.881  0.00  0.00    +0.176 C 
ENDROOT
BRANCH   4  10
ATOM      7  I   UNL     1      33.023 -14.517 -26.102  0.00  0.00    -0.036 I 
ATOM      8  O   UNL     1      34.769 -14.771 -20.221  0.00  0.00    -0.252 OA
ATOM      9  O   UNL     1      32.602 -12.518 -23.586  0.00  0.00    -0.269 OA
ATOM     10  N   UNL     1      34.739 -15.756 -22.338  0.00  0.00    -0.216 N 
ATOM     11  N   UNL     1      33.693 -13.663 -21.916  0.00  0.00    -0.235 N 
ATOM     12  C   UNL     1      34.428 -14.738 -21.405  0.00  0.00    +0.315 C 
ATOM     13  C   UNL     1      34.314 -15.639 -23.660  0.00  0.00    +0.082 C 
ATOM     14  C   UNL     1      33.610 -14.608 -24.142  0.00  0.00    +0.099 C 
ATOM     15  C   UNL     1      33.246 -13.497 -23.220  0.00  0.00    +0.259 C 
ATOM     16  H   UNL     1      33.468 -12.945 -21.281  0.00  0.00    +0.159 HD
ENDBRANCH   4  10
BRANCH   3  17
ATOM     17  O   UNL     1      36.483 -19.433 -20.637  0.00  0.00    -0.379 OA
ATOM     18  H   UNL     1      36.334 -19.148 -19.721  0.00  0.00    +0.211 HD
ENDBRANCH   3  17
BRANCH   6  19
ATOM     19  C   UNL     1      34.537 -19.541 -23.804  0.00  0.00    +0.169 C 
BRANCH  19  20
ATOM     20  O   UNL     1      34.538 -18.735 -24.969  0.00  0.00    -0.379 OA
ATOM     21  H   UNL     1      35.032 -19.185 -25.673  0.00  0.00    +0.211 HD
ENDBRANCH  19  20
ENDBRANCH   6  19
TORSDOF 4
ENDMDL
MODEL 9
REMARK VINA RESULT:      -6.7     10.015     11.909
REMARK  Name = 50313
REMARK  4 active torsions:
REMARK  status: ('A' for Active; 'I' for Inactive)
REMARK    1  A    between atoms: C_3  and  O_17
REMARK    2  A    between atoms: C_4  and  N_10
REMARK    3  A    between atoms: C_6  and  C_19
REMARK    4  A    between atoms: C_19  and  O_20
REMARK                            x       y       z     vdW  Elec       q    Type
REMARK                         _______ _______ _______ _____ _____    ______ ____
ROOT
ATOM      1  F   UNL     1      32.314 -14.733 -24.311  0.00  0.00    -0.230 F 
ATOM      2  O   UNL     1      34.473 -14.347 -22.258  0.00  0.00    -0.332 OA
ATOM      3  C   UNL     1      33.121 -12.749 -23.393  0.00  0.00    +0.177 C 
ATOM      4  C   UNL     1      34.576 -14.593 -23.666  0.00  0.00    +0.235 C 
ATOM      5  C   UNL     1      33.393 -13.905 -24.323  0.00  0.00    +0.237 C 
ATOM      6  C   UNL     1      33.509 -13.302 -22.024  0.00  0.00    +0.176 C 
ENDROOT
BRANCH   4  10
ATOM      7  I   UNL     1      35.008 -19.388 -21.251  0.00  0.00    -0.036 I 
ATOM      8  O   UNL     1      34.406 -15.839 -26.224  0.00  0.00    -0.252 OA
ATOM      9  O   UNL     1      34.761 -20.046 -24.415  0.00  0.00    -0.269 OA
ATOM     10  N   UNL     1      34.619 -16.005 -23.905  0.00  0.00    -0.216 N 
ATOM     11  N   UNL     1      34.585 -17.929 -25.300  0.00  0.00    -0.235 N 
ATOM     12  C   UNL     1      34.528 -16.534 -25.214  0.00  0.00    +0.315 C 
ATOM     13  C   UNL     1      34.755 -16.864 -22.816  0.00  0.00    +0.082 C 
ATOM     14  C   UNL     1      34.808 -18.198 -22.905  0.00  0.00    +0.099 C 
ATOM     15  C   UNL     1      34.720 -18.829 -24.251  0.00  0.00    +0.259 C 
ATOM     16  H   UNL     1      34.524 -18.316 -26.203  0.00  0.00    +0.159 HD
ENDBRANCH   4  10
BRANCH   3  17
ATOM     17  O   UNL     1      33.956 -11.647 -23.734  0.00  0.00    -0.379 OA
ATOM     18  H   UNL     1      33.489 -11.069 -24.358  0.00  0.00    +0.211 HD
ENDBRANCH   3  17
BRANCH   6  19
ATOM     19  C   UNL     1      32.334 -13.914 -21.274  0.00  0.00    +0.169 C 
BRANCH  19  20
ATOM     20  O   UNL     1      32.826 -14.913 -20.398  0.00  0.00    -0.379 OA
ATOM     21  H   UNL     1      32.473 -14.765 -19.507  0.00  0.00    +0.211 HD
ENDBRANCH  19  20
ENDBRANCH   6  19
TORSDOF 4
ENDMDL
