MODEL 1
REMARK VINA RESULT:      -9.3      0.000      0.000
REMARK  Name = 71481187
REMARK  7 active torsions:
REMARK  status: ('A' for Active; 'I' for Inactive)
REMARK    1  A    between atoms: N_1  and  C_16
REMARK    2  A    between atoms: C_3  and  C_7
REMARK    3  A    between atoms: C_7  and  O_8
REMARK    4  A    between atoms: O_8  and  C_9
REMARK    5  A    between atoms: C_9  and  C_13
REMARK    6  A    between atoms: C_13  and  O_14
REMARK    7  A    between atoms: C_16  and  C_18
REMARK                            x       y       z     vdW  Elec       q    Type
REMARK                         _______ _______ _______ _____ _____    ______ ____
ROOT
ATOM      1  N   UNL     1      35.430 -18.140 -22.539  0.00  0.00    -0.261 N 
ATOM      2  N   UNL     1      34.808 -18.054 -24.669  0.00  0.00    -0.224 NA
ATOM      3  C   UNL     1      34.964 -16.871 -22.742  0.00  0.00    +0.149 C 
ATOM      4  C   UNL     1      34.586 -16.841 -24.063  0.00  0.00    +0.122 C 
ATOM      5  C   UNL     1      35.316 -18.812 -23.724  0.00  0.00    +0.168 C 
ENDROOT
BRANCH   3   7
ATOM      6  O   UNL     1      34.923 -16.002 -20.520  0.00  0.00    -0.243 OA
ATOM      7  C   UNL     1      34.904 -15.835 -21.762  0.00  0.00    +0.357 C 
BRANCH   7   8
ATOM      8  O   UNL     1      34.820 -14.578 -22.322  0.00  0.00    -0.441 OA
BRANCH   8   9
ATOM      9  C   UNL     1      33.513 -13.968 -22.507  0.00  0.00    +0.224 C 
ATOM     10  C   UNL     1      32.865 -13.377 -21.285  0.00  0.00    +0.055 C 
ATOM     11  C   UNL     1      32.347 -14.663 -21.862  0.00  0.00    +0.055 C 
BRANCH   9  13
ATOM     12  O   UNL     1      33.882 -12.245 -24.061  0.00  0.00    -0.246 OA
ATOM     13  C   UNL     1      33.350 -13.317 -23.810  0.00  0.00    +0.354 C 
BRANCH  13  14
ATOM     14  O   UNL     1      32.564 -14.056 -24.640  0.00  0.00    -0.442 OA
ATOM     15  C   UNL     1      33.003 -14.124 -26.001  0.00  0.00    +0.256 C 
ENDBRANCH  13  14
ENDBRANCH   9  13
ENDBRANCH   8   9
ENDBRANCH   7   8
ENDBRANCH   3   7
BRANCH   1  16
ATOM     16  C   UNL     1      35.982 -18.719 -21.231  0.00  0.00    +0.101 C 
ATOM     17  C   UNL     1      37.464 -19.131 -21.420  0.00  0.00    +0.027 C 
BRANCH  16  18
ATOM     18  C   UNL     1      35.105 -19.767 -20.636  0.00  0.00    -0.004 C 
ATOM     19  C   UNL     1      35.671 -20.883 -20.019  0.00  0.00    -0.003 C 
ATOM     20  C   UNL     1      33.718 -19.633 -20.697  0.00  0.00    -0.003 C 
ATOM     21  C   UNL     1      34.850 -21.863 -19.461  0.00  0.00    -0.000 C 
ATOM     22  C   UNL     1      32.896 -20.613 -20.140  0.00  0.00    -0.000 C 
ATOM     23  C   UNL     1      33.463 -21.729 -19.522  0.00  0.00    -0.000 C 
ENDBRANCH  16  18
ENDBRANCH   1  16
TORSDOF 7
ENDMDL
MODEL 2
REMARK VINA RESULT:      -9.1      1.294      1.928
REMARK  Name = 71481187
REMARK  7 active torsions:
REMARK  status: ('A' for Active; 'I' for Inactive)
REMARK    1  A    between atoms: N_1  and  C_16
REMARK    2  A    between atoms: C_3  and  C_7
REMARK    3  A    between atoms: C_7  and  O_8
REMARK    4  A    between atoms: O_8  and  C_9
REMARK    5  A    between atoms: C_9  and  C_13
REMARK    6  A    between atoms: C_13  and  O_14
REMARK    7  A    between atoms: C_16  and  C_18
REMARK                            x       y       z     vdW  Elec       q    Type
REMARK                         _______ _______ _______ _____ _____    ______ ____
ROOT
ATOM      1  N   UNL     1      34.992 -18.397 -23.278  0.00  0.00    -0.261 N 
ATOM      2  N   UNL     1      34.419 -19.062 -25.317  0.00  0.00    -0.224 NA
ATOM      3  C   UNL     1      34.517 -17.285 -23.914  0.00  0.00    +0.149 C 
ATOM      4  C   UNL     1      34.169 -17.720 -25.171  0.00  0.00    +0.122 C 
ATOM      5  C   UNL     1      34.914 -19.438 -24.160  0.00  0.00    +0.168 C 
ENDROOT
BRANCH   3   7
ATOM      6  O   UNL     1      35.372 -15.172 -23.208  0.00  0.00    -0.243 OA
ATOM      7  C   UNL     1      34.421 -15.976 -23.353  0.00  0.00    +0.357 C 
BRANCH   7   8
ATOM      8  O   UNL     1      33.137 -15.654 -22.967  0.00  0.00    -0.441 OA
BRANCH   8   9
ATOM      9  C   UNL     1      32.931 -14.895 -21.745  0.00  0.00    +0.224 C 
ATOM     10  C   UNL     1      33.872 -15.181 -20.607  0.00  0.00    +0.055 C 
ATOM     11  C   UNL     1      32.452 -15.665 -20.545  0.00  0.00    +0.055 C 
BRANCH   9  13
ATOM     12  O   UNL     1      32.101 -12.808 -21.055  0.00  0.00    -0.246 OA
ATOM     13  C   UNL     1      32.456 -13.529 -21.977  0.00  0.00    +0.354 C 
BRANCH  13  14
ATOM     14  O   UNL     1      32.476 -13.213 -23.301  0.00  0.00    -0.442 OA
ATOM     15  C   UNL     1      33.448 -12.235 -23.684  0.00  0.00    +0.256 C 
ENDBRANCH  13  14
ENDBRANCH   9  13
ENDBRANCH   8   9
ENDBRANCH   7   8
ENDBRANCH   3   7
BRANCH   1  16
ATOM     16  C   UNL     1      35.520 -18.479 -21.841  0.00  0.00    +0.101 C 
ATOM     17  C   UNL     1      37.066 -18.588 -21.852  0.00  0.00    +0.027 C 
BRANCH  16  18
ATOM     18  C   UNL     1      34.820 -19.503 -21.015  0.00  0.00    -0.004 C 
ATOM     19  C   UNL     1      33.433 -19.453 -20.870  0.00  0.00    -0.003 C 
ATOM     20  C   UNL     1      35.551 -20.511 -20.386  0.00  0.00    -0.003 C 
ATOM     21  C   UNL     1      32.778 -20.412 -20.097  0.00  0.00    -0.000 C 
ATOM     22  C   UNL     1      34.896 -21.470 -19.613  0.00  0.00    -0.000 C 
ATOM     23  C   UNL     1      33.509 -21.420 -19.468  0.00  0.00    -0.000 C 
ENDBRANCH  16  18
ENDBRANCH   1  16
TORSDOF 7
ENDMDL
MODEL 3
REMARK VINA RESULT:      -8.8      1.199      2.233
REMARK  Name = 71481187
REMARK  7 active torsions:
REMARK  status: ('A' for Active; 'I' for Inactive)
REMARK    1  A    between atoms: N_1  and  C_16
REMARK    2  A    between atoms: C_3  and  C_7
REMARK    3  A    between atoms: C_7  and  O_8
REMARK    4  A    between atoms: O_8  and  C_9
REMARK    5  A    between atoms: C_9  and  C_13
REMARK    6  A    between atoms: C_13  and  O_14
REMARK    7  A    between atoms: C_16  and  C_18
REMARK                            x       y       z     vdW  Elec       q    Type
REMARK                         _______ _______ _______ _____ _____    ______ ____
ROOT
ATOM      1  N   UNL     1      35.017 -18.245 -23.315  0.00  0.00    -0.261 N 
ATOM      2  N   UNL     1      34.430 -18.808 -25.381  0.00  0.00    -0.224 NA
ATOM      3  C   UNL     1      34.513 -17.109 -23.883  0.00  0.00    +0.149 C 
ATOM      4  C   UNL     1      34.157 -17.481 -25.158  0.00  0.00    +0.122 C 
ATOM      5  C   UNL     1      34.947 -19.238 -24.252  0.00  0.00    +0.168 C 
ENDROOT
BRANCH   3   7
ATOM      6  O   UNL     1      35.283 -15.286 -22.551  0.00  0.00    -0.243 OA
ATOM      7  C   UNL     1      34.400 -15.835 -23.250  0.00  0.00    +0.357 C 
BRANCH   7   8
ATOM      8  O   UNL     1      33.182 -15.230 -23.483  0.00  0.00    -0.441 OA
BRANCH   8   9
ATOM      9  C   UNL     1      33.138 -13.984 -24.230  0.00  0.00    +0.224 C 
ATOM     10  C   UNL     1      32.515 -14.038 -25.597  0.00  0.00    +0.055 C 
ATOM     11  C   UNL     1      34.003 -13.901 -25.456  0.00  0.00    +0.055 C 
BRANCH   9  13
ATOM     12  O   UNL     1      32.090 -12.768 -22.515  0.00  0.00    -0.246 OA
ATOM     13  C   UNL     1      32.948 -12.802 -23.384  0.00  0.00    +0.354 C 
BRANCH  13  14
ATOM     14  O   UNL     1      33.829 -11.814 -23.705  0.00  0.00    -0.442 OA
ATOM     15  C   UNL     1      33.278 -10.494 -23.753  0.00  0.00    +0.256 C 
ENDBRANCH  13  14
ENDBRANCH   9  13
ENDBRANCH   8   9
ENDBRANCH   7   8
ENDBRANCH   3   7
BRANCH   1  16
ATOM     16  C   UNL     1      35.565 -18.395 -21.890  0.00  0.00    +0.101 C 
ATOM     17  C   UNL     1      37.104 -18.568 -21.933  0.00  0.00    +0.027 C 
BRANCH  16  18
ATOM     18  C   UNL     1      34.835 -19.415 -21.084  0.00  0.00    -0.004 C 
ATOM     19  C   UNL     1      33.445 -19.364 -20.988  0.00  0.00    -0.003 C 
ATOM     20  C   UNL     1      35.543 -20.421 -20.426  0.00  0.00    -0.003 C 
ATOM     21  C   UNL     1      32.762 -20.319 -20.234  0.00  0.00    -0.000 C 
ATOM     22  C   UNL     1      34.862 -21.375 -19.672  0.00  0.00    -0.000 C 
ATOM     23  C   UNL     1      33.470 -21.324 -19.576  0.00  0.00    -0.000 C 
ENDBRANCH  16  18
ENDBRANCH   1  16
TORSDOF 7
ENDMDL
MODEL 4
REMARK VINA RESULT:      -8.5      8.960     11.563
REMARK  Name = 71481187
REMARK  7 active torsions:
REMARK  status: ('A' for Active; 'I' for Inactive)
REMARK    1  A    between atoms: N_1  and  C_16
REMARK    2  A    between atoms: C_3  and  C_7
REMARK    3  A    between atoms: C_7  and  O_8
REMARK    4  A    between atoms: O_8  and  C_9
REMARK    5  A    between atoms: C_9  and  C_13
REMARK    6  A    between atoms: C_13  and  O_14
REMARK    7  A    between atoms: C_16  and  C_18
REMARK                            x       y       z     vdW  Elec       q    Type
REMARK                         _______ _______ _______ _____ _____    ______ ____
ROOT
ATOM      1  N   UNL     1      35.377 -23.030 -16.512  0.00  0.00    -0.261 N 
ATOM      2  N   UNL     1      37.118 -21.701 -16.143  0.00  0.00    -0.224 NA
ATOM      3  C   UNL     1      36.172 -23.694 -15.621  0.00  0.00    +0.149 C 
ATOM      4  C   UNL     1      37.240 -22.855 -15.408  0.00  0.00    +0.122 C 
ATOM      5  C   UNL     1      35.986 -21.839 -16.796  0.00  0.00    +0.168 C 
ENDROOT
BRANCH   3   7
ATOM      6  O   UNL     1      36.146 -26.080 -15.613  0.00  0.00    -0.243 OA
ATOM      7  C   UNL     1      35.908 -24.980 -15.061  0.00  0.00    +0.357 C 
BRANCH   7   8
ATOM      8  O   UNL     1      35.344 -24.908 -13.804  0.00  0.00    -0.441 OA
BRANCH   8   9
ATOM      9  C   UNL     1      36.210 -24.793 -12.642  0.00  0.00    +0.224 C 
ATOM     10  C   UNL     1      35.543 -24.470 -11.333  0.00  0.00    +0.055 C 
ATOM     11  C   UNL     1      36.354 -23.423 -12.041  0.00  0.00    +0.055 C 
BRANCH   9  13
ATOM     12  O   UNL     1      37.214 -26.917 -12.617  0.00  0.00    -0.246 OA
ATOM     13  C   UNL     1      37.358 -25.704 -12.675  0.00  0.00    +0.354 C 
BRANCH  13  14
ATOM     14  O   UNL     1      38.532 -25.023 -12.776  0.00  0.00    -0.442 OA
ATOM     15  C   UNL     1      39.419 -25.479 -13.803  0.00  0.00    +0.256 C 
ENDBRANCH  13  14
ENDBRANCH   9  13
ENDBRANCH   8   9
ENDBRANCH   7   8
ENDBRANCH   3   7
BRANCH   1  16
ATOM     16  C   UNL     1      34.046 -23.516 -17.097  0.00  0.00    +0.101 C 
ATOM     17  C   UNL     1      33.886 -22.997 -18.549  0.00  0.00    +0.027 C 
BRANCH  16  18
ATOM     18  C   UNL     1      32.882 -23.258 -16.202  0.00  0.00    -0.004 C 
ATOM     19  C   UNL     1      31.606 -23.099 -16.744  0.00  0.00    -0.003 C 
ATOM     20  C   UNL     1      33.067 -23.176 -14.822  0.00  0.00    -0.003 C 
ATOM     21  C   UNL     1      30.517 -22.859 -15.907  0.00  0.00    -0.000 C 
ATOM     22  C   UNL     1      31.979 -22.936 -13.984  0.00  0.00    -0.000 C 
ATOM     23  C   UNL     1      30.703 -22.777 -14.527  0.00  0.00    -0.000 C 
ENDBRANCH  16  18
ENDBRANCH   1  16
TORSDOF 7
ENDMDL
MODEL 5
REMARK VINA RESULT:      -8.3      2.693      7.351
REMARK  Name = 71481187
REMARK  7 active torsions:
REMARK  status: ('A' for Active; 'I' for Inactive)
REMARK    1  A    between atoms: N_1  and  C_16
REMARK    2  A    between atoms: C_3  and  C_7
REMARK    3  A    between atoms: C_7  and  O_8
REMARK    4  A    between atoms: O_8  and  C_9
REMARK    5  A    between atoms: C_9  and  C_13
REMARK    6  A    between atoms: C_13  and  O_14
REMARK    7  A    between atoms: C_16  and  C_18
REMARK                            x       y       z     vdW  Elec       q    Type
REMARK                         _______ _______ _______ _____ _____    ______ ____
ROOT
ATOM      1  N   UNL     1      33.245 -13.636 -24.631  0.00  0.00    -0.261 N 
ATOM      2  N   UNL     1      32.771 -14.283 -26.702  0.00  0.00    -0.224 NA
ATOM      3  C   UNL     1      33.697 -14.922 -24.735  0.00  0.00    +0.149 C 
ATOM      4  C   UNL     1      33.394 -15.299 -26.022  0.00  0.00    +0.122 C 
ATOM      5  C   UNL     1      32.696 -13.297 -25.837  0.00  0.00    +0.168 C 
ENDROOT
BRANCH   3   7
ATOM      6  O   UNL     1      35.568 -15.899 -23.624  0.00  0.00    -0.243 OA
ATOM      7  C   UNL     1      34.339 -15.669 -23.702  0.00  0.00    +0.357 C 
BRANCH   7   8
ATOM      8  O   UNL     1      33.454 -16.138 -22.755  0.00  0.00    -0.441 OA
BRANCH   8   9
ATOM      9  C   UNL     1      33.909 -16.325 -21.387  0.00  0.00    +0.224 C 
ATOM     10  C   UNL     1      33.070 -15.703 -20.305  0.00  0.00    +0.055 C 
ATOM     11  C   UNL     1      34.397 -15.101 -20.665  0.00  0.00    +0.055 C 
BRANCH   9  13
ATOM     12  O   UNL     1      35.618 -17.707 -20.558  0.00  0.00    -0.246 OA
ATOM     13  C   UNL     1      34.557 -17.620 -21.158  0.00  0.00    +0.354 C 
BRANCH  13  14
ATOM     14  O   UNL     1      33.828 -18.642 -21.687  0.00  0.00    -0.442 OA
ATOM     15  C   UNL     1      33.587 -19.743 -20.805  0.00  0.00    +0.256 C 
ENDBRANCH  13  14
ENDBRANCH   9  13
ENDBRANCH   8   9
ENDBRANCH   7   8
ENDBRANCH   3   7
BRANCH   1  16
ATOM     16  C   UNL     1      33.327 -12.729 -23.398  0.00  0.00    +0.101 C 
ATOM     17  C   UNL     1      32.067 -12.920 -22.517  0.00  0.00    +0.027 C 
BRANCH  16  18
ATOM     18  C   UNL     1      33.658 -11.314 -23.731  0.00  0.00    -0.004 C 
ATOM     19  C   UNL     1      34.781 -11.023 -24.506  0.00  0.00    -0.003 C 
ATOM     20  C   UNL     1      32.845 -10.280 -23.267  0.00  0.00    -0.003 C 
ATOM     21  C   UNL     1      35.090  -9.700 -24.818  0.00  0.00    -0.000 C 
ATOM     22  C   UNL     1      33.153  -8.956 -23.578  0.00  0.00    -0.000 C 
ATOM     23  C   UNL     1      34.277  -8.665 -24.354  0.00  0.00    -0.000 C 
ENDBRANCH  16  18
ENDBRANCH   1  16
TORSDOF 7
ENDMDL
MODEL 6
REMARK VINA RESULT:      -8.3      7.911     11.447
REMARK  Name = 71481187
REMARK  7 active torsions:
REMARK  status: ('A' for Active; 'I' for Inactive)
REMARK    1  A    between atoms: N_1  and  C_16
REMARK    2  A    between atoms: C_3  and  C_7
REMARK    3  A    between atoms: C_7  and  O_8
REMARK    4  A    between atoms: O_8  and  C_9
REMARK    5  A    between atoms: C_9  and  C_13
REMARK    6  A    between atoms: C_13  and  O_14
REMARK    7  A    between atoms: C_16  and  C_18
REMARK                            x       y       z     vdW  Elec       q    Type
REMARK                         _______ _______ _______ _____ _____    ______ ____
ROOT
ATOM      1  N   UNL     1      34.890 -23.484 -15.497  0.00  0.00    -0.261 N 
ATOM      2  N   UNL     1      33.030 -23.522 -14.285  0.00  0.00    -0.224 NA
ATOM      3  C   UNL     1      34.899 -24.679 -14.836  0.00  0.00    +0.149 C 
ATOM      4  C   UNL     1      33.742 -24.681 -14.094  0.00  0.00    +0.122 C 
ATOM      5  C   UNL     1      33.748 -22.824 -15.134  0.00  0.00    +0.168 C 
ENDROOT
BRANCH   3   7
ATOM      6  O   UNL     1      36.178 -26.362 -15.944  0.00  0.00    -0.243 OA
ATOM      7  C   UNL     1      35.914 -25.678 -14.927  0.00  0.00    +0.357 C 
BRANCH   7   8
ATOM      8  O   UNL     1      36.613 -25.837 -13.749  0.00  0.00    -0.441 OA
BRANCH   8   9
ATOM      9  C   UNL     1      37.768 -24.994 -13.488  0.00  0.00    +0.224 C 
ATOM     10  C   UNL     1      38.128 -24.769 -12.046  0.00  0.00    +0.055 C 
ATOM     11  C   UNL     1      37.500 -23.663 -12.843  0.00  0.00    +0.055 C 
BRANCH   9  13
ATOM     12  O   UNL     1      39.170 -24.172 -15.186  0.00  0.00    -0.246 OA
ATOM     13  C   UNL     1      38.825 -25.121 -14.496  0.00  0.00    +0.354 C 
BRANCH  13  14
ATOM     14  O   UNL     1      39.329 -26.385 -14.532  0.00  0.00    -0.442 OA
ATOM     15  C   UNL     1      40.742 -26.489 -14.322  0.00  0.00    +0.256 C 
ENDBRANCH  13  14
ENDBRANCH   9  13
ENDBRANCH   8   9
ENDBRANCH   7   8
ENDBRANCH   3   7
BRANCH   1  16
ATOM     16  C   UNL     1      35.954 -22.962 -16.470  0.00  0.00    +0.101 C 
ATOM     17  C   UNL     1      36.954 -22.048 -15.717  0.00  0.00    +0.027 C 
BRANCH  16  18
ATOM     18  C   UNL     1      35.378 -22.380 -17.715  0.00  0.00    -0.004 C 
ATOM     19  C   UNL     1      34.047 -22.627 -18.050  0.00  0.00    -0.003 C 
ATOM     20  C   UNL     1      36.170 -21.587 -18.546  0.00  0.00    -0.003 C 
ATOM     21  C   UNL     1      33.507 -22.081 -19.214  0.00  0.00    -0.000 C 
ATOM     22  C   UNL     1      35.632 -21.041 -19.711  0.00  0.00    -0.000 C 
ATOM     23  C   UNL     1      34.299 -21.288 -20.045  0.00  0.00    -0.000 C 
ENDBRANCH  16  18
ENDBRANCH   1  16
TORSDOF 7
ENDMDL
MODEL 7
REMARK VINA RESULT:      -8.3      7.789     11.583
REMARK  Name = 71481187
REMARK  7 active torsions:
REMARK  status: ('A' for Active; 'I' for Inactive)
REMARK    1  A    between atoms: N_1  and  C_16
REMARK    2  A    between atoms: C_3  and  C_7
REMARK    3  A    between atoms: C_7  and  O_8
REMARK    4  A    between atoms: O_8  and  C_9
REMARK    5  A    between atoms: C_9  and  C_13
REMARK    6  A    between atoms: C_13  and  O_14
REMARK    7  A    between atoms: C_16  and  C_18
REMARK                            x       y       z     vdW  Elec       q    Type
REMARK                         _______ _______ _______ _____ _____    ______ ____
ROOT
ATOM      1  N   UNL     1      35.164 -23.317 -15.836  0.00  0.00    -0.261 N 
ATOM      2  N   UNL     1      33.359 -23.491 -14.555  0.00  0.00    -0.224 NA
ATOM      3  C   UNL     1      35.330 -24.462 -15.110  0.00  0.00    +0.149 C 
ATOM      4  C   UNL     1      34.204 -24.549 -14.326  0.00  0.00    +0.122 C 
ATOM      5  C   UNL     1      33.967 -22.768 -15.468  0.00  0.00    +0.168 C 
ENDROOT
BRANCH   3   7
ATOM      6  O   UNL     1      36.415 -26.538 -15.566  0.00  0.00    -0.243 OA
ATOM      7  C   UNL     1      36.449 -25.345 -15.183  0.00  0.00    +0.357 C 
BRANCH   7   8
ATOM      8  O   UNL     1      37.625 -24.749 -14.779  0.00  0.00    -0.441 OA
BRANCH   8   9
ATOM      9  C   UNL     1      38.423 -25.380 -13.741  0.00  0.00    +0.224 C 
ATOM     10  C   UNL     1      39.914 -25.209 -13.837  0.00  0.00    +0.055 C 
ATOM     11  C   UNL     1      39.288 -26.535 -14.163  0.00  0.00    +0.055 C 
BRANCH   9  13
ATOM     12  O   UNL     1      37.134 -26.362 -12.040  0.00  0.00    -0.246 OA
ATOM     13  C   UNL     1      37.770 -25.393 -12.429  0.00  0.00    +0.354 C 
BRANCH  13  14
ATOM     14  O   UNL     1      37.978 -24.227 -11.757  0.00  0.00    -0.442 OA
ATOM     15  C   UNL     1      36.840 -23.363 -11.663  0.00  0.00    +0.256 C 
ENDBRANCH  13  14
ENDBRANCH   9  13
ENDBRANCH   8   9
ENDBRANCH   7   8
ENDBRANCH   3   7
BRANCH   1  16
ATOM     16  C   UNL     1      36.132 -22.738 -16.875  0.00  0.00    +0.101 C 
ATOM     17  C   UNL     1      37.162 -21.813 -16.180  0.00  0.00    +0.027 C 
BRANCH  16  18
ATOM     18  C   UNL     1      35.441 -22.142 -18.054  0.00  0.00    -0.004 C 
ATOM     19  C   UNL     1      36.141 -21.305 -18.924  0.00  0.00    -0.003 C 
ATOM     20  C   UNL     1      34.095 -22.421 -18.289  0.00  0.00    -0.003 C 
ATOM     21  C   UNL     1      35.495 -20.749 -20.027  0.00  0.00    -0.000 C 
ATOM     22  C   UNL     1      33.448 -21.864 -19.392  0.00  0.00    -0.000 C 
ATOM     23  C   UNL     1      34.148 -21.027 -20.262  0.00  0.00    -0.000 C 
ENDBRANCH  16  18
ENDBRANCH   1  16
TORSDOF 7
ENDMDL
MODEL 8
REMARK VINA RESULT:      -8.1      4.260      6.631
REMARK  Name = 71481187
REMARK  7 active torsions:
REMARK  status: ('A' for Active; 'I' for Inactive)
REMARK    1  A    between atoms: N_1  and  C_16
REMARK    2  A    between atoms: C_3  and  C_7
REMARK    3  A    between atoms: C_7  and  O_8
REMARK    4  A    between atoms: O_8  and  C_9
REMARK    5  A    between atoms: C_9  and  C_13
REMARK    6  A    between atoms: C_13  and  O_14
REMARK    7  A    between atoms: C_16  and  C_18
REMARK                            x       y       z     vdW  Elec       q    Type
REMARK                         _______ _______ _______ _____ _____    ______ ____
ROOT
ATOM      1  N   UNL     1      32.783 -12.481 -22.826  0.00  0.00    -0.261 N 
ATOM      2  N   UNL     1      31.159 -11.904 -21.426  0.00  0.00    -0.224 NA
ATOM      3  C   UNL     1      32.679 -11.122 -22.914  0.00  0.00    +0.149 C 
ATOM      4  C   UNL     1      31.670 -10.788 -22.041  0.00  0.00    +0.122 C 
ATOM      5  C   UNL     1      31.851 -12.905 -21.920  0.00  0.00    +0.168 C 
ENDROOT
BRANCH   3   7
ATOM      6  O   UNL     1      34.598 -10.553 -24.213  0.00  0.00    -0.243 OA
ATOM      7  C   UNL     1      33.468 -10.274 -23.748  0.00  0.00    +0.357 C 
BRANCH   7   8
ATOM      8  O   UNL     1      32.857  -9.066 -24.011  0.00  0.00    -0.441 OA
BRANCH   8   9
ATOM      9  C   UNL     1      33.357  -7.861 -23.371  0.00  0.00    +0.224 C 
ATOM     10  C   UNL     1      33.879  -6.782 -24.279  0.00  0.00    +0.055 C 
ATOM     11  C   UNL     1      34.836  -7.609 -23.471  0.00  0.00    +0.055 C 
BRANCH   9  13
ATOM     12  O   UNL     1      33.163  -7.567 -21.048  0.00  0.00    -0.246 OA
ATOM     13  C   UNL     1      32.633  -7.503 -22.148  0.00  0.00    +0.354 C 
BRANCH  13  14
ATOM     14  O   UNL     1      31.358  -7.111 -22.422  0.00  0.00    -0.442 OA
ATOM     15  C   UNL     1      31.022  -5.784 -22.003  0.00  0.00    +0.256 C 
ENDBRANCH  13  14
ENDBRANCH   9  13
ENDBRANCH   8   9
ENDBRANCH   7   8
ENDBRANCH   3   7
BRANCH   1  16
ATOM     16  C   UNL     1      33.759 -13.380 -23.593  0.00  0.00    +0.101 C 
ATOM     17  C   UNL     1      33.198 -13.684 -25.006  0.00  0.00    +0.027 C 
BRANCH  16  18
ATOM     18  C   UNL     1      34.194 -14.575 -22.815  0.00  0.00    -0.004 C 
ATOM     19  C   UNL     1      34.551 -15.749 -23.480  0.00  0.00    -0.003 C 
ATOM     20  C   UNL     1      34.244 -14.520 -21.422  0.00  0.00    -0.003 C 
ATOM     21  C   UNL     1      34.958 -16.866 -22.752  0.00  0.00    -0.000 C 
ATOM     22  C   UNL     1      34.651 -15.637 -20.693  0.00  0.00    -0.000 C 
ATOM     23  C   UNL     1      35.008 -16.812 -21.359  0.00  0.00    -0.000 C 
ENDBRANCH  16  18
ENDBRANCH   1  16
TORSDOF 7
ENDMDL
MODEL 9
REMARK VINA RESULT:      -8.0      1.711      3.002
REMARK  Name = 71481187
REMARK  7 active torsions:
REMARK  status: ('A' for Active; 'I' for Inactive)
REMARK    1  A    between atoms: N_1  and  C_16
REMARK    2  A    between atoms: C_3  and  C_7
REMARK    3  A    between atoms: C_7  and  O_8
REMARK    4  A    between atoms: O_8  and  C_9
REMARK    5  A    between atoms: C_9  and  C_13
REMARK    6  A    between atoms: C_13  and  O_14
REMARK    7  A    between atoms: C_16  and  C_18
REMARK                            x       y       z     vdW  Elec       q    Type
REMARK                         _______ _______ _______ _____ _____    ______ ____
ROOT
ATOM      1  N   UNL     1      34.904 -17.152 -21.915  0.00  0.00    -0.261 N 
ATOM      2  N   UNL     1      34.794 -15.439 -20.507  0.00  0.00    -0.224 NA
ATOM      3  C   UNL     1      34.688 -16.047 -22.688  0.00  0.00    +0.149 C 
ATOM      4  C   UNL     1      34.623 -15.001 -21.798  0.00  0.00    +0.122 C 
ATOM      5  C   UNL     1      34.961 -16.738 -20.614  0.00  0.00    +0.168 C 
ENDROOT
BRANCH   3   7
ATOM      6  O   UNL     1      35.461 -16.338 -24.926  0.00  0.00    -0.243 OA
ATOM      7  C   UNL     1      34.562 -16.031 -24.110  0.00  0.00    +0.357 C 
BRANCH   7   8
ATOM      8  O   UNL     1      33.310 -15.630 -24.529  0.00  0.00    -0.441 OA
BRANCH   8   9
ATOM      9  C   UNL     1      33.154 -14.330 -25.160  0.00  0.00    +0.224 C 
ATOM     10  C   UNL     1      32.332 -14.285 -26.418  0.00  0.00    +0.055 C 
ATOM     11  C   UNL     1      33.824 -14.142 -26.492  0.00  0.00    +0.055 C 
BRANCH   9  13
ATOM     12  O   UNL     1      32.249 -13.179 -23.323  0.00  0.00    -0.246 OA
ATOM     13  C   UNL     1      33.094 -13.220 -24.206  0.00  0.00    +0.354 C 
BRANCH  13  14
ATOM     14  O   UNL     1      34.071 -12.302 -24.447  0.00  0.00    -0.442 OA
ATOM     15  C   UNL     1      33.672 -10.934 -24.321  0.00  0.00    +0.256 C 
ENDBRANCH  13  14
ENDBRANCH   9  13
ENDBRANCH   8   9
ENDBRANCH   7   8
ENDBRANCH   3   7
BRANCH   1  16
ATOM     16  C   UNL     1      35.058 -18.598 -22.401  0.00  0.00    +0.101 C 
ATOM     17  C   UNL     1      34.275 -18.796 -23.724  0.00  0.00    +0.027 C 
BRANCH  16  18
ATOM     18  C   UNL     1      34.774 -19.608 -21.342  0.00  0.00    -0.004 C 
ATOM     19  C   UNL     1      33.456 -19.901 -20.992  0.00  0.00    -0.003 C 
ATOM     20  C   UNL     1      35.827 -20.260 -20.699  0.00  0.00    -0.003 C 
ATOM     21  C   UNL     1      33.191 -20.846 -20.001  0.00  0.00    -0.000 C 
ATOM     22  C   UNL     1      35.563 -21.204 -19.708  0.00  0.00    -0.000 C 
ATOM     23  C   UNL     1      34.243 -21.498 -19.359  0.00  0.00    -0.000 C 
ENDBRANCH  16  18
ENDBRANCH   1  16
TORSDOF 7
ENDMDL
