MODEL 1
REMARK VINA RESULT:      -8.4      0.000      0.000
REMARK  Name = 4114
REMARK  1 active torsions:
REMARK  status: ('A' for Active; 'I' for Inactive)
REMARK    1  A    between atoms: C_8  and  O_15
REMARK                            x       y       z     vdW  Elec       q    Type
REMARK                         _______ _______ _______ _____ _____    ______ ____
ROOT
ATOM      1  O   UNL     1      33.468 -13.631 -24.522  0.00  0.00    -0.447 OA
ATOM      2  O   UNL     1      35.247 -17.097 -21.653  0.00  0.00    -0.418 OA
ATOM      3  O   UNL     1      36.081 -18.806 -20.376  0.00  0.00    -0.244 OA
ATOM      4  C   UNL     1      33.766 -15.722 -25.325  0.00  0.00    +0.041 C 
ATOM      5  C   UNL     1      33.889 -14.890 -24.215  0.00  0.00    +0.182 C 
ATOM      6  C   UNL     1      34.649 -17.528 -23.975  0.00  0.00    +0.038 C 
ATOM      7  C   UNL     1      34.749 -16.647 -22.898  0.00  0.00    +0.185 C 
ATOM      8  C   UNL     1      34.375 -15.302 -22.977  0.00  0.00    +0.207 C 
ATOM      9  C   UNL     1      34.155 -17.071 -25.206  0.00  0.00    +0.006 C 
ATOM     10  C   UNL     1      33.238 -14.906 -26.360  0.00  0.00    +0.044 C 
ATOM     11  C   UNL     1      35.066 -18.908 -23.790  0.00  0.00    +0.010 C 
ATOM     12  C   UNL     1      33.075 -13.652 -25.822  0.00  0.00    +0.180 C 
ATOM     13  C   UNL     1      35.533 -19.322 -22.609  0.00  0.00    +0.082 C 
ATOM     14  C   UNL     1      35.650 -18.412 -21.455  0.00  0.00    +0.346 C 
ENDROOT
BRANCH   8  15
ATOM     15  O   UNL     1      34.479 -14.455 -21.916  0.00  0.00    -0.465 OA
ATOM     16  C   UNL     1      33.322 -14.299 -21.095  0.00  0.00    +0.253 C 
ENDBRANCH   8  15
TORSDOF 1
ENDMDL
MODEL 2
REMARK VINA RESULT:      -8.2      1.586      2.971
REMARK  Name = 4114
REMARK  1 active torsions:
REMARK  status: ('A' for Active; 'I' for Inactive)
REMARK    1  A    between atoms: C_8  and  O_15
REMARK                            x       y       z     vdW  Elec       q    Type
REMARK                         _______ _______ _______ _____ _____    ______ ____
ROOT
ATOM      1  O   UNL     1      33.623 -15.252 -26.772  0.00  0.00    -0.447 OA
ATOM      2  O   UNL     1      35.048 -17.329 -22.641  0.00  0.00    -0.418 OA
ATOM      3  O   UNL     1      35.691 -18.224 -20.634  0.00  0.00    -0.244 OA
ATOM      4  C   UNL     1      33.392 -14.150 -24.813  0.00  0.00    +0.041 C 
ATOM      5  C   UNL     1      33.824 -15.323 -25.427  0.00  0.00    +0.182 C 
ATOM      6  C   UNL     1      34.071 -15.098 -22.691  0.00  0.00    +0.038 C 
ATOM      7  C   UNL     1      34.487 -16.248 -23.361  0.00  0.00    +0.185 C 
ATOM      8  C   UNL     1      34.380 -16.403 -24.746  0.00  0.00    +0.207 C 
ATOM      9  C   UNL     1      33.516 -14.031 -23.415  0.00  0.00    +0.006 C 
ATOM     10  C   UNL     1      32.901 -13.326 -25.861  0.00  0.00    +0.044 C 
ATOM     11  C   UNL     1      34.227 -15.035 -21.247  0.00  0.00    +0.010 C 
ATOM     12  C   UNL     1      33.065 -14.039 -27.025  0.00  0.00    +0.180 C 
ATOM     13  C   UNL     1      34.758 -16.061 -20.578  0.00  0.00    +0.082 C 
ATOM     14  C   UNL     1      35.205 -17.289 -21.260  0.00  0.00    +0.346 C 
ENDROOT
BRANCH   8  15
ATOM     15  O   UNL     1      34.790 -17.534 -25.385  0.00  0.00    -0.465 OA
ATOM     16  C   UNL     1      34.006 -18.710 -25.190  0.00  0.00    +0.253 C 
ENDBRANCH   8  15
TORSDOF 1
ENDMDL
MODEL 3
REMARK VINA RESULT:      -8.0      8.505     11.604
REMARK  Name = 4114
REMARK  1 active torsions:
REMARK  status: ('A' for Active; 'I' for Inactive)
REMARK    1  A    between atoms: C_8  and  O_15
REMARK                            x       y       z     vdW  Elec       q    Type
REMARK                         _______ _______ _______ _____ _____    ______ ____
ROOT
ATOM      1  O   UNL     1      35.781 -24.131 -16.104  0.00  0.00    -0.447 OA
ATOM      2  O   UNL     1      31.161 -22.974 -16.954  0.00  0.00    -0.418 OA
ATOM      3  O   UNL     1      28.956 -22.434 -17.252  0.00  0.00    -0.244 OA
ATOM      4  C   UNL     1      34.323 -23.959 -14.387  0.00  0.00    +0.041 C 
ATOM      5  C   UNL     1      34.489 -23.863 -15.766  0.00  0.00    +0.182 C 
ATOM      6  C   UNL     1      31.992 -23.386 -14.702  0.00  0.00    +0.038 C 
ATOM      7  C   UNL     1      32.219 -23.306 -16.076  0.00  0.00    +0.185 C 
ATOM      8  C   UNL     1      33.469 -23.540 -16.656  0.00  0.00    +0.207 C 
ATOM      9  C   UNL     1      33.048 -23.715 -13.839  0.00  0.00    +0.006 C 
ATOM     10  C   UNL     1      35.600 -24.306 -13.869  0.00  0.00    +0.044 C 
ATOM     11  C   UNL     1      30.654 -23.124 -14.198  0.00  0.00    +0.010 C 
ATOM     12  C   UNL     1      36.445 -24.398 -14.949  0.00  0.00    +0.180 C 
ATOM     13  C   UNL     1      29.663 -22.813 -15.037  0.00  0.00    +0.082 C 
ATOM     14  C   UNL     1      29.875 -22.720 -16.493  0.00  0.00    +0.346 C 
ENDROOT
BRANCH   8  15
ATOM     15  O   UNL     1      33.673 -23.457 -18.000  0.00  0.00    -0.465 OA
ATOM     16  C   UNL     1      34.283 -22.263 -18.491  0.00  0.00    +0.253 C 
ENDBRANCH   8  15
TORSDOF 1
ENDMDL
MODEL 4
REMARK VINA RESULT:      -8.0      9.320     11.611
REMARK  Name = 4114
REMARK  1 active torsions:
REMARK  status: ('A' for Active; 'I' for Inactive)
REMARK    1  A    between atoms: C_8  and  O_15
REMARK                            x       y       z     vdW  Elec       q    Type
REMARK                         _______ _______ _______ _____ _____    ______ ____
ROOT
ATOM      1  O   UNL     1      34.625 -22.969 -17.436  0.00  0.00    -0.447 OA
ATOM      2  O   UNL     1      37.516 -23.202 -13.564  0.00  0.00    -0.418 OA
ATOM      3  O   UNL     1      38.800 -23.339 -11.672  0.00  0.00    -0.244 OA
ATOM      4  C   UNL     1      33.772 -23.526 -15.419  0.00  0.00    +0.041 C 
ATOM      5  C   UNL     1      34.921 -23.175 -16.123  0.00  0.00    +0.182 C 
ATOM      6  C   UNL     1      35.130 -23.672 -13.420  0.00  0.00    +0.038 C 
ATOM      7  C   UNL     1      36.246 -23.315 -14.177  0.00  0.00    +0.185 C 
ATOM      8  C   UNL     1      36.185 -23.055 -15.548  0.00  0.00    +0.207 C 
ATOM      9  C   UNL     1      33.875 -23.781 -14.037  0.00  0.00    +0.006 C 
ATOM     10  C   UNL     1      32.723 -23.531 -16.376  0.00  0.00    +0.044 C 
ATOM     11  C   UNL     1      35.300 -23.922 -11.998  0.00  0.00    +0.010 C 
ATOM     12  C   UNL     1      33.292 -23.187 -17.579  0.00  0.00    +0.180 C 
ATOM     13  C   UNL     1      36.504 -23.811 -11.430  0.00  0.00    +0.082 C 
ATOM     14  C   UNL     1      37.700 -23.437 -12.206  0.00  0.00    +0.346 C 
ENDROOT
BRANCH   8  15
ATOM     15  O   UNL     1      37.284 -22.708 -16.273  0.00  0.00    -0.465 OA
ATOM     16  C   UNL     1      37.387 -21.345 -16.684  0.00  0.00    +0.253 C 
ENDBRANCH   8  15
TORSDOF 1
ENDMDL
MODEL 5
REMARK VINA RESULT:      -7.9      4.467      8.051
REMARK  Name = 4114
REMARK  1 active torsions:
REMARK  status: ('A' for Active; 'I' for Inactive)
REMARK    1  A    between atoms: C_8  and  O_15
REMARK                            x       y       z     vdW  Elec       q    Type
REMARK                         _______ _______ _______ _____ _____    ______ ____
ROOT
ATOM      1  O   UNL     1      34.810 -23.341 -16.971  0.00  0.00    -0.447 OA
ATOM      2  O   UNL     1      36.245 -20.095 -20.258  0.00  0.00    -0.418 OA
ATOM      3  O   UNL     1      36.823 -18.548 -21.846  0.00  0.00    -0.244 OA
ATOM      4  C   UNL     1      33.293 -22.355 -18.325  0.00  0.00    +0.041 C 
ATOM      5  C   UNL     1      34.640 -22.444 -17.982  0.00  0.00    +0.182 C 
ATOM      6  C   UNL     1      33.905 -20.719 -20.002  0.00  0.00    +0.038 C 
ATOM      7  C   UNL     1      35.239 -20.851 -19.615  0.00  0.00    +0.185 C 
ATOM      8  C   UNL     1      35.654 -21.714 -18.596  0.00  0.00    +0.207 C 
ATOM      9  C   UNL     1      32.914 -21.474 -19.356  0.00  0.00    +0.006 C 
ATOM     10  C   UNL     1      32.617 -23.257 -17.461  0.00  0.00    +0.044 C 
ATOM     11  C   UNL     1      33.576 -19.793 -21.073  0.00  0.00    +0.010 C 
ATOM     12  C   UNL     1      33.580 -23.828 -16.663  0.00  0.00    +0.180 C 
ATOM     13  C   UNL     1      34.535 -19.085 -21.675  0.00  0.00    +0.082 C 
ATOM     14  C   UNL     1      35.952 -19.204 -21.285  0.00  0.00    +0.346 C 
ENDROOT
BRANCH   8  15
ATOM     15  O   UNL     1      36.961 -21.831 -18.231  0.00  0.00    -0.465 OA
ATOM     16  C   UNL     1      37.316 -21.356 -16.932  0.00  0.00    +0.253 C 
ENDBRANCH   8  15
TORSDOF 1
ENDMDL
MODEL 6
REMARK VINA RESULT:      -7.9      9.714     12.289
REMARK  Name = 4114
REMARK  1 active torsions:
REMARK  status: ('A' for Active; 'I' for Inactive)
REMARK    1  A    between atoms: C_8  and  O_15
REMARK                            x       y       z     vdW  Elec       q    Type
REMARK                         _______ _______ _______ _____ _____    ______ ____
ROOT
ATOM      1  O   UNL     1      32.691 -23.646 -16.311  0.00  0.00    -0.447 OA
ATOM      2  O   UNL     1      34.519 -24.341 -11.886  0.00  0.00    -0.418 OA
ATOM      3  O   UNL     1      35.478 -24.633  -9.827  0.00  0.00    -0.244 OA
ATOM      4  C   UNL     1      34.845 -23.119 -15.882  0.00  0.00    +0.041 C 
ATOM      5  C   UNL     1      33.660 -23.623 -15.354  0.00  0.00    +0.182 C 
ATOM      6  C   UNL     1      35.858 -23.427 -13.704  0.00  0.00    +0.038 C 
ATOM      7  C   UNL     1      34.644 -23.925 -13.232  0.00  0.00    +0.185 C 
ATOM      8  C   UNL     1      33.505 -24.042 -14.035  0.00  0.00    +0.207 C 
ATOM      9  C   UNL     1      35.971 -23.016 -15.041  0.00  0.00    +0.006 C 
ATOM     10  C   UNL     1      34.565 -22.820 -17.241  0.00  0.00    +0.044 C 
ATOM     11  C   UNL     1      36.984 -23.346 -12.788  0.00  0.00    +0.010 C 
ATOM     12  C   UNL     1      33.248 -23.158 -17.450  0.00  0.00    +0.180 C 
ATOM     13  C   UNL     1      36.855 -23.742 -11.519  0.00  0.00    +0.082 C 
ATOM     14  C   UNL     1      35.583 -24.272 -10.994  0.00  0.00    +0.346 C 
ENDROOT
BRANCH   8  15
ATOM     15  O   UNL     1      32.327 -24.530 -13.558  0.00  0.00    -0.465 OA
ATOM     16  C   UNL     1      31.273 -23.591 -13.348  0.00  0.00    +0.253 C 
ENDBRANCH   8  15
TORSDOF 1
ENDMDL
MODEL 7
REMARK VINA RESULT:      -7.9      2.165      5.792
REMARK  Name = 4114
REMARK  1 active torsions:
REMARK  status: ('A' for Active; 'I' for Inactive)
REMARK    1  A    between atoms: C_8  and  O_15
REMARK                            x       y       z     vdW  Elec       q    Type
REMARK                         _______ _______ _______ _____ _____    ______ ____
ROOT
ATOM      1  O   UNL     1      34.856 -16.108 -23.511  0.00  0.00    -0.447 OA
ATOM      2  O   UNL     1      32.320 -12.028 -22.937  0.00  0.00    -0.418 OA
ATOM      3  O   UNL     1      31.104 -10.124 -22.562  0.00  0.00    -0.244 OA
ATOM      4  C   UNL     1      33.972 -15.599 -21.495  0.00  0.00    +0.041 C 
ATOM      5  C   UNL     1      34.123 -15.193 -22.818  0.00  0.00    +0.182 C 
ATOM      6  C   UNL     1      32.688 -13.585 -21.100  0.00  0.00    +0.038 C 
ATOM      7  C   UNL     1      32.871 -13.230 -22.436  0.00  0.00    +0.185 C 
ATOM      8  C   UNL     1      33.591 -14.016 -23.341  0.00  0.00    +0.207 C 
ATOM      9  C   UNL     1      33.240 -14.780 -20.613  0.00  0.00    +0.006 C 
ATOM     10  C   UNL     1      34.661 -16.837 -21.392  0.00  0.00    +0.044 C 
ATOM     11  C   UNL     1      31.922 -12.697 -20.239  0.00  0.00    +0.010 C 
ATOM     12  C   UNL     1      35.177 -17.099 -22.639  0.00  0.00    +0.180 C 
ATOM     13  C   UNL     1      31.405 -11.565 -20.723  0.00  0.00    +0.082 C 
ATOM     14  C   UNL     1      31.584 -11.166 -22.131  0.00  0.00    +0.346 C 
ENDROOT
BRANCH   8  15
ATOM     15  O   UNL     1      33.761 -13.655 -24.642  0.00  0.00    -0.465 OA
ATOM     16  C   UNL     1      32.905 -14.272 -25.604  0.00  0.00    +0.253 C 
ENDBRANCH   8  15
TORSDOF 1
ENDMDL
MODEL 8
REMARK VINA RESULT:      -7.9      9.066     12.081
REMARK  Name = 4114
REMARK  1 active torsions:
REMARK  status: ('A' for Active; 'I' for Inactive)
REMARK    1  A    between atoms: C_8  and  O_15
REMARK                            x       y       z     vdW  Elec       q    Type
REMARK                         _______ _______ _______ _____ _____    ______ ____
ROOT
ATOM      1  O   UNL     1      37.102 -24.233 -13.320  0.00  0.00    -0.447 OA
ATOM      2  O   UNL     1      34.330 -23.105 -17.122  0.00  0.00    -0.418 OA
ATOM      3  O   UNL     1      32.932 -22.584 -18.860  0.00  0.00    -0.244 OA
ATOM      4  C   UNL     1      34.853 -24.188 -13.107  0.00  0.00    +0.041 C 
ATOM      5  C   UNL     1      35.928 -24.007 -13.973  0.00  0.00    +0.182 C 
ATOM      6  C   UNL     1      33.375 -23.636 -14.945  0.00  0.00    +0.038 C 
ATOM      7  C   UNL     1      34.491 -23.470 -15.765  0.00  0.00    +0.185 C 
ATOM      8  C   UNL     1      35.802 -23.648 -15.313  0.00  0.00    +0.207 C 
ATOM      9  C   UNL     1      33.546 -23.998 -13.600  0.00  0.00    +0.006 C 
ATOM     10  C   UNL     1      35.423 -24.543 -11.856  0.00  0.00    +0.044 C 
ATOM     11  C   UNL     1      32.053 -23.427 -15.512  0.00  0.00    +0.010 C 
ATOM     12  C   UNL     1      36.785 -24.556 -12.039  0.00  0.00    +0.180 C 
ATOM     13  C   UNL     1      31.913 -23.083 -16.795  0.00  0.00    +0.082 C 
ATOM     14  C   UNL     1      33.075 -22.900 -17.684  0.00  0.00    +0.346 C 
ENDROOT
BRANCH   8  15
ATOM     15  O   UNL     1      36.880 -23.482 -16.127  0.00  0.00    -0.465 OA
ATOM     16  C   UNL     1      37.449 -22.174 -16.192  0.00  0.00    +0.253 C 
ENDBRANCH   8  15
TORSDOF 1
ENDMDL
MODEL 9
REMARK VINA RESULT:      -7.8      2.048      4.002
REMARK  Name = 4114
REMARK  1 active torsions:
REMARK  status: ('A' for Active; 'I' for Inactive)
REMARK    1  A    between atoms: C_8  and  O_15
REMARK                            x       y       z     vdW  Elec       q    Type
REMARK                         _______ _______ _______ _____ _____    ______ ____
ROOT
ATOM      1  O   UNL     1      31.698 -11.823 -22.413  0.00  0.00    -0.447 OA
ATOM      2  O   UNL     1      34.095 -15.776 -23.842  0.00  0.00    -0.418 OA
ATOM      3  O   UNL     1      35.237 -17.676 -24.417  0.00  0.00    -0.244 OA
ATOM      4  C   UNL     1      32.408 -13.330 -20.886  0.00  0.00    +0.041 C 
ATOM      5  C   UNL     1      32.355 -13.004 -22.239  0.00  0.00    +0.182 C 
ATOM      6  C   UNL     1      33.615 -15.339 -21.494  0.00  0.00    +0.038 C 
ATOM      7  C   UNL     1      33.530 -14.960 -22.834  0.00  0.00    +0.185 C 
ATOM      8  C   UNL     1      32.901 -13.785 -23.255  0.00  0.00    +0.207 C 
ATOM      9  C   UNL     1      33.051 -14.523 -20.502  0.00  0.00    +0.006 C 
ATOM     10  C   UNL     1      31.740 -12.275 -20.210  0.00  0.00    +0.044 C 
ATOM     11  C   UNL     1      34.292 -16.582 -21.161  0.00  0.00    +0.010 C 
ATOM     12  C   UNL     1      31.330 -11.391 -21.179  0.00  0.00    +0.180 C 
ATOM     13  C   UNL     1      34.822 -17.344 -22.121  0.00  0.00    +0.082 C 
ATOM     14  C   UNL     1      34.746 -16.967 -23.545  0.00  0.00    +0.346 C 
ENDROOT
BRANCH   8  15
ATOM     15  O   UNL     1      32.827 -13.430 -24.567  0.00  0.00    -0.465 OA
ATOM     16  C   UNL     1      33.726 -12.416 -25.016  0.00  0.00    +0.253 C 
ENDBRANCH   8  15
TORSDOF 1
ENDMDL
