MODEL 1
REMARK VINA RESULT:     -12.5      0.000      0.000
REMARK  Name = 70798655
REMARK  2 active torsions:
REMARK  status: ('A' for Active; 'I' for Inactive)
REMARK    1  A    between atoms: C_3  and  C_29
REMARK    2  A    between atoms: C_5  and  C_13
REMARK                            x       y       z     vdW  Elec       q    Type
REMARK                         _______ _______ _______ _____ _____    ______ ____
ROOT
ATOM      1  N   UNL     1      34.162 -16.470 -22.650  0.00  0.00    -0.245 N 
ATOM      2  N   UNL     1      34.354 -15.533 -24.672  0.00  0.00    -0.227 NA
ATOM      3  C   UNL     1      33.733 -15.173 -22.521  0.00  0.00    +0.130 C 
ATOM      4  C   UNL     1      34.529 -16.640 -23.980  0.00  0.00    +0.139 C 
ATOM      5  C   UNL     1      34.700 -18.696 -22.035  0.00  0.00    +0.012 C 
ATOM      6  C   UNL     1      34.241 -17.473 -21.688  0.00  0.00    +0.071 C 
ATOM      7  C   UNL     1      33.861 -14.621 -23.773  0.00  0.00    +0.120 C 
ATOM      8  C   UNL     1      35.011 -17.925 -24.355  0.00  0.00    +0.035 C 
ATOM      9  C   UNL     1      35.092 -18.904 -23.433  0.00  0.00    +0.004 C 
ENDROOT
BRANCH   5  13
ATOM     10  O   UNL     1      34.785 -22.696 -18.179  0.00  0.00    -0.414 OA
ATOM     11  N   UNL     1      32.729 -22.002 -18.835  0.00  0.00    -0.356 NA
ATOM     12  N   UNL     1      32.993 -23.726 -17.177  0.00  0.00    -0.302 N 
ATOM     13  C   UNL     1      34.774 -19.757 -21.012  0.00  0.00    -0.014 C 
ATOM     14  C   UNL     1      33.588 -20.292 -20.490  0.00  0.00    +0.089 C 
ATOM     15  C   UNL     1      36.028 -20.211 -20.581  0.00  0.00    -0.001 C 
ATOM     16  C   UNL     1      33.690 -21.299 -19.520  0.00  0.00    +0.152 C 
ATOM     17  C   UNL     1      34.950 -21.720 -19.120  0.00  0.00    +0.175 C 
ATOM     18  C   UNL     1      36.147 -21.216 -19.614  0.00  0.00    +0.040 C 
ATOM     19  C   UNL     1      33.432 -22.806 -18.066  0.00  0.00    +0.341 C 
ATOM     20  H   UNL     1      33.640 -24.262 -16.664  0.00  0.00    +0.148 HD
ATOM     21  H   UNL     1      32.027 -23.859 -17.043  0.00  0.00    +0.148 HD
ENDBRANCH   5  13
BRANCH   3  29
ATOM     22  O   UNL     1      31.521 -10.747 -21.487  0.00  0.00    -0.350 OA
ATOM     23  O   UNL     1      33.596 -15.062 -20.231  0.00  0.00    -0.268 OA
ATOM     24  N   UNL     1      32.430 -13.412 -21.404  0.00  0.00    -0.270 N 
ATOM     25  C   UNL     1      31.919 -12.758 -20.201  0.00  0.00    +0.126 C 
ATOM     26  C   UNL     1      31.950 -12.827 -22.663  0.00  0.00    +0.126 C 
ATOM     27  C   UNL     1      32.136 -11.316 -22.646  0.00  0.00    +0.164 C 
ATOM     28  C   UNL     1      32.119 -11.252 -20.290  0.00  0.00    +0.164 C 
ATOM     29  C   UNL     1      33.247 -14.539 -21.288  0.00  0.00    +0.265 C 
ENDBRANCH   3  29
TORSDOF 2
ENDMDL
MODEL 2
REMARK VINA RESULT:     -12.3      4.625     10.868
REMARK  Name = 70798655
REMARK  2 active torsions:
REMARK  status: ('A' for Active; 'I' for Inactive)
REMARK    1  A    between atoms: C_3  and  C_29
REMARK    2  A    between atoms: C_5  and  C_13
REMARK                            x       y       z     vdW  Elec       q    Type
REMARK                         _______ _______ _______ _____ _____    ______ ____
ROOT
ATOM      1  N   UNL     1      33.831 -23.692 -15.162  0.00  0.00    -0.245 N 
ATOM      2  N   UNL     1      32.231 -24.697 -13.966  0.00  0.00    -0.227 NA
ATOM      3  C   UNL     1      34.423 -24.120 -14.001  0.00  0.00    +0.130 C 
ATOM      4  C   UNL     1      32.495 -24.068 -15.093  0.00  0.00    +0.139 C 
ATOM      5  C   UNL     1      33.617 -22.682 -17.297  0.00  0.00    +0.012 C 
ATOM      6  C   UNL     1      34.391 -23.012 -16.240  0.00  0.00    +0.071 C 
ATOM      7  C   UNL     1      33.421 -24.731 -13.285  0.00  0.00    +0.120 C 
ATOM      8  C   UNL     1      31.671 -23.727 -16.202  0.00  0.00    +0.035 C 
ATOM      9  C   UNL     1      32.202 -23.069 -17.251  0.00  0.00    +0.004 C 
ENDROOT
BRANCH   5  13
ATOM     10  O   UNL     1      35.706 -19.931 -21.649  0.00  0.00    -0.414 OA
ATOM     11  N   UNL     1      33.460 -19.786 -21.376  0.00  0.00    -0.356 NA
ATOM     12  N   UNL     1      34.569 -18.669 -23.196  0.00  0.00    -0.302 N 
ATOM     13  C   UNL     1      34.219 -21.968 -18.439  0.00  0.00    -0.014 C 
ATOM     14  C   UNL     1      33.392 -21.235 -19.303  0.00  0.00    +0.089 C 
ATOM     15  C   UNL     1      35.604 -22.035 -18.641  0.00  0.00    -0.001 C 
ATOM     16  C   UNL     1      33.993 -20.567 -20.380  0.00  0.00    +0.152 C 
ATOM     17  C   UNL     1      35.368 -20.659 -20.544  0.00  0.00    +0.175 C 
ATOM     18  C   UNL     1      36.218 -21.374 -19.710  0.00  0.00    +0.040 C 
ATOM     19  C   UNL     1      34.512 -19.442 -22.087  0.00  0.00    +0.341 C 
ATOM     20  H   UNL     1      35.436 -18.494 -23.630  0.00  0.00    +0.148 HD
ATOM     21  H   UNL     1      33.745 -18.282 -23.569  0.00  0.00    +0.148 HD
ENDBRANCH   5  13
BRANCH   3  29
ATOM     22  O   UNL     1      38.591 -26.911 -14.625  0.00  0.00    -0.350 OA
ATOM     23  O   UNL     1      36.080 -23.041 -12.833  0.00  0.00    -0.268 OA
ATOM     24  N   UNL     1      36.778 -24.796 -14.207  0.00  0.00    -0.270 N 
ATOM     25  C   UNL     1      38.193 -24.647 -13.871  0.00  0.00    +0.126 C 
ATOM     26  C   UNL     1      36.500 -25.827 -15.215  0.00  0.00    +0.126 C 
ATOM     27  C   UNL     1      37.194 -27.130 -14.840  0.00  0.00    +0.164 C 
ATOM     28  C   UNL     1      38.806 -26.000 -13.544  0.00  0.00    +0.164 C 
ATOM     29  C   UNL     1      35.834 -23.944 -13.630  0.00  0.00    +0.265 C 
ENDBRANCH   3  29
TORSDOF 2
ENDMDL
MODEL 3
REMARK VINA RESULT:     -12.2      3.304      9.539
REMARK  Name = 70798655
REMARK  2 active torsions:
REMARK  status: ('A' for Active; 'I' for Inactive)
REMARK    1  A    between atoms: C_3  and  C_29
REMARK    2  A    between atoms: C_5  and  C_13
REMARK                            x       y       z     vdW  Elec       q    Type
REMARK                         _______ _______ _______ _____ _____    ______ ____
ROOT
ATOM      1  N   UNL     1      33.664 -14.212 -24.848  0.00  0.00    -0.245 N 
ATOM      2  N   UNL     1      33.522 -15.631 -26.571  0.00  0.00    -0.227 NA
ATOM      3  C   UNL     1      33.751 -15.475 -24.320  0.00  0.00    +0.130 C 
ATOM      4  C   UNL     1      33.526 -14.360 -26.223  0.00  0.00    +0.139 C 
ATOM      5  C   UNL     1      33.596 -11.843 -24.922  0.00  0.00    +0.012 C 
ATOM      6  C   UNL     1      33.700 -12.980 -24.200  0.00  0.00    +0.071 C 
ATOM      7  C   UNL     1      33.660 -16.326 -25.396  0.00  0.00    +0.120 C 
ATOM      8  C   UNL     1      33.418 -13.168 -26.992  0.00  0.00    +0.035 C 
ATOM      9  C   UNL     1      33.452 -11.970 -26.376  0.00  0.00    +0.004 C 
ENDROOT
BRANCH   5  13
ATOM     10  O   UNL     1      33.600  -6.982 -22.229  0.00  0.00    -0.414 OA
ATOM     11  N   UNL     1      31.811  -8.320 -21.846  0.00  0.00    -0.356 NA
ATOM     12  N   UNL     1      32.012  -6.172 -20.780  0.00  0.00    -0.302 N 
ATOM     13  C   UNL     1      33.642 -10.540 -24.229  0.00  0.00    -0.014 C 
ATOM     14  C   UNL     1      32.593 -10.182 -23.370  0.00  0.00    +0.089 C 
ATOM     15  C   UNL     1      34.733  -9.686 -24.441  0.00  0.00    -0.001 C 
ATOM     16  C   UNL     1      32.665  -8.938 -22.726  0.00  0.00    +0.152 C 
ATOM     17  C   UNL     1      33.762  -8.122 -22.963  0.00  0.00    +0.175 C 
ATOM     18  C   UNL     1      34.819  -8.442 -23.805  0.00  0.00    +0.040 C 
ATOM     19  C   UNL     1      32.413  -7.178 -21.591  0.00  0.00    +0.341 C 
ATOM     20  H   UNL     1      32.570  -5.366 -20.684  0.00  0.00    +0.148 HD
ATOM     21  H   UNL     1      31.163  -6.246 -20.288  0.00  0.00    +0.148 HD
ENDBRANCH   5  13
BRANCH   3  29
ATOM     22  O   UNL     1      35.254 -19.615 -21.839  0.00  0.00    -0.350 OA
ATOM     23  O   UNL     1      33.397 -15.033 -22.095  0.00  0.00    -0.268 OA
ATOM     24  N   UNL     1      34.613 -16.970 -22.570  0.00  0.00    -0.270 N 
ATOM     25  C   UNL     1      34.797 -17.336 -21.166  0.00  0.00    +0.126 C 
ATOM     26  C   UNL     1      35.285 -17.864 -23.521  0.00  0.00    +0.126 C 
ATOM     27  C   UNL     1      34.952 -19.317 -23.205  0.00  0.00    +0.164 C 
ATOM     28  C   UNL     1      34.473 -18.807 -20.954  0.00  0.00    +0.164 C 
ATOM     29  C   UNL     1      33.905 -15.813 -22.899  0.00  0.00    +0.265 C 
ENDBRANCH   3  29
TORSDOF 2
ENDMDL
MODEL 4
REMARK VINA RESULT:     -11.6      4.060     10.370
REMARK  Name = 70798655
REMARK  2 active torsions:
REMARK  status: ('A' for Active; 'I' for Inactive)
REMARK    1  A    between atoms: C_3  and  C_29
REMARK    2  A    between atoms: C_5  and  C_13
REMARK                            x       y       z     vdW  Elec       q    Type
REMARK                         _______ _______ _______ _____ _____    ______ ____
ROOT
ATOM      1  N   UNL     1      34.796 -22.890 -16.849  0.00  0.00    -0.245 N 
ATOM      2  N   UNL     1      33.233 -24.050 -15.746  0.00  0.00    -0.227 NA
ATOM      3  C   UNL     1      35.428 -23.479 -15.783  0.00  0.00    +0.130 C 
ATOM      4  C   UNL     1      33.460 -23.269 -16.783  0.00  0.00    +0.139 C 
ATOM      5  C   UNL     1      34.510 -21.588 -18.810  0.00  0.00    +0.012 C 
ATOM      6  C   UNL     1      35.321 -22.066 -17.840  0.00  0.00    +0.071 C 
ATOM      7  C   UNL     1      34.448 -24.183 -15.123  0.00  0.00    +0.120 C 
ATOM      8  C   UNL     1      32.599 -22.773 -17.801  0.00  0.00    +0.035 C 
ATOM      9  C   UNL     1      33.096 -21.974 -18.766  0.00  0.00    +0.004 C 
ENDROOT
BRANCH   5  13
ATOM     10  O   UNL     1      36.457 -18.299 -22.843  0.00  0.00    -0.414 OA
ATOM     11  N   UNL     1      34.217 -18.651 -22.852  0.00  0.00    -0.356 NA
ATOM     12  N   UNL     1      35.266 -17.258 -24.510  0.00  0.00    -0.302 N 
ATOM     13  C   UNL     1      35.075 -20.721 -19.862  0.00  0.00    -0.014 C 
ATOM     14  C   UNL     1      34.219 -20.153 -20.816  0.00  0.00    +0.089 C 
ATOM     15  C   UNL     1      36.455 -20.481 -19.890  0.00  0.00    -0.001 C 
ATOM     16  C   UNL     1      34.784 -19.333 -21.804  0.00  0.00    +0.152 C 
ATOM     17  C   UNL     1      36.155 -19.121 -21.795  0.00  0.00    +0.175 C 
ATOM     18  C   UNL     1      37.034 -19.665 -20.868  0.00  0.00    +0.040 C 
ATOM     19  C   UNL     1      35.246 -18.064 -23.423  0.00  0.00    +0.341 C 
ATOM     20  H   UNL     1      36.120 -16.885 -24.830  0.00  0.00    +0.148 HD
ATOM     21  H   UNL     1      34.429 -17.045 -24.979  0.00  0.00    +0.148 HD
ENDBRANCH   5  13
BRANCH   3  29
ATOM     22  O   UNL     1      38.796 -26.579 -13.640  0.00  0.00    -0.350 OA
ATOM     23  O   UNL     1      37.332 -22.229 -15.493  0.00  0.00    -0.268 OA
ATOM     24  N   UNL     1      37.548 -24.523 -15.106  0.00  0.00    -0.270 N 
ATOM     25  C   UNL     1      38.969 -24.448 -14.772  0.00  0.00    +0.126 C 
ATOM     26  C   UNL     1      37.000 -25.885 -15.118  0.00  0.00    +0.126 C 
ATOM     27  C   UNL     1      37.381 -26.617 -13.837  0.00  0.00    +0.164 C 
ATOM     28  C   UNL     1      39.258 -25.232 -13.502  0.00  0.00    +0.164 C 
ATOM     29  C   UNL     1      36.852 -23.361 -15.445  0.00  0.00    +0.265 C 
ENDBRANCH   3  29
TORSDOF 2
ENDMDL
MODEL 5
REMARK VINA RESULT:     -10.5      4.184      9.425
REMARK  Name = 70798655
REMARK  2 active torsions:
REMARK  status: ('A' for Active; 'I' for Inactive)
REMARK    1  A    between atoms: C_3  and  C_29
REMARK    2  A    between atoms: C_5  and  C_13
REMARK                            x       y       z     vdW  Elec       q    Type
REMARK                         _______ _______ _______ _____ _____    ______ ____
ROOT
ATOM      1  N   UNL     1      34.585 -22.773 -16.833  0.00  0.00    -0.245 N 
ATOM      2  N   UNL     1      35.289 -23.898 -15.034  0.00  0.00    -0.227 NA
ATOM      3  C   UNL     1      33.467 -23.315 -16.252  0.00  0.00    +0.130 C 
ATOM      4  C   UNL     1      35.669 -23.156 -16.054  0.00  0.00    +0.139 C 
ATOM      5  C   UNL     1      35.905 -21.552 -18.379  0.00  0.00    +0.012 C 
ATOM      6  C   UNL     1      34.691 -21.985 -17.976  0.00  0.00    +0.071 C 
ATOM      7  C   UNL     1      33.925 -24.000 -15.151  0.00  0.00    +0.120 C 
ATOM      8  C   UNL     1      36.953 -22.704 -16.468  0.00  0.00    +0.035 C 
ATOM      9  C   UNL     1      37.067 -21.940 -17.572  0.00  0.00    +0.004 C 
ENDROOT
BRANCH   5  13
ATOM     10  O   UNL     1      36.108 -18.419 -22.963  0.00  0.00    -0.414 OA
ATOM     11  N   UNL     1      34.100 -19.367 -22.505  0.00  0.00    -0.356 NA
ATOM     12  N   UNL     1      34.407 -17.972 -24.441  0.00  0.00    -0.302 N 
ATOM     13  C   UNL     1      36.009 -20.711 -19.587  0.00  0.00    -0.014 C 
ATOM     14  C   UNL     1      34.878 -20.529 -20.397  0.00  0.00    +0.089 C 
ATOM     15  C   UNL     1      37.234 -20.108 -19.904  0.00  0.00    -0.001 C 
ATOM     16  C   UNL     1      35.007 -19.724 -21.538  0.00  0.00    +0.152 C 
ATOM     17  C   UNL     1      36.238 -19.146 -21.815  0.00  0.00    +0.175 C 
ATOM     18  C   UNL     1      37.379 -19.302 -21.038  0.00  0.00    +0.040 C 
ATOM     19  C   UNL     1      34.803 -18.602 -23.312  0.00  0.00    +0.341 C 
ATOM     20  H   UNL     1      35.048 -17.426 -24.951  0.00  0.00    +0.148 HD
ATOM     21  H   UNL     1      33.477 -18.060 -24.753  0.00  0.00    +0.148 HD
ENDBRANCH   5  13
BRANCH   3  29
ATOM     22  O   UNL     1      28.984 -24.906 -14.543  0.00  0.00    -0.350 OA
ATOM     23  O   UNL     1      31.945 -22.761 -17.880  0.00  0.00    -0.268 OA
ATOM     24  N   UNL     1      31.048 -23.511 -15.857  0.00  0.00    -0.270 N 
ATOM     25  C   UNL     1      29.659 -23.377 -16.292  0.00  0.00    +0.126 C 
ATOM     26  C   UNL     1      31.207 -23.935 -14.460  0.00  0.00    +0.126 C 
ATOM     27  C   UNL     1      30.344 -25.158 -14.180  0.00  0.00    +0.164 C 
ATOM     28  C   UNL     1      28.870 -24.629 -15.942  0.00  0.00    +0.164 C 
ATOM     29  C   UNL     1      32.085 -23.176 -16.730  0.00  0.00    +0.265 C 
ENDBRANCH   3  29
TORSDOF 2
ENDMDL
MODEL 6
REMARK VINA RESULT:     -10.4      4.804      7.685
REMARK  Name = 70798655
REMARK  2 active torsions:
REMARK  status: ('A' for Active; 'I' for Inactive)
REMARK    1  A    between atoms: C_3  and  C_29
REMARK    2  A    between atoms: C_5  and  C_13
REMARK                            x       y       z     vdW  Elec       q    Type
REMARK                         _______ _______ _______ _____ _____    ______ ____
ROOT
ATOM      1  N   UNL     1      32.692 -10.069 -22.446  0.00  0.00    -0.245 N 
ATOM      2  N   UNL     1      31.717  -8.985 -20.750  0.00  0.00    -0.227 NA
ATOM      3  C   UNL     1      33.013  -8.743 -22.596  0.00  0.00    +0.130 C 
ATOM      4  C   UNL     1      31.902 -10.164 -21.306  0.00  0.00    +0.139 C 
ATOM      5  C   UNL     1      32.619 -12.395 -22.903  0.00  0.00    +0.012 C 
ATOM      6  C   UNL     1      33.050 -11.158 -23.235  0.00  0.00    +0.071 C 
ATOM      7  C   UNL     1      32.403  -8.100 -21.545  0.00  0.00    +0.120 C 
ATOM      8  C   UNL     1      31.445 -11.462 -20.946  0.00  0.00    +0.035 C 
ATOM      9  C   UNL     1      31.785 -12.524 -21.703  0.00  0.00    +0.004 C 
ENDROOT
BRANCH   5  13
ATOM     10  O   UNL     1      34.134 -16.826 -25.893  0.00  0.00    -0.414 OA
ATOM     11  N   UNL     1      34.387 -17.017 -23.648  0.00  0.00    -0.356 NA
ATOM     12  N   UNL     1      34.982 -18.820 -25.128  0.00  0.00    -0.302 N 
ATOM     13  C   UNL     1      33.008 -13.546 -23.740  0.00  0.00    -0.014 C 
ATOM     14  C   UNL     1      33.513 -14.702 -23.126  0.00  0.00    +0.089 C 
ATOM     15  C   UNL     1      32.866 -13.465 -25.132  0.00  0.00    -0.001 C 
ATOM     16  C   UNL     1      33.874 -15.780 -23.948  0.00  0.00    +0.152 C 
ATOM     17  C   UNL     1      33.718 -15.658 -25.321  0.00  0.00    +0.175 C 
ATOM     18  C   UNL     1      33.222 -14.532 -25.964  0.00  0.00    +0.040 C 
ATOM     19  C   UNL     1      34.518 -17.585 -24.828  0.00  0.00    +0.341 C 
ATOM     20  H   UNL     1      35.025 -19.115 -26.066  0.00  0.00    +0.148 HD
ATOM     21  H   UNL     1      35.277 -19.422 -24.408  0.00  0.00    +0.148 HD
ENDBRANCH   5  13
BRANCH   3  29
ATOM     22  O   UNL     1      32.518  -4.725 -25.622  0.00  0.00    -0.350 OA
ATOM     23  O   UNL     1      34.752  -8.869 -24.090  0.00  0.00    -0.268 OA
ATOM     24  N   UNL     1      33.528  -6.879 -24.112  0.00  0.00    -0.270 N 
ATOM     25  C   UNL     1      34.329  -6.265 -25.170  0.00  0.00    +0.126 C 
ATOM     26  C   UNL     1      32.484  -6.007 -23.560  0.00  0.00    +0.126 C 
ATOM     27  C   UNL     1      31.664  -5.388 -24.686  0.00  0.00    +0.164 C 
ATOM     28  C   UNL     1      33.427  -5.648 -26.228  0.00  0.00    +0.164 C 
ATOM     29  C   UNL     1      33.835  -8.165 -23.667  0.00  0.00    +0.265 C 
ENDBRANCH   3  29
TORSDOF 2
ENDMDL
MODEL 7
REMARK VINA RESULT:     -10.4      4.293      9.042
REMARK  Name = 70798655
REMARK  2 active torsions:
REMARK  status: ('A' for Active; 'I' for Inactive)
REMARK    1  A    between atoms: C_3  and  C_29
REMARK    2  A    between atoms: C_5  and  C_13
REMARK                            x       y       z     vdW  Elec       q    Type
REMARK                         _______ _______ _______ _____ _____    ______ ____
ROOT
ATOM      1  N   UNL     1      33.813 -14.335 -25.038  0.00  0.00    -0.245 N 
ATOM      2  N   UNL     1      33.368 -15.760 -26.704  0.00  0.00    -0.227 NA
ATOM      3  C   UNL     1      34.130 -15.587 -24.575  0.00  0.00    +0.130 C 
ATOM      4  C   UNL     1      33.354 -14.494 -26.340  0.00  0.00    +0.139 C 
ATOM      5  C   UNL     1      33.535 -11.980 -25.041  0.00  0.00    +0.012 C 
ATOM      6  C   UNL     1      33.906 -13.106 -24.392  0.00  0.00    +0.071 C 
ATOM      7  C   UNL     1      33.848 -16.442 -25.614  0.00  0.00    +0.120 C 
ATOM      8  C   UNL     1      32.962 -13.314 -27.033  0.00  0.00    +0.035 C 
ATOM      9  C   UNL     1      33.048 -12.119 -26.418  0.00  0.00    +0.004 C 
ENDROOT
BRANCH   5  13
ATOM     10  O   UNL     1      33.774  -7.119 -22.362  0.00  0.00    -0.414 OA
ATOM     11  N   UNL     1      31.948  -8.392 -21.934  0.00  0.00    -0.356 NA
ATOM     12  N   UNL     1      32.250  -6.250 -20.878  0.00  0.00    -0.302 N 
ATOM     13  C   UNL     1      33.644 -10.680 -24.353  0.00  0.00    -0.014 C 
ATOM     14  C   UNL     1      32.628 -10.282 -23.471  0.00  0.00    +0.089 C 
ATOM     15  C   UNL     1      34.758  -9.864 -24.592  0.00  0.00    -0.001 C 
ATOM     16  C   UNL     1      32.759  -9.041 -22.831  0.00  0.00    +0.152 C 
ATOM     17  C   UNL     1      33.879  -8.265 -23.097  0.00  0.00    +0.175 C 
ATOM     18  C   UNL     1      34.904  -8.624 -23.962  0.00  0.00    +0.040 C 
ATOM     19  C   UNL     1      32.596  -7.272 -21.695  0.00  0.00    +0.341 C 
ATOM     20  H   UNL     1      32.838  -5.464 -20.797  0.00  0.00    +0.148 HD
ATOM     21  H   UNL     1      31.411  -6.293 -20.366  0.00  0.00    +0.148 HD
ENDBRANCH   5  13
BRANCH   3  29
ATOM     22  O   UNL     1      32.775 -14.347 -19.866  0.00  0.00    -0.350 OA
ATOM     23  O   UNL     1      35.771 -16.432 -23.209  0.00  0.00    -0.268 OA
ATOM     24  N   UNL     1      33.865 -15.619 -22.131  0.00  0.00    -0.270 N 
ATOM     25  C   UNL     1      34.350 -15.935 -20.789  0.00  0.00    +0.126 C 
ATOM     26  C   UNL     1      32.505 -15.066 -22.169  0.00  0.00    +0.126 C 
ATOM     27  C   UNL     1      32.373 -13.923 -21.171  0.00  0.00    +0.164 C 
ATOM     28  C   UNL     1      34.148 -14.749 -19.858  0.00  0.00    +0.164 C 
ATOM     29  C   UNL     1      34.657 -15.912 -23.243  0.00  0.00    +0.265 C 
ENDBRANCH   3  29
TORSDOF 2
ENDMDL
MODEL 8
REMARK VINA RESULT:     -10.3      7.653     10.700
REMARK  Name = 70798655
REMARK  2 active torsions:
REMARK  status: ('A' for Active; 'I' for Inactive)
REMARK    1  A    between atoms: C_3  and  C_29
REMARK    2  A    between atoms: C_5  and  C_13
REMARK                            x       y       z     vdW  Elec       q    Type
REMARK                         _______ _______ _______ _____ _____    ______ ____
ROOT
ATOM      1  N   UNL     1      35.155 -22.826 -16.460  0.00  0.00    -0.245 N 
ATOM      2  N   UNL     1      36.806 -22.300 -17.873  0.00  0.00    -0.227 NA
ATOM      3  C   UNL     1      36.323 -22.922 -15.747  0.00  0.00    +0.130 C 
ATOM      4  C   UNL     1      35.503 -22.443 -17.750  0.00  0.00    +0.139 C 
ATOM      5  C   UNL     1      32.830 -22.898 -16.921  0.00  0.00    +0.012 C 
ATOM      6  C   UNL     1      33.845 -23.051 -16.044  0.00  0.00    +0.071 C 
ATOM      7  C   UNL     1      37.319 -22.595 -16.635  0.00  0.00    +0.120 C 
ATOM      8  C   UNL     1      34.440 -22.277 -18.681  0.00  0.00    +0.035 C 
ATOM      9  C   UNL     1      33.169 -22.492 -18.290  0.00  0.00    +0.004 C 
ENDROOT
BRANCH   5  13
ATOM     10  O   UNL     1      27.560 -23.604 -15.307  0.00  0.00    -0.414 OA
ATOM     11  N   UNL     1      27.997 -21.688 -16.437  0.00  0.00    -0.356 NA
ATOM     12  N   UNL     1      25.780 -22.192 -15.649  0.00  0.00    -0.302 N 
ATOM     13  C   UNL     1      31.444 -23.131 -16.471  0.00  0.00    -0.014 C 
ATOM     14  C   UNL     1      30.460 -22.173 -16.755  0.00  0.00    +0.089 C 
ATOM     15  C   UNL     1      31.135 -24.304 -15.769  0.00  0.00    -0.001 C 
ATOM     16  C   UNL     1      29.151 -22.422 -16.315  0.00  0.00    +0.152 C 
ATOM     17  C   UNL     1      28.889 -23.595 -15.623  0.00  0.00    +0.175 C 
ATOM     18  C   UNL     1      29.835 -24.567 -15.323  0.00  0.00    +0.040 C 
ATOM     19  C   UNL     1      27.100 -22.432 -15.828  0.00  0.00    +0.341 C 
ATOM     20  H   UNL     1      25.222 -22.845 -15.167  0.00  0.00    +0.148 HD
ATOM     21  H   UNL     1      25.379 -21.365 -15.999  0.00  0.00    +0.148 HD
ENDBRANCH   5  13
BRANCH   3  29
ATOM     22  O   UNL     1      39.186 -26.249 -13.241  0.00  0.00    -0.350 OA
ATOM     23  O   UNL     1      35.564 -22.893 -13.580  0.00  0.00    -0.268 OA
ATOM     24  N   UNL     1      37.546 -24.071 -13.951  0.00  0.00    -0.270 N 
ATOM     25  C   UNL     1      37.711 -24.459 -12.551  0.00  0.00    +0.126 C 
ATOM     26  C   UNL     1      38.642 -24.497 -14.830  0.00  0.00    +0.126 C 
ATOM     27  C   UNL     1      38.940 -25.976 -14.623  0.00  0.00    +0.164 C 
ATOM     28  C   UNL     1      38.037 -25.941 -12.446  0.00  0.00    +0.164 C 
ATOM     29  C   UNL     1      36.448 -23.299 -14.333  0.00  0.00    +0.265 C 
ENDBRANCH   3  29
TORSDOF 2
ENDMDL
MODEL 9
REMARK VINA RESULT:     -10.2      4.854     11.979
REMARK  Name = 70798655
REMARK  2 active torsions:
REMARK  status: ('A' for Active; 'I' for Inactive)
REMARK    1  A    between atoms: C_3  and  C_29
REMARK    2  A    between atoms: C_5  and  C_13
REMARK                            x       y       z     vdW  Elec       q    Type
REMARK                         _______ _______ _______ _____ _____    ______ ____
ROOT
ATOM      1  N   UNL     1      32.098 -10.224 -21.235  0.00  0.00    -0.245 N 
ATOM      2  N   UNL     1      31.500 -10.694 -19.133  0.00  0.00    -0.227 NA
ATOM      3  C   UNL     1      31.956 -11.586 -21.167  0.00  0.00    +0.130 C 
ATOM      4  C   UNL     1      31.808  -9.726 -19.970  0.00  0.00    +0.139 C 
ATOM      5  C   UNL     1      32.537  -8.087 -22.166  0.00  0.00    +0.012 C 
ATOM      6  C   UNL     1      32.456  -9.427 -22.319  0.00  0.00    +0.071 C 
ATOM      7  C   UNL     1      31.590 -11.849 -19.868  0.00  0.00    +0.120 C 
ATOM      8  C   UNL     1      31.889  -8.316 -19.799  0.00  0.00    +0.035 C 
ATOM      9  C   UNL     1      32.235  -7.535 -20.841  0.00  0.00    +0.004 C 
ENDROOT
BRANCH   5  13
ATOM     10  O   UNL     1      33.766  -4.841 -26.505  0.00  0.00    -0.414 OA
ATOM     11  N   UNL     1      31.711  -4.537 -25.597  0.00  0.00    -0.356 NA
ATOM     12  N   UNL     1      32.446  -3.235 -27.482  0.00  0.00    -0.302 N 
ATOM     13  C   UNL     1      32.910  -7.248 -23.321  0.00  0.00    -0.014 C 
ATOM     14  C   UNL     1      31.994  -6.305 -23.809  0.00  0.00    +0.089 C 
ATOM     15  C   UNL     1      34.172  -7.407 -23.910  0.00  0.00    -0.001 C 
ATOM     16  C   UNL     1      32.376  -5.522 -24.908  0.00  0.00    +0.152 C 
ATOM     17  C   UNL     1      33.634  -5.712 -25.461  0.00  0.00    +0.175 C 
ATOM     18  C   UNL     1      34.568  -6.633 -25.006  0.00  0.00    +0.040 C 
ATOM     19  C   UNL     1      32.577  -4.176 -26.519  0.00  0.00    +0.341 C 
ATOM     20  H   UNL     1      33.184  -3.069 -28.113  0.00  0.00    +0.148 HD
ATOM     21  H   UNL     1      31.613  -2.716 -27.552  0.00  0.00    +0.148 HD
ENDBRANCH   5  13
BRANCH   3  29
ATOM     22  O   UNL     1      34.607 -15.861 -21.666  0.00  0.00    -0.350 OA
ATOM     23  O   UNL     1      31.792 -12.168 -23.382  0.00  0.00    -0.268 OA
ATOM     24  N   UNL     1      32.743 -13.771 -21.973  0.00  0.00    -0.270 N 
ATOM     25  C   UNL     1      32.955 -14.748 -23.040  0.00  0.00    +0.126 C 
ATOM     26  C   UNL     1      33.117 -14.245 -20.635  0.00  0.00    +0.126 C 
ATOM     27  C   UNL     1      34.516 -14.848 -20.661  0.00  0.00    +0.164 C 
ATOM     28  C   UNL     1      34.364 -15.316 -22.966  0.00  0.00    +0.164 C 
ATOM     29  C   UNL     1      32.161 -12.537 -22.268  0.00  0.00    +0.265 C 
ENDBRANCH   3  29
TORSDOF 2
ENDMDL
