MODEL 1
REMARK VINA RESULT:      -5.7      0.000      0.000
REMARK  Name = 90255
REMARK  15 active torsions:
REMARK  status: ('A' for Active; 'I' for Inactive)
REMARK    1  A    between atoms: C_1  and  O_2
REMARK    2  A    between atoms: C_1  and  C_10
REMARK    3  A    between atoms: O_2  and  C_3
REMARK    4  A    between atoms: C_3  and  C_4
REMARK    5  A    between atoms: C_4  and  O_5
REMARK    6  A    between atoms: O_5  and  C_6
REMARK    7  A    between atoms: C_6  and  C_7
REMARK    8  A    between atoms: C_7  and  O_8
REMARK    9  A    between atoms: C_10  and  O_11
REMARK   10  A    between atoms: O_11  and  C_12
REMARK   11  A    between atoms: C_12  and  C_13
REMARK   12  A    between atoms: C_13  and  O_14
REMARK   13  A    between atoms: O_14  and  C_15
REMARK   14  A    between atoms: C_15  and  C_16
REMARK   15  A    between atoms: C_16  and  O_17
REMARK                            x       y       z     vdW  Elec       q    Type
REMARK                         _______ _______ _______ _____ _____    ______ ____
ROOT
ATOM      1  C   UNL     1      34.292 -23.398 -16.480  0.00  0.00    +0.174 C 
ENDROOT
BRANCH   1   2
ATOM      2  O   UNL     1      34.823 -22.848 -17.679  0.00  0.00    -0.348 OA
BRANCH   2   3
ATOM      3  C   UNL     1      33.845 -22.803 -18.709  0.00  0.00    +0.174 C 
BRANCH   3   4
ATOM      4  C   UNL     1      33.965 -21.485 -19.449  0.00  0.00    +0.174 C 
BRANCH   4   5
ATOM      5  O   UNL     1      32.692 -21.130 -19.977  0.00  0.00    -0.348 OA
BRANCH   5   6
ATOM      6  C   UNL     1      32.741 -19.890 -20.666  0.00  0.00    +0.174 C 
BRANCH   6   7
ATOM      7  C   UNL     1      34.188 -19.554 -20.979  0.00  0.00    +0.174 C 
BRANCH   7   8
ATOM      8  O   UNL     1      34.294 -19.201 -22.352  0.00  0.00    -0.348 OA
ATOM      9  C   UNL     1      35.498 -18.491 -22.613  0.00  0.00    +0.174 C 
ENDBRANCH   7   8
ENDBRANCH   6   7
ENDBRANCH   5   6
ENDBRANCH   4   5
ENDBRANCH   3   4
ENDBRANCH   2   3
ENDBRANCH   1   2
BRANCH   1  10
ATOM     10  C   UNL     1      35.347 -23.324 -15.392  0.00  0.00    +0.174 C 
BRANCH  10  11
ATOM     11  O   UNL     1      36.402 -24.221 -15.708  0.00  0.00    -0.348 OA
BRANCH  11  12
ATOM     12  C   UNL     1      36.697 -25.083 -14.614  0.00  0.00    +0.174 C 
BRANCH  12  13
ATOM     13  C   UNL     1      37.096 -26.444 -15.152  0.00  0.00    +0.174 C 
BRANCH  13  14
ATOM     14  O   UNL     1      38.317 -26.844 -14.545  0.00  0.00    -0.348 OA
BRANCH  14  15
ATOM     15  C   UNL     1      39.061 -25.723 -14.082  0.00  0.00    +0.174 C 
BRANCH  15  16
ATOM     16  C   UNL     1      40.485 -25.831 -14.591  0.00  0.00    +0.169 C 
BRANCH  16  17
ATOM     17  O   UNL     1      40.460 -26.027 -16.000  0.00  0.00    -0.379 OA
ATOM     18  H   UNL     1      40.241 -25.190 -16.440  0.00  0.00    +0.211 HD
ENDBRANCH  16  17
ENDBRANCH  15  16
ENDBRANCH  14  15
ENDBRANCH  13  14
ENDBRANCH  12  13
ENDBRANCH  11  12
ENDBRANCH  10  11
ENDBRANCH   1  10
TORSDOF 15
ENDMDL
MODEL 2
REMARK VINA RESULT:      -5.6      1.642      2.469
REMARK  Name = 90255
REMARK  15 active torsions:
REMARK  status: ('A' for Active; 'I' for Inactive)
REMARK    1  A    between atoms: C_1  and  O_2
REMARK    2  A    between atoms: C_1  and  C_10
REMARK    3  A    between atoms: O_2  and  C_3
REMARK    4  A    between atoms: C_3  and  C_4
REMARK    5  A    between atoms: C_4  and  O_5
REMARK    6  A    between atoms: O_5  and  C_6
REMARK    7  A    between atoms: C_6  and  C_7
REMARK    8  A    between atoms: C_7  and  O_8
REMARK    9  A    between atoms: C_10  and  O_11
REMARK   10  A    between atoms: O_11  and  C_12
REMARK   11  A    between atoms: C_12  and  C_13
REMARK   12  A    between atoms: C_13  and  O_14
REMARK   13  A    between atoms: O_14  and  C_15
REMARK   14  A    between atoms: C_15  and  C_16
REMARK   15  A    between atoms: C_16  and  O_17
REMARK                            x       y       z     vdW  Elec       q    Type
REMARK                         _______ _______ _______ _____ _____    ______ ____
ROOT
ATOM      1  C   UNL     1      34.677 -23.426 -15.520  0.00  0.00    +0.174 C 
ENDROOT
BRANCH   1   2
ATOM      2  O   UNL     1      35.431 -23.323 -16.721  0.00  0.00    -0.348 OA
BRANCH   2   3
ATOM      3  C   UNL     1      36.472 -22.363 -16.601  0.00  0.00    +0.174 C 
BRANCH   3   4
ATOM      4  C   UNL     1      36.568 -21.573 -17.892  0.00  0.00    +0.174 C 
BRANCH   4   5
ATOM      5  O   UNL     1      35.840 -22.252 -18.908  0.00  0.00    -0.348 OA
BRANCH   5   6
ATOM      6  C   UNL     1      34.946 -21.378 -19.581  0.00  0.00    +0.174 C 
BRANCH   6   7
ATOM      7  C   UNL     1      33.521 -21.752 -19.217  0.00  0.00    +0.174 C 
BRANCH   7   8
ATOM      8  O   UNL     1      32.645 -20.724 -19.663  0.00  0.00    -0.348 OA
ATOM      9  C   UNL     1      33.240 -19.945 -20.692  0.00  0.00    +0.174 C 
ENDBRANCH   7   8
ENDBRANCH   6   7
ENDBRANCH   5   6
ENDBRANCH   4   5
ENDBRANCH   3   4
ENDBRANCH   2   3
ENDBRANCH   1   2
BRANCH   1  10
ATOM     10  C   UNL     1      34.990 -24.751 -14.851  0.00  0.00    +0.174 C 
BRANCH  10  11
ATOM     11  O   UNL     1      35.302 -24.519 -13.485  0.00  0.00    -0.348 OA
BRANCH  11  12
ATOM     12  C   UNL     1      36.592 -25.020 -13.153  0.00  0.00    +0.174 C 
BRANCH  12  13
ATOM     13  C   UNL     1      37.608 -23.904 -13.297  0.00  0.00    +0.174 C 
BRANCH  13  14
ATOM     14  O   UNL     1      38.513 -24.231 -14.342  0.00  0.00    -0.348 OA
BRANCH  14  15
ATOM     15  C   UNL     1      38.774 -25.628 -14.389  0.00  0.00    +0.174 C 
BRANCH  15  16
ATOM     16  C   UNL     1      40.255 -25.848 -14.630  0.00  0.00    +0.169 C 
BRANCH  16  17
ATOM     17  O   UNL     1      40.486 -25.948 -16.030  0.00  0.00    -0.379 OA
ATOM     18  H   UNL     1      39.637 -26.029 -16.493  0.00  0.00    +0.211 HD
ENDBRANCH  16  17
ENDBRANCH  15  16
ENDBRANCH  14  15
ENDBRANCH  13  14
ENDBRANCH  12  13
ENDBRANCH  11  12
ENDBRANCH  10  11
ENDBRANCH   1  10
TORSDOF 15
ENDMDL
MODEL 3
REMARK VINA RESULT:      -5.6      4.048      4.949
REMARK  Name = 90255
REMARK  15 active torsions:
REMARK  status: ('A' for Active; 'I' for Inactive)
REMARK    1  A    between atoms: C_1  and  O_2
REMARK    2  A    between atoms: C_1  and  C_10
REMARK    3  A    between atoms: O_2  and  C_3
REMARK    4  A    between atoms: C_3  and  C_4
REMARK    5  A    between atoms: C_4  and  O_5
REMARK    6  A    between atoms: O_5  and  C_6
REMARK    7  A    between atoms: C_6  and  C_7
REMARK    8  A    between atoms: C_7  and  O_8
REMARK    9  A    between atoms: C_10  and  O_11
REMARK   10  A    between atoms: O_11  and  C_12
REMARK   11  A    between atoms: C_12  and  C_13
REMARK   12  A    between atoms: C_13  and  O_14
REMARK   13  A    between atoms: O_14  and  C_15
REMARK   14  A    between atoms: C_15  and  C_16
REMARK   15  A    between atoms: C_16  and  O_17
REMARK                            x       y       z     vdW  Elec       q    Type
REMARK                         _______ _______ _______ _____ _____    ______ ____
ROOT
ATOM      1  C   UNL     1      34.008 -23.384 -16.054  0.00  0.00    +0.174 C 
ENDROOT
BRANCH   1   2
ATOM      2  O   UNL     1      32.910 -23.623 -15.183  0.00  0.00    -0.348 OA
BRANCH   2   3
ATOM      3  C   UNL     1      31.690 -23.156 -15.742  0.00  0.00    +0.174 C 
BRANCH   3   4
ATOM      4  C   UNL     1      30.652 -23.043 -14.643  0.00  0.00    +0.174 C 
BRANCH   4   5
ATOM      5  O   UNL     1      29.464 -22.476 -15.182  0.00  0.00    -0.348 OA
BRANCH   5   6
ATOM      6  C   UNL     1      28.660 -23.458 -15.819  0.00  0.00    +0.174 C 
BRANCH   6   7
ATOM      7  C   UNL     1      28.092 -22.877 -17.101  0.00  0.00    +0.174 C 
BRANCH   7   8
ATOM      8  O   UNL     1      27.327 -21.720 -16.785  0.00  0.00    -0.348 OA
ATOM      9  C   UNL     1      26.324 -21.478 -17.763  0.00  0.00    +0.174 C 
ENDBRANCH   7   8
ENDBRANCH   6   7
ENDBRANCH   5   6
ENDBRANCH   4   5
ENDBRANCH   3   4
ENDBRANCH   2   3
ENDBRANCH   1   2
BRANCH   1  10
ATOM     10  C   UNL     1      35.300 -23.660 -15.309  0.00  0.00    +0.174 C 
BRANCH  10  11
ATOM     11  O   UNL     1      35.860 -24.875 -15.786  0.00  0.00    -0.348 OA
BRANCH  11  12
ATOM     12  C   UNL     1      36.319 -25.692 -14.715  0.00  0.00    +0.174 C 
BRANCH  12  13
ATOM     13  C   UNL     1      37.133 -26.839 -15.283  0.00  0.00    +0.174 C 
BRANCH  13  14
ATOM     14  O   UNL     1      38.337 -26.967 -14.539  0.00  0.00    -0.348 OA
BRANCH  14  15
ATOM     15  C   UNL     1      38.873 -25.696 -14.192  0.00  0.00    +0.174 C 
BRANCH  15  16
ATOM     16  C   UNL     1      40.328 -25.640 -14.615  0.00  0.00    +0.169 C 
BRANCH  16  17
ATOM     17  O   UNL     1      40.425 -25.997 -15.989  0.00  0.00    -0.379 OA
ATOM     18  H   UNL     1      39.565 -26.323 -16.300  0.00  0.00    +0.211 HD
ENDBRANCH  16  17
ENDBRANCH  15  16
ENDBRANCH  14  15
ENDBRANCH  13  14
ENDBRANCH  12  13
ENDBRANCH  11  12
ENDBRANCH  10  11
ENDBRANCH   1  10
TORSDOF 15
ENDMDL
MODEL 4
REMARK VINA RESULT:      -5.6      4.408      7.102
REMARK  Name = 90255
REMARK  15 active torsions:
REMARK  status: ('A' for Active; 'I' for Inactive)
REMARK    1  A    between atoms: C_1  and  O_2
REMARK    2  A    between atoms: C_1  and  C_10
REMARK    3  A    between atoms: O_2  and  C_3
REMARK    4  A    between atoms: C_3  and  C_4
REMARK    5  A    between atoms: C_4  and  O_5
REMARK    6  A    between atoms: O_5  and  C_6
REMARK    7  A    between atoms: C_6  and  C_7
REMARK    8  A    between atoms: C_7  and  O_8
REMARK    9  A    between atoms: C_10  and  O_11
REMARK   10  A    between atoms: O_11  and  C_12
REMARK   11  A    between atoms: C_12  and  C_13
REMARK   12  A    between atoms: C_13  and  O_14
REMARK   13  A    between atoms: O_14  and  C_15
REMARK   14  A    between atoms: C_15  and  C_16
REMARK   15  A    between atoms: C_16  and  O_17
REMARK                            x       y       z     vdW  Elec       q    Type
REMARK                         _______ _______ _______ _____ _____    ______ ____
ROOT
ATOM      1  C   UNL     1      33.590 -22.297 -18.733  0.00  0.00    +0.174 C 
ENDROOT
BRANCH   1   2
ATOM      2  O   UNL     1      34.985 -22.556 -18.823  0.00  0.00    -0.348 OA
BRANCH   2   3
ATOM      3  C   UNL     1      35.692 -21.433 -19.330  0.00  0.00    +0.174 C 
BRANCH   3   4
ATOM      4  C   UNL     1      34.775 -20.639 -20.240  0.00  0.00    +0.174 C 
BRANCH   4   5
ATOM      5  O   UNL     1      35.333 -19.347 -20.449  0.00  0.00    -0.348 OA
BRANCH   5   6
ATOM      6  C   UNL     1      34.606 -18.619 -21.428  0.00  0.00    +0.174 C 
BRANCH   6   7
ATOM      7  C   UNL     1      35.558 -17.693 -22.163  0.00  0.00    +0.174 C 
BRANCH   7   8
ATOM      8  O   UNL     1      35.553 -18.027 -23.545  0.00  0.00    -0.348 OA
ATOM      9  C   UNL     1      34.747 -19.169 -23.801  0.00  0.00    +0.174 C 
ENDBRANCH   7   8
ENDBRANCH   6   7
ENDBRANCH   5   6
ENDBRANCH   4   5
ENDBRANCH   3   4
ENDBRANCH   2   3
ENDBRANCH   1   2
BRANCH   1  10
ATOM     10  C   UNL     1      32.992 -23.175 -17.650  0.00  0.00    +0.174 C 
BRANCH  10  11
ATOM     11  O   UNL     1      31.707 -22.676 -17.306  0.00  0.00    -0.348 OA
BRANCH  11  12
ATOM     12  C   UNL     1      31.327 -23.079 -15.995  0.00  0.00    +0.174 C 
BRANCH  12  13
ATOM     13  C   UNL     1      29.849 -22.800 -15.802  0.00  0.00    +0.174 C 
BRANCH  13  14
ATOM     14  O   UNL     1      29.280 -22.425 -17.049  0.00  0.00    -0.348 OA
BRANCH  14  15
ATOM     15  C   UNL     1      27.925 -22.845 -17.152  0.00  0.00    +0.174 C 
BRANCH  15  16
ATOM     16  C   UNL     1      27.134 -22.251 -16.002  0.00  0.00    +0.169 C 
BRANCH  16  17
ATOM     17  O   UNL     1      25.835 -21.903 -16.465  0.00  0.00    -0.379 OA
ATOM     18  H   UNL     1      25.790 -22.026 -17.427  0.00  0.00    +0.211 HD
ENDBRANCH  16  17
ENDBRANCH  15  16
ENDBRANCH  14  15
ENDBRANCH  13  14
ENDBRANCH  12  13
ENDBRANCH  11  12
ENDBRANCH  10  11
ENDBRANCH   1  10
TORSDOF 15
ENDMDL
MODEL 5
REMARK VINA RESULT:      -5.6      3.209      4.654
REMARK  Name = 90255
REMARK  15 active torsions:
REMARK  status: ('A' for Active; 'I' for Inactive)
REMARK    1  A    between atoms: C_1  and  O_2
REMARK    2  A    between atoms: C_1  and  C_10
REMARK    3  A    between atoms: O_2  and  C_3
REMARK    4  A    between atoms: C_3  and  C_4
REMARK    5  A    between atoms: C_4  and  O_5
REMARK    6  A    between atoms: O_5  and  C_6
REMARK    7  A    between atoms: C_6  and  C_7
REMARK    8  A    between atoms: C_7  and  O_8
REMARK    9  A    between atoms: C_10  and  O_11
REMARK   10  A    between atoms: O_11  and  C_12
REMARK   11  A    between atoms: C_12  and  C_13
REMARK   12  A    between atoms: C_13  and  O_14
REMARK   13  A    between atoms: O_14  and  C_15
REMARK   14  A    between atoms: C_15  and  C_16
REMARK   15  A    between atoms: C_16  and  O_17
REMARK                            x       y       z     vdW  Elec       q    Type
REMARK                         _______ _______ _______ _____ _____    ______ ____
ROOT
ATOM      1  C   UNL     1      35.962 -22.656 -15.710  0.00  0.00    +0.174 C 
ENDROOT
BRANCH   1   2
ATOM      2  O   UNL     1      35.300 -22.788 -16.962  0.00  0.00    -0.348 OA
BRANCH   2   3
ATOM      3  C   UNL     1      33.982 -23.293 -16.804  0.00  0.00    +0.174 C 
BRANCH   3   4
ATOM      4  C   UNL     1      33.131 -22.832 -17.971  0.00  0.00    +0.174 C 
BRANCH   4   5
ATOM      5  O   UNL     1      31.825 -22.520 -17.501  0.00  0.00    -0.348 OA
BRANCH   5   6
ATOM      6  C   UNL     1      31.556 -23.149 -16.256  0.00  0.00    +0.174 C 
BRANCH   6   7
ATOM      7  C   UNL     1      30.075 -23.026 -15.949  0.00  0.00    +0.174 C 
BRANCH   7   8
ATOM      8  O   UNL     1      29.413 -22.470 -17.078  0.00  0.00    -0.348 OA
ATOM      9  C   UNL     1      28.050 -22.871 -17.130  0.00  0.00    +0.174 C 
ENDBRANCH   7   8
ENDBRANCH   6   7
ENDBRANCH   5   6
ENDBRANCH   4   5
ENDBRANCH   3   4
ENDBRANCH   2   3
ENDBRANCH   1   2
BRANCH   1  10
ATOM     10  C   UNL     1      37.451 -22.505 -15.951  0.00  0.00    +0.174 C 
BRANCH  10  11
ATOM     11  O   UNL     1      38.138 -23.552 -15.279  0.00  0.00    -0.348 OA
BRANCH  11  12
ATOM     12  C   UNL     1      37.295 -24.679 -15.072  0.00  0.00    +0.174 C 
BRANCH  12  13
ATOM     13  C   UNL     1      37.874 -25.532 -13.960  0.00  0.00    +0.174 C 
BRANCH  13  14
ATOM     14  O   UNL     1      37.169 -25.265 -12.755  0.00  0.00    -0.348 OA
BRANCH  14  15
ATOM     15  C   UNL     1      37.910 -24.409 -11.896  0.00  0.00    +0.174 C 
BRANCH  15  16
ATOM     16  C   UNL     1      37.141 -23.116 -11.700  0.00  0.00    +0.169 C 
BRANCH  16  17
ATOM     17  O   UNL     1      38.029 -22.018 -11.876  0.00  0.00    -0.379 OA
ATOM     18  H   UNL     1      38.849 -22.328 -12.291  0.00  0.00    +0.211 HD
ENDBRANCH  16  17
ENDBRANCH  15  16
ENDBRANCH  14  15
ENDBRANCH  13  14
ENDBRANCH  12  13
ENDBRANCH  11  12
ENDBRANCH  10  11
ENDBRANCH   1  10
TORSDOF 15
ENDMDL
MODEL 6
REMARK VINA RESULT:      -5.6      2.557      3.069
REMARK  Name = 90255
REMARK  15 active torsions:
REMARK  status: ('A' for Active; 'I' for Inactive)
REMARK    1  A    between atoms: C_1  and  O_2
REMARK    2  A    between atoms: C_1  and  C_10
REMARK    3  A    between atoms: O_2  and  C_3
REMARK    4  A    between atoms: C_3  and  C_4
REMARK    5  A    between atoms: C_4  and  O_5
REMARK    6  A    between atoms: O_5  and  C_6
REMARK    7  A    between atoms: C_6  and  C_7
REMARK    8  A    between atoms: C_7  and  O_8
REMARK    9  A    between atoms: C_10  and  O_11
REMARK   10  A    between atoms: O_11  and  C_12
REMARK   11  A    between atoms: C_12  and  C_13
REMARK   12  A    between atoms: C_13  and  O_14
REMARK   13  A    between atoms: O_14  and  C_15
REMARK   14  A    between atoms: C_15  and  C_16
REMARK   15  A    between atoms: C_16  and  O_17
REMARK                            x       y       z     vdW  Elec       q    Type
REMARK                         _______ _______ _______ _____ _____    ______ ____
ROOT
ATOM      1  C   UNL     1      36.422 -22.971 -15.626  0.00  0.00    +0.174 C 
ENDROOT
BRANCH   1   2
ATOM      2  O   UNL     1      35.871 -22.738 -16.916  0.00  0.00    -0.348 OA
BRANCH   2   3
ATOM      3  C   UNL     1      36.618 -21.765 -17.633  0.00  0.00    +0.174 C 
BRANCH   3   4
ATOM      4  C   UNL     1      36.078 -21.667 -19.046  0.00  0.00    +0.174 C 
BRANCH   4   5
ATOM      5  O   UNL     1      36.412 -20.394 -19.585  0.00  0.00    -0.348 OA
BRANCH   5   6
ATOM      6  C   UNL     1      35.570 -20.052 -20.676  0.00  0.00    +0.174 C 
BRANCH   6   7
ATOM      7  C   UNL     1      36.046 -18.744 -21.279  0.00  0.00    +0.174 C 
BRANCH   7   8
ATOM      8  O   UNL     1      35.471 -17.664 -20.553  0.00  0.00    -0.348 OA
ATOM      9  C   UNL     1      34.873 -16.713 -21.424  0.00  0.00    +0.174 C 
ENDBRANCH   7   8
ENDBRANCH   6   7
ENDBRANCH   5   6
ENDBRANCH   4   5
ENDBRANCH   3   4
ENDBRANCH   2   3
ENDBRANCH   1   2
BRANCH   1  10
ATOM     10  C   UNL     1      37.904 -23.262 -15.765  0.00  0.00    +0.174 C 
BRANCH  10  11
ATOM     11  O   UNL     1      38.372 -23.863 -14.566  0.00  0.00    -0.348 OA
BRANCH  11  12
ATOM     12  C   UNL     1      38.381 -25.283 -14.665  0.00  0.00    +0.174 C 
BRANCH  12  13
ATOM     13  C   UNL     1      37.482 -25.858 -13.588  0.00  0.00    +0.174 C 
BRANCH  13  14
ATOM     14  O   UNL     1      37.773 -25.222 -12.351  0.00  0.00    -0.348 OA
BRANCH  14  15
ATOM     15  C   UNL     1      36.629 -24.566 -11.820  0.00  0.00    +0.174 C 
BRANCH  15  16
ATOM     16  C   UNL     1      36.972 -23.115 -11.546  0.00  0.00    +0.169 C 
BRANCH  16  17
ATOM     17  O   UNL     1      38.381 -22.945 -11.650  0.00  0.00    -0.379 OA
ATOM     18  H   UNL     1      38.799 -23.804 -11.819  0.00  0.00    +0.211 HD
ENDBRANCH  16  17
ENDBRANCH  15  16
ENDBRANCH  14  15
ENDBRANCH  13  14
ENDBRANCH  12  13
ENDBRANCH  11  12
ENDBRANCH  10  11
ENDBRANCH   1  10
TORSDOF 15
ENDMDL
MODEL 7
REMARK VINA RESULT:      -5.6      2.037      3.014
REMARK  Name = 90255
REMARK  15 active torsions:
REMARK  status: ('A' for Active; 'I' for Inactive)
REMARK    1  A    between atoms: C_1  and  O_2
REMARK    2  A    between atoms: C_1  and  C_10
REMARK    3  A    between atoms: O_2  and  C_3
REMARK    4  A    between atoms: C_3  and  C_4
REMARK    5  A    between atoms: C_4  and  O_5
REMARK    6  A    between atoms: O_5  and  C_6
REMARK    7  A    between atoms: C_6  and  C_7
REMARK    8  A    between atoms: C_7  and  O_8
REMARK    9  A    between atoms: C_10  and  O_11
REMARK   10  A    between atoms: O_11  and  C_12
REMARK   11  A    between atoms: C_12  and  C_13
REMARK   12  A    between atoms: C_13  and  O_14
REMARK   13  A    between atoms: O_14  and  C_15
REMARK   14  A    between atoms: C_15  and  C_16
REMARK   15  A    between atoms: C_16  and  O_17
REMARK                            x       y       z     vdW  Elec       q    Type
REMARK                         _______ _______ _______ _____ _____    ______ ____
ROOT
ATOM      1  C   UNL     1      34.184 -22.134 -19.093  0.00  0.00    +0.174 C 
ENDROOT
BRANCH   1   2
ATOM      2  O   UNL     1      35.559 -22.387 -18.834  0.00  0.00    -0.348 OA
BRANCH   2   3
ATOM      3  C   UNL     1      36.398 -21.498 -19.558  0.00  0.00    +0.174 C 
BRANCH   3   4
ATOM      4  C   UNL     1      35.539 -20.447 -20.235  0.00  0.00    +0.174 C 
BRANCH   4   5
ATOM      5  O   UNL     1      36.282 -19.238 -20.340  0.00  0.00    -0.348 OA
BRANCH   5   6
ATOM      6  C   UNL     1      35.929 -18.509 -21.507  0.00  0.00    +0.174 C 
BRANCH   6   7
ATOM      7  C   UNL     1      34.424 -18.576 -21.695  0.00  0.00    +0.174 C 
BRANCH   7   8
ATOM      8  O   UNL     1      33.840 -17.387 -21.178  0.00  0.00    -0.348 OA
ATOM      9  C   UNL     1      34.800 -16.346 -21.059  0.00  0.00    +0.174 C 
ENDBRANCH   7   8
ENDBRANCH   6   7
ENDBRANCH   5   6
ENDBRANCH   4   5
ENDBRANCH   3   4
ENDBRANCH   2   3
ENDBRANCH   1   2
BRANCH   1  10
ATOM     10  C   UNL     1      33.345 -22.833 -18.041  0.00  0.00    +0.174 C 
BRANCH  10  11
ATOM     11  O   UNL     1      34.198 -23.600 -17.203  0.00  0.00    -0.348 OA
BRANCH  11  12
ATOM     12  C   UNL     1      34.041 -23.245 -15.834  0.00  0.00    +0.174 C 
BRANCH  12  13
ATOM     13  C   UNL     1      34.568 -24.372 -14.967  0.00  0.00    +0.174 C 
BRANCH  13  14
ATOM     14  O   UNL     1      35.530 -25.114 -15.705  0.00  0.00    -0.348 OA
BRANCH  14  15
ATOM     15  C   UNL     1      36.713 -25.332 -14.947  0.00  0.00    +0.174 C 
BRANCH  15  16
ATOM     16  C   UNL     1      37.084 -26.801 -15.019  0.00  0.00    +0.169 C 
BRANCH  16  17
ATOM     17  O   UNL     1      36.814 -27.283 -16.330  0.00  0.00    -0.379 OA
ATOM     18  H   UNL     1      36.388 -26.584 -16.850  0.00  0.00    +0.211 HD
ENDBRANCH  16  17
ENDBRANCH  15  16
ENDBRANCH  14  15
ENDBRANCH  13  14
ENDBRANCH  12  13
ENDBRANCH  11  12
ENDBRANCH  10  11
ENDBRANCH   1  10
TORSDOF 15
ENDMDL
MODEL 8
REMARK VINA RESULT:      -5.5      2.150      4.197
REMARK  Name = 90255
REMARK  15 active torsions:
REMARK  status: ('A' for Active; 'I' for Inactive)
REMARK    1  A    between atoms: C_1  and  O_2
REMARK    2  A    between atoms: C_1  and  C_10
REMARK    3  A    between atoms: O_2  and  C_3
REMARK    4  A    between atoms: C_3  and  C_4
REMARK    5  A    between atoms: C_4  and  O_5
REMARK    6  A    between atoms: O_5  and  C_6
REMARK    7  A    between atoms: C_6  and  C_7
REMARK    8  A    between atoms: C_7  and  O_8
REMARK    9  A    between atoms: C_10  and  O_11
REMARK   10  A    between atoms: O_11  and  C_12
REMARK   11  A    between atoms: C_12  and  C_13
REMARK   12  A    between atoms: C_13  and  O_14
REMARK   13  A    between atoms: O_14  and  C_15
REMARK   14  A    between atoms: C_15  and  C_16
REMARK   15  A    between atoms: C_16  and  O_17
REMARK                            x       y       z     vdW  Elec       q    Type
REMARK                         _______ _______ _______ _____ _____    ______ ____
ROOT
ATOM      1  C   UNL     1      36.409 -21.165 -19.528  0.00  0.00    +0.174 C 
ENDROOT
BRANCH   1   2
ATOM      2  O   UNL     1      36.157 -19.883 -20.088  0.00  0.00    -0.348 OA
BRANCH   2   3
ATOM      3  C   UNL     1      34.907 -19.846 -20.763  0.00  0.00    +0.174 C 
BRANCH   3   4
ATOM      4  C   UNL     1      34.791 -18.537 -21.520  0.00  0.00    +0.174 C 
BRANCH   4   5
ATOM      5  O   UNL     1      34.590 -18.815 -22.901  0.00  0.00    -0.348 OA
BRANCH   5   6
ATOM      6  C   UNL     1      35.104 -17.776 -23.721  0.00  0.00    +0.174 C 
BRANCH   6   7
ATOM      7  C   UNL     1      34.531 -17.918 -25.119  0.00  0.00    +0.174 C 
BRANCH   7   8
ATOM      8  O   UNL     1      34.719 -16.697 -25.823  0.00  0.00    -0.348 OA
ATOM      9  C   UNL     1      33.715 -15.747 -25.492  0.00  0.00    +0.174 C 
ENDBRANCH   7   8
ENDBRANCH   6   7
ENDBRANCH   5   6
ENDBRANCH   4   5
ENDBRANCH   3   4
ENDBRANCH   2   3
ENDBRANCH   1   2
BRANCH   1  10
ATOM     10  C   UNL     1      35.098 -21.916 -19.401  0.00  0.00    +0.174 C 
BRANCH  10  11
ATOM     11  O   UNL     1      35.102 -22.654 -18.186  0.00  0.00    -0.348 OA
BRANCH  11  12
ATOM     12  C   UNL     1      33.780 -22.869 -17.704  0.00  0.00    +0.174 C 
BRANCH  12  13
ATOM     13  C   UNL     1      33.854 -23.529 -16.341  0.00  0.00    +0.174 C 
BRANCH  13  14
ATOM     14  O   UNL     1      35.038 -24.311 -16.267  0.00  0.00    -0.348 OA
BRANCH  14  15
ATOM     15  C   UNL     1      35.214 -24.870 -14.971  0.00  0.00    +0.174 C 
BRANCH  15  16
ATOM     16  C   UNL     1      36.494 -25.683 -14.952  0.00  0.00    +0.169 C 
BRANCH  16  17
ATOM     17  O   UNL     1      36.318 -26.842 -15.759  0.00  0.00    -0.379 OA
ATOM     18  H   UNL     1      36.979 -26.845 -16.469  0.00  0.00    +0.211 HD
ENDBRANCH  16  17
ENDBRANCH  15  16
ENDBRANCH  14  15
ENDBRANCH  13  14
ENDBRANCH  12  13
ENDBRANCH  11  12
ENDBRANCH  10  11
ENDBRANCH   1  10
TORSDOF 15
ENDMDL
MODEL 9
REMARK VINA RESULT:      -5.5      0.939      9.008
REMARK  Name = 90255
REMARK  15 active torsions:
REMARK  status: ('A' for Active; 'I' for Inactive)
REMARK    1  A    between atoms: C_1  and  O_2
REMARK    2  A    between atoms: C_1  and  C_10
REMARK    3  A    between atoms: O_2  and  C_3
REMARK    4  A    between atoms: C_3  and  C_4
REMARK    5  A    between atoms: C_4  and  O_5
REMARK    6  A    between atoms: O_5  and  C_6
REMARK    7  A    between atoms: C_6  and  C_7
REMARK    8  A    between atoms: C_7  and  O_8
REMARK    9  A    between atoms: C_10  and  O_11
REMARK   10  A    between atoms: O_11  and  C_12
REMARK   11  A    between atoms: C_12  and  C_13
REMARK   12  A    between atoms: C_13  and  O_14
REMARK   13  A    between atoms: O_14  and  C_15
REMARK   14  A    between atoms: C_15  and  C_16
REMARK   15  A    between atoms: C_16  and  O_17
REMARK                            x       y       z     vdW  Elec       q    Type
REMARK                         _______ _______ _______ _____ _____    ______ ____
ROOT
ATOM      1  C   UNL     1      33.575 -22.758 -18.425  0.00  0.00    +0.174 C 
ENDROOT
BRANCH   1   2
ATOM      2  O   UNL     1      34.680 -22.867 -17.536  0.00  0.00    -0.348 OA
BRANCH   2   3
ATOM      3  C   UNL     1      34.265 -23.257 -16.235  0.00  0.00    +0.174 C 
BRANCH   3   4
ATOM      4  C   UNL     1      35.489 -23.432 -15.356  0.00  0.00    +0.174 C 
BRANCH   4   5
ATOM      5  O   UNL     1      36.182 -24.610 -15.754  0.00  0.00    -0.348 OA
BRANCH   5   6
ATOM      6  C   UNL     1      36.592 -25.376 -14.631  0.00  0.00    +0.174 C 
BRANCH   6   7
ATOM      7  C   UNL     1      36.992 -26.763 -15.098  0.00  0.00    +0.174 C 
BRANCH   7   8
ATOM      8  O   UNL     1      38.306 -27.047 -14.632  0.00  0.00    -0.348 OA
ATOM      9  C   UNL     1      38.983 -25.863 -14.236  0.00  0.00    +0.174 C 
ENDBRANCH   7   8
ENDBRANCH   6   7
ENDBRANCH   5   6
ENDBRANCH   4   5
ENDBRANCH   3   4
ENDBRANCH   2   3
ENDBRANCH   1   2
BRANCH   1  10
ATOM     10  C   UNL     1      33.860 -21.665 -19.437  0.00  0.00    +0.174 C 
BRANCH  10  11
ATOM     11  O   UNL     1      32.717 -20.828 -19.550  0.00  0.00    -0.348 OA
BRANCH  11  12
ATOM     12  C   UNL     1      32.777 -20.022 -20.722  0.00  0.00    +0.174 C 
BRANCH  12  13
ATOM     13  C   UNL     1      34.207 -19.565 -20.934  0.00  0.00    +0.174 C 
BRANCH  13  14
ATOM     14  O   UNL     1      34.474 -19.507 -22.328  0.00  0.00    -0.348 OA
BRANCH  14  15
ATOM     15  C   UNL     1      35.453 -18.521 -22.631  0.00  0.00    +0.174 C 
BRANCH  15  16
ATOM     16  C   UNL     1      35.050 -17.796 -23.900  0.00  0.00    +0.169 C 
BRANCH  16  17
ATOM     17  O   UNL     1      35.567 -16.471 -23.861  0.00  0.00    -0.379 OA
ATOM     18  H   UNL     1      36.229 -16.361 -24.562  0.00  0.00    +0.211 HD
ENDBRANCH  16  17
ENDBRANCH  15  16
ENDBRANCH  14  15
ENDBRANCH  13  14
ENDBRANCH  12  13
ENDBRANCH  11  12
ENDBRANCH  10  11
ENDBRANCH   1  10
TORSDOF 15
ENDMDL
