MODEL 1
REMARK VINA RESULT:     -10.5      0.000      0.000
REMARK  Name = 60206636
REMARK  8 active torsions:
REMARK  status: ('A' for Active; 'I' for Inactive)
REMARK    1  A    between atoms: C_4  and  C_20
REMARK    2  A    between atoms: C_5  and  C_10
REMARK    3  A    between atoms: C_15  and  S_16
REMARK    4  A    between atoms: C_20  and  C_21
REMARK    5  A    between atoms: C_20  and  C_25
REMARK    6  A    between atoms: C_21  and  C_22
REMARK    7  A    between atoms: C_25  and  C_29
REMARK    8  A    between atoms: C_25  and  N_34
REMARK                            x       y       z     vdW  Elec       q    Type
REMARK                         _______ _______ _______ _____ _____    ______ ____
ROOT
ATOM      1  O   UNL     1      33.876 -22.778 -16.100  0.00  0.00    -0.311 OA
ATOM      2  N   UNL     1      32.399 -23.147 -17.902  0.00  0.00    +0.417 N 
ATOM      3  N   UNL     1      34.658 -23.294 -17.228  0.00  0.00    -0.209 NA
ATOM      4  C   UNL     1      32.546 -22.561 -16.575  0.00  0.00    +0.083 C 
ATOM      5  C   UNL     1      33.776 -23.156 -18.393  0.00  0.00    +0.051 C 
ATOM      6  H   UNL     1      31.799 -22.573 -18.495  0.00  0.00    -0.078 HD
ATOM      7  H   UNL     1      31.961 -24.068 -17.896  0.00  0.00    -0.078 HD
ATOM      8  H   UNL     1      34.904 -24.272 -17.078  0.00  0.00    +0.152 HD
ENDROOT
BRANCH   5  10
ATOM      9  F   UNL     1      36.409 -22.207 -18.893  0.00  0.00    -0.204 F 
ATOM     10  C   UNL     1      34.077 -21.945 -19.262  0.00  0.00    +0.002 C 
ATOM     11  C   UNL     1      35.396 -21.537 -19.463  0.00  0.00    +0.137 C 
ATOM     12  C   UNL     1      33.032 -21.241 -19.859  0.00  0.00    -0.001 C 
ATOM     13  C   UNL     1      35.669 -20.425 -20.261  0.00  0.00    +0.048 C 
ATOM     14  C   UNL     1      33.305 -20.130 -20.657  0.00  0.00    +0.018 C 
ATOM     15  C   UNL     1      34.623 -19.722 -20.857  0.00  0.00    +0.108 C 
BRANCH  15  16
ATOM     16  S   UNL     1      34.965 -18.331 -21.856  0.00  0.00    +0.011 S 
ATOM     17  O   UNL     1      34.050 -17.256 -21.497  0.00  0.00    -0.169 OA
ATOM     18  O   UNL     1      36.402 -18.098 -21.823  0.00  0.00    -0.169 OA
ATOM     19  C   UNL     1      34.533 -18.851 -23.501  0.00  0.00    +0.182 C 
ENDBRANCH  15  16
ENDBRANCH   5  10
BRANCH   4  20
ATOM     20  C   UNL     1      31.562 -23.162 -15.582  0.00  0.00    -0.002 C 
BRANCH  20  21
ATOM     21  C   UNL     1      30.268 -23.625 -16.287  0.00  0.00    -0.001 C 
BRANCH  21  22
ATOM     22  C   UNL     1      29.226 -22.549 -16.385  0.00  0.00    -0.000 C 
ATOM     23  C   UNL     1      27.959 -22.821 -17.140  0.00  0.00    -0.000 C 
ATOM     24  C   UNL     1      27.932 -22.711 -15.643  0.00  0.00    -0.000 C 
ENDBRANCH  21  22
ENDBRANCH  20  21
BRANCH  20  25
ATOM     25  C   UNL     1      32.161 -24.327 -14.759  0.00  0.00    +0.013 C 
BRANCH  25  29
ATOM     26  F   UNL     1      36.955 -23.949 -14.268  0.00  0.00    -0.235 F 
ATOM     27  O   UNL     1      32.248 -23.133 -12.700  0.00  0.00    -0.277 OA
ATOM     28  N   UNL     1      34.156 -24.267 -13.344  0.00  0.00    -0.278 N 
ATOM     29  C   UNL     1      32.847 -23.850 -13.503  0.00  0.00    +0.205 C 
ATOM     30  C   UNL     1      34.921 -25.110 -14.260  0.00  0.00    +0.128 C 
ATOM     31  C   UNL     1      34.956 -23.886 -12.188  0.00  0.00    +0.096 C 
ATOM     32  C   UNL     1      36.344 -25.040 -13.731  0.00  0.00    +0.182 C 
ATOM     33  C   UNL     1      36.162 -24.812 -12.239  0.00  0.00    +0.059 C 
ENDBRANCH  25  29
BRANCH  25  34
ATOM     34  N   UNL     1      31.145 -25.286 -14.338  0.00  0.00    +0.387 N 
ATOM     35  H   UNL     1      30.565 -25.539 -15.138  0.00  0.00    -0.089 HD
ATOM     36  H   UNL     1      30.561 -24.868 -13.614  0.00  0.00    -0.089 HD
ATOM     37  H   UNL     1      31.597 -26.122 -13.969  0.00  0.00    -0.089 HD
ENDBRANCH  25  34
ENDBRANCH  20  25
ENDBRANCH   4  20
TORSDOF 8
ENDMDL
MODEL 2
REMARK VINA RESULT:      -9.6      5.763     10.965
REMARK  Name = 60206636
REMARK  8 active torsions:
REMARK  status: ('A' for Active; 'I' for Inactive)
REMARK    1  A    between atoms: C_4  and  C_20
REMARK    2  A    between atoms: C_5  and  C_10
REMARK    3  A    between atoms: C_15  and  S_16
REMARK    4  A    between atoms: C_20  and  C_21
REMARK    5  A    between atoms: C_20  and  C_25
REMARK    6  A    between atoms: C_21  and  C_22
REMARK    7  A    between atoms: C_25  and  C_29
REMARK    8  A    between atoms: C_25  and  N_34
REMARK                            x       y       z     vdW  Elec       q    Type
REMARK                         _______ _______ _______ _____ _____    ______ ____
ROOT
ATOM      1  O   UNL     1      34.902 -17.655 -23.828  0.00  0.00    -0.311 OA
ATOM      2  N   UNL     1      35.548 -16.987 -21.660  0.00  0.00    +0.417 N 
ATOM      3  N   UNL     1      36.019 -18.505 -23.407  0.00  0.00    -0.209 NA
ATOM      4  C   UNL     1      34.542 -16.848 -22.706  0.00  0.00    +0.083 C 
ATOM      5  C   UNL     1      36.128 -18.296 -21.959  0.00  0.00    +0.051 C 
ATOM      6  H   UNL     1      35.122 -16.975 -20.733  0.00  0.00    -0.078 HD
ATOM      7  H   UNL     1      36.232 -16.230 -21.647  0.00  0.00    -0.078 HD
ATOM      8  H   UNL     1      36.881 -18.225 -23.876  0.00  0.00    +0.152 HD
ENDROOT
BRANCH   5  10
ATOM      9  F   UNL     1      37.648 -20.163 -20.447  0.00  0.00    -0.204 F 
ATOM     10  C   UNL     1      35.502 -19.399 -21.121  0.00  0.00    +0.002 C 
ATOM     11  C   UNL     1      36.312 -20.280 -20.404  0.00  0.00    +0.137 C 
ATOM     12  C   UNL     1      34.115 -19.531 -21.069  0.00  0.00    -0.001 C 
ATOM     13  C   UNL     1      35.735 -21.292 -19.636  0.00  0.00    +0.048 C 
ATOM     14  C   UNL     1      33.538 -20.542 -20.302  0.00  0.00    +0.018 C 
ATOM     15  C   UNL     1      34.348 -21.422 -19.585  0.00  0.00    +0.108 C 
BRANCH  15  16
ATOM     16  S   UNL     1      33.625 -22.689 -18.624  0.00  0.00    +0.011 S 
ATOM     17  O   UNL     1      32.280 -22.281 -18.241  0.00  0.00    -0.169 OA
ATOM     18  O   UNL     1      33.827 -23.951 -19.321  0.00  0.00    -0.169 OA
ATOM     19  C   UNL     1      34.599 -22.724 -17.135  0.00  0.00    +0.182 C 
ENDBRANCH  15  16
ENDBRANCH   5  10
BRANCH   4  20
ATOM     20  C   UNL     1      34.399 -15.403 -23.161  0.00  0.00    -0.002 C 
BRANCH  20  21
ATOM     21  C   UNL     1      33.228 -15.241 -24.154  0.00  0.00    -0.001 C 
BRANCH  21  22
ATOM     22  C   UNL     1      33.674 -15.024 -25.570  0.00  0.00    -0.000 C 
ATOM     23  C   UNL     1      32.728 -15.330 -26.693  0.00  0.00    -0.000 C 
ATOM     24  C   UNL     1      33.068 -13.905 -26.367  0.00  0.00    -0.000 C 
ENDBRANCH  21  22
ENDBRANCH  20  21
BRANCH  20  25
ATOM     25  C   UNL     1      34.239 -14.408 -21.986  0.00  0.00    +0.013 C 
BRANCH  25  29
ATOM     26  F   UNL     1      33.166 -10.958 -25.197  0.00  0.00    -0.235 F 
ATOM     27  O   UNL     1      31.907 -14.187 -21.554  0.00  0.00    -0.277 OA
ATOM     28  N   UNL     1      32.952 -12.431 -22.632  0.00  0.00    -0.278 N 
ATOM     29  C   UNL     1      32.922 -13.675 -22.030  0.00  0.00    +0.205 C 
ATOM     30  C   UNL     1      34.118 -11.772 -23.218  0.00  0.00    +0.128 C 
ATOM     31  C   UNL     1      31.762 -11.601 -22.759  0.00  0.00    +0.096 C 
ATOM     32  C   UNL     1      33.541 -10.570 -23.947  0.00  0.00    +0.182 C 
ATOM     33  C   UNL     1      32.294 -10.229 -23.147  0.00  0.00    +0.059 C 
ENDBRANCH  25  29
BRANCH  25  34
ATOM     34  N   UNL     1      34.301 -15.072 -20.688  0.00  0.00    +0.387 N 
ATOM     35  H   UNL     1      33.990 -14.426 -19.962  0.00  0.00    -0.089 HD
ATOM     36  H   UNL     1      35.261 -15.360 -20.499  0.00  0.00    -0.089 HD
ATOM     37  H   UNL     1      33.696 -15.892 -20.695  0.00  0.00    -0.089 HD
ENDBRANCH  25  34
ENDBRANCH  20  25
ENDBRANCH   4  20
TORSDOF 8
ENDMDL
MODEL 3
REMARK VINA RESULT:      -9.6      1.818      2.431
REMARK  Name = 60206636
REMARK  8 active torsions:
REMARK  status: ('A' for Active; 'I' for Inactive)
REMARK    1  A    between atoms: C_4  and  C_20
REMARK    2  A    between atoms: C_5  and  C_10
REMARK    3  A    between atoms: C_15  and  S_16
REMARK    4  A    between atoms: C_20  and  C_21
REMARK    5  A    between atoms: C_20  and  C_25
REMARK    6  A    between atoms: C_21  and  C_22
REMARK    7  A    between atoms: C_25  and  C_29
REMARK    8  A    between atoms: C_25  and  N_34
REMARK                            x       y       z     vdW  Elec       q    Type
REMARK                         _______ _______ _______ _____ _____    ______ ____
ROOT
ATOM      1  O   UNL     1      34.803 -23.779 -17.601  0.00  0.00    -0.311 OA
ATOM      2  N   UNL     1      32.953 -22.322 -17.472  0.00  0.00    +0.417 N 
ATOM      3  N   UNL     1      34.098 -23.829 -18.885  0.00  0.00    -0.209 NA
ATOM      4  C   UNL     1      34.182 -22.759 -16.820  0.00  0.00    +0.083 C 
ATOM      5  C   UNL     1      33.206 -22.664 -18.872  0.00  0.00    +0.051 C 
ATOM      6  H   UNL     1      32.810 -21.319 -17.358  0.00  0.00    -0.078 HD
ATOM      7  H   UNL     1      32.112 -22.755 -17.092  0.00  0.00    -0.078 HD
ATOM      8  H   UNL     1      33.560 -24.692 -18.967  0.00  0.00    +0.152 HD
ENDROOT
BRANCH   5  10
ATOM      9  F   UNL     1      35.956 -22.258 -19.463  0.00  0.00    -0.204 F 
ATOM     10  C   UNL     1      33.723 -21.473 -19.663  0.00  0.00    +0.002 C 
ATOM     11  C   UNL     1      35.089 -21.340 -19.915  0.00  0.00    +0.137 C 
ATOM     12  C   UNL     1      32.830 -20.513 -20.137  0.00  0.00    -0.001 C 
ATOM     13  C   UNL     1      35.561 -20.246 -20.641  0.00  0.00    +0.048 C 
ATOM     14  C   UNL     1      33.302 -19.419 -20.863  0.00  0.00    +0.018 C 
ATOM     15  C   UNL     1      34.667 -19.286 -21.115  0.00  0.00    +0.108 C 
BRANCH  15  16
ATOM     16  S   UNL     1      35.258 -17.917 -22.024  0.00  0.00    +0.011 S 
ATOM     17  O   UNL     1      36.709 -18.008 -22.124  0.00  0.00    -0.169 OA
ATOM     18  O   UNL     1      34.456 -17.802 -23.233  0.00  0.00    -0.169 OA
ATOM     19  C   UNL     1      34.898 -16.513 -20.993  0.00  0.00    +0.182 C 
ENDBRANCH  15  16
ENDBRANCH   5  10
BRANCH   4  20
ATOM     20  C   UNL     1      33.915 -23.298 -15.422  0.00  0.00    -0.002 C 
BRANCH  20  21
ATOM     21  C   UNL     1      32.448 -23.756 -15.268  0.00  0.00    -0.001 C 
BRANCH  21  22
ATOM     22  C   UNL     1      31.666 -22.930 -14.291  0.00  0.00    -0.000 C 
ATOM     23  C   UNL     1      30.168 -22.922 -14.370  0.00  0.00    -0.000 C 
ATOM     24  C   UNL     1      30.855 -23.618 -13.232  0.00  0.00    -0.000 C 
ENDBRANCH  21  22
ENDBRANCH  20  21
BRANCH  20  25
ATOM     25  C   UNL     1      34.873 -24.444 -15.019  0.00  0.00    +0.013 C 
BRANCH  25  29
ATOM     26  F   UNL     1      39.690 -24.525 -15.409  0.00  0.00    -0.235 F 
ATOM     27  O   UNL     1      35.443 -23.278 -13.022  0.00  0.00    -0.277 OA
ATOM     28  N   UNL     1      37.087 -24.582 -13.989  0.00  0.00    -0.278 N 
ATOM     29  C   UNL     1      35.817 -24.043 -13.913  0.00  0.00    +0.205 C 
ATOM     30  C   UNL     1      37.591 -25.488 -15.019  0.00  0.00    +0.128 C 
ATOM     31  C   UNL     1      38.116 -24.287 -13.002  0.00  0.00    +0.096 C 
ATOM     32  C   UNL     1      39.086 -25.557 -14.758  0.00  0.00    +0.182 C 
ATOM     33  C   UNL     1      39.201 -25.323 -13.260  0.00  0.00    +0.059 C 
ENDBRANCH  25  29
BRANCH  25  34
ATOM     34  N   UNL     1      34.154 -25.623 -14.543  0.00  0.00    +0.387 N 
ATOM     35  H   UNL     1      33.792 -25.444 -13.607  0.00  0.00    -0.089 HD
ATOM     36  H   UNL     1      34.789 -26.420 -14.516  0.00  0.00    -0.089 HD
ATOM     37  H   UNL     1      33.380 -25.826 -15.174  0.00  0.00    -0.089 HD
ENDBRANCH  25  34
ENDBRANCH  20  25
ENDBRANCH   4  20
TORSDOF 8
ENDMDL
MODEL 4
REMARK VINA RESULT:      -9.4      6.007     10.844
REMARK  Name = 60206636
REMARK  8 active torsions:
REMARK  status: ('A' for Active; 'I' for Inactive)
REMARK    1  A    between atoms: C_4  and  C_20
REMARK    2  A    between atoms: C_5  and  C_10
REMARK    3  A    between atoms: C_15  and  S_16
REMARK    4  A    between atoms: C_20  and  C_21
REMARK    5  A    between atoms: C_20  and  C_25
REMARK    6  A    between atoms: C_21  and  C_22
REMARK    7  A    between atoms: C_25  and  C_29
REMARK    8  A    between atoms: C_25  and  N_34
REMARK                            x       y       z     vdW  Elec       q    Type
REMARK                         _______ _______ _______ _____ _____    ______ ____
ROOT
ATOM      1  O   UNL     1      34.553 -17.233 -23.969  0.00  0.00    -0.311 OA
ATOM      2  N   UNL     1      35.199 -16.587 -21.794  0.00  0.00    +0.417 N 
ATOM      3  N   UNL     1      35.735 -18.017 -23.596  0.00  0.00    -0.209 NA
ATOM      4  C   UNL     1      34.163 -16.486 -22.816  0.00  0.00    +0.083 C 
ATOM      5  C   UNL     1      35.860 -17.843 -22.145  0.00  0.00    +0.051 C 
ATOM      6  H   UNL     1      34.794 -16.631 -20.860  0.00  0.00    -0.078 HD
ATOM      7  H   UNL     1      35.830 -15.786 -21.772  0.00  0.00    -0.078 HD
ATOM      8  H   UNL     1      36.564 -17.665 -24.073  0.00  0.00    +0.152 HD
ENDROOT
BRANCH   5  10
ATOM      9  F   UNL     1      37.528 -19.584 -20.639  0.00  0.00    -0.204 F 
ATOM     10  C   UNL     1      35.329 -19.011 -21.329  0.00  0.00    +0.002 C 
ATOM     11  C   UNL     1      36.209 -19.824 -20.613  0.00  0.00    +0.137 C 
ATOM     12  C   UNL     1      33.959 -19.270 -21.296  0.00  0.00    -0.001 C 
ATOM     13  C   UNL     1      35.719 -20.895 -19.866  0.00  0.00    +0.048 C 
ATOM     14  C   UNL     1      33.469 -20.341 -20.549  0.00  0.00    +0.018 C 
ATOM     15  C   UNL     1      34.349 -21.153 -19.834  0.00  0.00    +0.108 C 
BRANCH  15  16
ATOM     16  S   UNL     1      33.735 -22.494 -18.898  0.00  0.00    +0.011 S 
ATOM     17  O   UNL     1      32.392 -22.170 -18.435  0.00  0.00    -0.169 OA
ATOM     18  O   UNL     1      33.962 -23.714 -19.660  0.00  0.00    -0.169 OA
ATOM     19  C   UNL     1      34.781 -22.545 -17.460  0.00  0.00    +0.182 C 
ENDBRANCH  15  16
ENDBRANCH   5  10
BRANCH   4  20
ATOM     20  C   UNL     1      33.913 -15.042 -23.223  0.00  0.00    -0.002 C 
BRANCH  20  21
ATOM     21  C   UNL     1      32.905 -14.955 -24.390  0.00  0.00    -0.001 C 
BRANCH  21  22
ATOM     22  C   UNL     1      33.559 -14.908 -25.739  0.00  0.00    -0.000 C 
ATOM     23  C   UNL     1      32.751 -15.239 -26.959  0.00  0.00    -0.000 C 
ATOM     24  C   UNL     1      33.176 -13.823 -26.703  0.00  0.00    -0.000 C 
ENDBRANCH  21  22
ENDBRANCH  20  21
BRANCH  20  25
ATOM     25  C   UNL     1      33.441 -14.151 -22.048  0.00  0.00    +0.013 C 
BRANCH  25  29
ATOM     26  F   UNL     1      32.391 -10.508 -19.051  0.00  0.00    -0.235 F 
ATOM     27  O   UNL     1      33.307 -12.375 -23.629  0.00  0.00    -0.277 OA
ATOM     28  N   UNL     1      32.284 -12.047 -21.583  0.00  0.00    -0.278 N 
ATOM     29  C   UNL     1      33.009 -12.780 -22.504  0.00  0.00    +0.205 C 
ATOM     30  C   UNL     1      31.905 -12.468 -20.236  0.00  0.00    +0.128 C 
ATOM     31  C   UNL     1      31.800 -10.704 -21.868  0.00  0.00    +0.096 C 
ATOM     32  C   UNL     1      31.356 -11.207 -19.591  0.00  0.00    +0.182 C 
ATOM     33  C   UNL     1      30.793 -10.419 -20.764  0.00  0.00    +0.059 C 
ENDBRANCH  25  29
BRANCH  25  34
ATOM     34  N   UNL     1      32.305 -14.730 -21.338  0.00  0.00    +0.387 N 
ATOM     35  H   UNL     1      32.491 -14.720 -20.335  0.00  0.00    -0.089 HD
ATOM     36  H   UNL     1      32.162 -15.690 -21.649  0.00  0.00    -0.089 HD
ATOM     37  H   UNL     1      31.467 -14.182 -21.533  0.00  0.00    -0.089 HD
ENDBRANCH  25  34
ENDBRANCH  20  25
ENDBRANCH   4  20
TORSDOF 8
ENDMDL
MODEL 5
REMARK VINA RESULT:      -9.4      2.158      4.742
REMARK  Name = 60206636
REMARK  8 active torsions:
REMARK  status: ('A' for Active; 'I' for Inactive)
REMARK    1  A    between atoms: C_4  and  C_20
REMARK    2  A    between atoms: C_5  and  C_10
REMARK    3  A    between atoms: C_15  and  S_16
REMARK    4  A    between atoms: C_20  and  C_21
REMARK    5  A    between atoms: C_20  and  C_25
REMARK    6  A    between atoms: C_21  and  C_22
REMARK    7  A    between atoms: C_25  and  C_29
REMARK    8  A    between atoms: C_25  and  N_34
REMARK                            x       y       z     vdW  Elec       q    Type
REMARK                         _______ _______ _______ _____ _____    ______ ____
ROOT
ATOM      1  O   UNL     1      34.544 -24.316 -17.445  0.00  0.00    -0.311 OA
ATOM      2  N   UNL     1      33.064 -22.502 -17.161  0.00  0.00    +0.417 N 
ATOM      3  N   UNL     1      33.784 -24.153 -18.688  0.00  0.00    -0.209 NA
ATOM      4  C   UNL     1      34.198 -23.223 -16.595  0.00  0.00    +0.083 C 
ATOM      5  C   UNL     1      33.169 -22.825 -18.583  0.00  0.00    +0.051 C 
ATOM      6  H   UNL     1      33.149 -21.498 -17.003  0.00  0.00    -0.078 HD
ATOM      7  H   UNL     1      32.168 -22.760 -16.748  0.00  0.00    -0.078 HD
ATOM      8  H   UNL     1      33.068 -24.875 -18.769  0.00  0.00    +0.152 HD
ENDROOT
BRANCH   5  10
ATOM      9  F   UNL     1      31.885 -20.493 -19.579  0.00  0.00    -0.204 F 
ATOM     10  C   UNL     1      33.895 -21.739 -19.361  0.00  0.00    +0.002 C 
ATOM     11  C   UNL     1      33.199 -20.620 -19.819  0.00  0.00    +0.137 C 
ATOM     12  C   UNL     1      35.261 -21.862 -19.617  0.00  0.00    -0.001 C 
ATOM     13  C   UNL     1      33.867 -19.626 -20.532  0.00  0.00    +0.048 C 
ATOM     14  C   UNL     1      35.929 -20.867 -20.330  0.00  0.00    +0.018 C 
ATOM     15  C   UNL     1      35.233 -19.749 -20.787  0.00  0.00    +0.108 C 
BRANCH  15  16
ATOM     16  S   UNL     1      36.070 -18.504 -21.680  0.00  0.00    +0.011 S 
ATOM     17  O   UNL     1      35.588 -17.202 -21.238  0.00  0.00    -0.169 OA
ATOM     18  O   UNL     1      37.494 -18.801 -21.636  0.00  0.00    -0.169 OA
ATOM     19  C   UNL     1      35.519 -18.717 -23.358  0.00  0.00    +0.182 C 
ENDBRANCH  15  16
ENDBRANCH   5  10
BRANCH   4  20
ATOM     20  C   UNL     1      33.888 -23.756 -15.204  0.00  0.00    -0.002 C 
BRANCH  20  21
ATOM     21  C   UNL     1      35.031 -23.441 -14.214  0.00  0.00    -0.001 C 
BRANCH  21  22
ATOM     22  C   UNL     1      35.960 -24.598 -13.990  0.00  0.00    -0.000 C 
ATOM     23  C   UNL     1      37.164 -24.755 -14.871  0.00  0.00    -0.000 C 
ATOM     24  C   UNL     1      37.332 -24.341 -13.438  0.00  0.00    -0.000 C 
ENDBRANCH  21  22
ENDBRANCH  20  21
BRANCH  20  25
ATOM     25  C   UNL     1      32.543 -23.240 -14.640  0.00  0.00    +0.013 C 
BRANCH  25  29
ATOM     26  F   UNL     1      28.772 -23.074 -17.659  0.00  0.00    -0.235 F 
ATOM     27  O   UNL     1      31.676 -25.432 -14.300  0.00  0.00    -0.277 OA
ATOM     28  N   UNL     1      30.247 -23.862 -15.210  0.00  0.00    -0.278 N 
ATOM     29  C   UNL     1      31.457 -24.286 -14.694  0.00  0.00    +0.205 C 
ATOM     30  C   UNL     1      29.927 -22.522 -15.698  0.00  0.00    +0.128 C 
ATOM     31  C   UNL     1      29.102 -24.753 -15.336  0.00  0.00    +0.096 C 
ATOM     32  C   UNL     1      28.574 -22.682 -16.370  0.00  0.00    +0.182 C 
ATOM     33  C   UNL     1      27.925 -23.826 -15.607  0.00  0.00    +0.059 C 
ENDBRANCH  25  29
BRANCH  25  34
ATOM     34  N   UNL     1      32.651 -22.827 -13.244  0.00  0.00    +0.387 N 
ATOM     35  H   UNL     1      32.134 -21.959 -13.106  0.00  0.00    -0.089 HD
ATOM     36  H   UNL     1      33.632 -22.680 -13.008  0.00  0.00    -0.089 HD
ATOM     37  H   UNL     1      32.262 -23.553 -12.643  0.00  0.00    -0.089 HD
ENDBRANCH  25  34
ENDBRANCH  20  25
ENDBRANCH   4  20
TORSDOF 8
ENDMDL
MODEL 6
REMARK VINA RESULT:      -9.3      4.599      9.893
REMARK  Name = 60206636
REMARK  8 active torsions:
REMARK  status: ('A' for Active; 'I' for Inactive)
REMARK    1  A    between atoms: C_4  and  C_20
REMARK    2  A    between atoms: C_5  and  C_10
REMARK    3  A    between atoms: C_15  and  S_16
REMARK    4  A    between atoms: C_20  and  C_21
REMARK    5  A    between atoms: C_20  and  C_25
REMARK    6  A    between atoms: C_21  and  C_22
REMARK    7  A    between atoms: C_25  and  C_29
REMARK    8  A    between atoms: C_25  and  N_34
REMARK                            x       y       z     vdW  Elec       q    Type
REMARK                         _______ _______ _______ _____ _____    ______ ____
ROOT
ATOM      1  O   UNL     1      33.485 -18.748 -20.814  0.00  0.00    -0.311 OA
ATOM      2  N   UNL     1      35.656 -19.530 -21.303  0.00  0.00    +0.417 N 
ATOM      3  N   UNL     1      33.407 -20.197 -21.024  0.00  0.00    -0.209 NA
ATOM      4  C   UNL     1      34.867 -18.393 -20.843  0.00  0.00    +0.083 C 
ATOM      5  C   UNL     1      34.797 -20.663 -20.959  0.00  0.00    +0.051 C 
ATOM      6  H   UNL     1      36.549 -19.583 -20.814  0.00  0.00    -0.078 HD
ATOM      7  H   UNL     1      35.898 -19.487 -22.293  0.00  0.00    -0.078 HD
ATOM      8  H   UNL     1      33.000 -20.407 -21.936  0.00  0.00    +0.152 HD
ENDROOT
BRANCH   5  10
ATOM      9  F   UNL     1      33.039 -22.284 -19.423  0.00  0.00    -0.204 F 
ATOM     10  C   UNL     1      35.184 -21.286 -19.627  0.00  0.00    +0.002 C 
ATOM     11  C   UNL     1      34.267 -22.071 -18.928  0.00  0.00    +0.137 C 
ATOM     12  C   UNL     1      36.458 -21.070 -19.103  0.00  0.00    -0.001 C 
ATOM     13  C   UNL     1      34.624 -22.640 -17.706  0.00  0.00    +0.048 C 
ATOM     14  C   UNL     1      36.816 -21.639 -17.881  0.00  0.00    +0.018 C 
ATOM     15  C   UNL     1      35.899 -22.424 -17.183  0.00  0.00    +0.108 C 
BRANCH  15  16
ATOM     16  S   UNL     1      36.346 -23.137 -15.652  0.00  0.00    +0.011 S 
ATOM     17  O   UNL     1      36.432 -24.583 -15.813  0.00  0.00    -0.169 OA
ATOM     18  O   UNL     1      37.488 -22.399 -15.130  0.00  0.00    -0.169 OA
ATOM     19  C   UNL     1      34.956 -22.816 -14.591  0.00  0.00    +0.182 C 
ENDBRANCH  15  16
ENDBRANCH   5  10
BRANCH   4  20
ATOM     20  C   UNL     1      35.049 -17.182 -21.745  0.00  0.00    -0.002 C 
BRANCH  20  21
ATOM     21  C   UNL     1      34.174 -17.291 -23.014  0.00  0.00    -0.001 C 
BRANCH  21  22
ATOM     22  C   UNL     1      34.929 -17.774 -24.217  0.00  0.00    -0.000 C 
ATOM     23  C   UNL     1      34.623 -19.131 -24.780  0.00  0.00    -0.000 C 
ATOM     24  C   UNL     1      34.213 -17.898 -25.531  0.00  0.00    -0.000 C 
ENDBRANCH  21  22
ENDBRANCH  20  21
BRANCH  20  25
ATOM     25  C   UNL     1      34.772 -15.840 -21.026  0.00  0.00    +0.013 C 
BRANCH  25  29
ATOM     26  F   UNL     1      33.586 -13.558 -25.119  0.00  0.00    -0.235 F 
ATOM     27  O   UNL     1      32.407 -15.772 -20.761  0.00  0.00    -0.277 OA
ATOM     28  N   UNL     1      33.345 -14.277 -22.252  0.00  0.00    -0.278 N 
ATOM     29  C   UNL     1      33.396 -15.301 -21.324  0.00  0.00    +0.205 C 
ATOM     30  C   UNL     1      34.477 -13.680 -22.957  0.00  0.00    +0.128 C 
ATOM     31  C   UNL     1      32.091 -13.654 -22.653  0.00  0.00    +0.096 C 
ATOM     32  C   UNL     1      33.837 -12.800 -24.016  0.00  0.00    +0.182 C 
ATOM     33  C   UNL     1      32.511 -12.392 -23.392  0.00  0.00    +0.059 C 
ENDBRANCH  25  29
BRANCH  25  34
ATOM     34  N   UNL     1      34.865 -15.961 -19.575  0.00  0.00    +0.387 N 
ATOM     35  H   UNL     1      33.976 -16.296 -19.205  0.00  0.00    -0.089 HD
ATOM     36  H   UNL     1      35.082 -15.051 -19.170  0.00  0.00    -0.089 HD
ATOM     37  H   UNL     1      35.603 -16.624 -19.335  0.00  0.00    -0.089 HD
ENDBRANCH  25  34
ENDBRANCH  20  25
ENDBRANCH   4  20
TORSDOF 8
ENDMDL
MODEL 7
REMARK VINA RESULT:      -9.0      2.247      4.772
REMARK  Name = 60206636
REMARK  8 active torsions:
REMARK  status: ('A' for Active; 'I' for Inactive)
REMARK    1  A    between atoms: C_4  and  C_20
REMARK    2  A    between atoms: C_5  and  C_10
REMARK    3  A    between atoms: C_15  and  S_16
REMARK    4  A    between atoms: C_20  and  C_21
REMARK    5  A    between atoms: C_20  and  C_25
REMARK    6  A    between atoms: C_21  and  C_22
REMARK    7  A    between atoms: C_25  and  C_29
REMARK    8  A    between atoms: C_25  and  N_34
REMARK                            x       y       z     vdW  Elec       q    Type
REMARK                         _______ _______ _______ _____ _____    ______ ____
ROOT
ATOM      1  O   UNL     1      35.250 -22.859 -18.030  0.00  0.00    -0.311 OA
ATOM      2  N   UNL     1      32.971 -22.419 -18.456  0.00  0.00    +0.417 N 
ATOM      3  N   UNL     1      35.040 -22.922 -19.480  0.00  0.00    -0.209 NA
ATOM      4  C   UNL     1      34.025 -22.413 -17.447  0.00  0.00    +0.083 C 
ATOM      5  C   UNL     1      33.732 -22.295 -19.699  0.00  0.00    +0.051 C 
ATOM      6  H   UNL     1      32.336 -21.631 -18.331  0.00  0.00    -0.078 HD
ATOM      7  H   UNL     1      32.377 -23.246 -18.421  0.00  0.00    -0.078 HD
ATOM      8  H   UNL     1      35.033 -23.890 -19.801  0.00  0.00    +0.152 HD
ENDROOT
BRANCH   5  10
ATOM      9  F   UNL     1      36.163 -21.004 -20.409  0.00  0.00    -0.204 F 
ATOM     10  C   UNL     1      33.804 -20.854 -20.179  0.00  0.00    +0.002 C 
ATOM     11  C   UNL     1      35.035 -20.286 -20.511  0.00  0.00    +0.137 C 
ATOM     12  C   UNL     1      32.637 -20.098 -20.288  0.00  0.00    -0.001 C 
ATOM     13  C   UNL     1      35.098 -18.964 -20.951  0.00  0.00    +0.048 C 
ATOM     14  C   UNL     1      32.700 -18.776 -20.728  0.00  0.00    +0.018 C 
ATOM     15  C   UNL     1      33.930 -18.209 -21.059  0.00  0.00    +0.108 C 
BRANCH  15  16
ATOM     16  S   UNL     1      34.009 -16.554 -21.610  0.00  0.00    +0.011 S 
ATOM     17  O   UNL     1      34.899 -16.482 -22.761  0.00  0.00    -0.169 OA
ATOM     18  O   UNL     1      32.647 -16.051 -21.717  0.00  0.00    -0.169 OA
ATOM     19  C   UNL     1      34.810 -15.684 -20.282  0.00  0.00    +0.182 C 
ENDBRANCH  15  16
ENDBRANCH   5  10
BRANCH   4  20
ATOM     20  C   UNL     1      33.680 -23.312 -16.269  0.00  0.00    -0.002 C 
BRANCH  20  21
ATOM     21  C   UNL     1      34.870 -23.438 -15.293  0.00  0.00    -0.001 C 
BRANCH  21  22
ATOM     22  C   UNL     1      35.275 -24.858 -15.028  0.00  0.00    -0.000 C 
ATOM     23  C   UNL     1      36.729 -25.226 -15.066  0.00  0.00    -0.000 C 
ATOM     24  C   UNL     1      35.999 -25.190 -13.755  0.00  0.00    -0.000 C 
ENDBRANCH  21  22
ENDBRANCH  20  21
BRANCH  20  25
ATOM     25  C   UNL     1      32.414 -22.856 -15.505  0.00  0.00    +0.013 C 
BRANCH  25  29
ATOM     26  F   UNL     1      28.266 -23.140 -17.970  0.00  0.00    -0.235 F 
ATOM     27  O   UNL     1      31.761 -25.069 -14.912  0.00  0.00    -0.277 OA
ATOM     28  N   UNL     1      30.112 -23.659 -15.708  0.00  0.00    -0.278 N 
ATOM     29  C   UNL     1      31.409 -23.969 -15.342  0.00  0.00    +0.205 C 
ATOM     30  C   UNL     1      29.634 -22.379 -16.228  0.00  0.00    +0.128 C 
ATOM     31  C   UNL     1      29.028 -24.626 -15.617  0.00  0.00    +0.096 C 
ATOM     32  C   UNL     1      28.218 -22.670 -16.693  0.00  0.00    +0.182 C 
ATOM     33  C   UNL     1      27.762 -23.796 -15.777  0.00  0.00    +0.059 C 
ENDBRANCH  25  29
BRANCH  25  34
ATOM     34  N   UNL     1      32.723 -22.376 -14.161  0.00  0.00    +0.387 N 
ATOM     35  H   UNL     1      33.260 -23.086 -13.663  0.00  0.00    -0.089 HD
ATOM     36  H   UNL     1      31.856 -22.190 -13.659  0.00  0.00    -0.089 HD
ATOM     37  H   UNL     1      33.271 -21.518 -14.224  0.00  0.00    -0.089 HD
ENDBRANCH  25  34
ENDBRANCH  20  25
ENDBRANCH   4  20
TORSDOF 8
ENDMDL
MODEL 8
REMARK VINA RESULT:      -8.8     11.317     14.918
REMARK  Name = 60206636
REMARK  8 active torsions:
REMARK  status: ('A' for Active; 'I' for Inactive)
REMARK    1  A    between atoms: C_4  and  C_20
REMARK    2  A    between atoms: C_5  and  C_10
REMARK    3  A    between atoms: C_15  and  S_16
REMARK    4  A    between atoms: C_20  and  C_21
REMARK    5  A    between atoms: C_20  and  C_25
REMARK    6  A    between atoms: C_21  and  C_22
REMARK    7  A    between atoms: C_25  and  C_29
REMARK    8  A    between atoms: C_25  and  N_34
REMARK                            x       y       z     vdW  Elec       q    Type
REMARK                         _______ _______ _______ _____ _____    ______ ____
ROOT
ATOM      1  O   UNL     1      31.463  -9.401 -23.304  0.00  0.00    -0.311 OA
ATOM      2  N   UNL     1      33.699  -8.760 -22.906  0.00  0.00    +0.417 N 
ATOM      3  N   UNL     1      31.455  -8.034 -22.775  0.00  0.00    -0.209 NA
ATOM      4  C   UNL     1      32.829  -9.763 -23.510  0.00  0.00    +0.083 C 
ATOM      5  C   UNL     1      32.843  -7.574 -22.894  0.00  0.00    +0.051 C 
ATOM      6  H   UNL     1      34.534  -8.607 -23.471  0.00  0.00    -0.078 HD
ATOM      7  H   UNL     1      34.046  -9.022 -21.984  0.00  0.00    -0.078 HD
ATOM      8  H   UNL     1      31.157  -8.027 -21.799  0.00  0.00    +0.152 HD
ENDROOT
BRANCH   5  10
ATOM      9  F   UNL     1      30.944  -5.703 -23.882  0.00  0.00    -0.204 F 
ATOM     10  C   UNL     1      33.100  -6.676 -24.094  0.00  0.00    +0.002 C 
ATOM     11  C   UNL     1      32.120  -5.780 -24.522  0.00  0.00    +0.137 C 
ATOM     12  C   UNL     1      34.319  -6.748 -24.768  0.00  0.00    -0.001 C 
ATOM     13  C   UNL     1      32.359  -4.957 -25.623  0.00  0.00    +0.048 C 
ATOM     14  C   UNL     1      34.558  -5.926 -25.868  0.00  0.00    +0.018 C 
ATOM     15  C   UNL     1      33.578  -5.031 -26.296  0.00  0.00    +0.108 C 
BRANCH  15  16
ATOM     16  S   UNL     1      33.877  -4.001 -27.674  0.00  0.00    +0.011 S 
ATOM     17  O   UNL     1      33.156  -4.530 -28.824  0.00  0.00    -0.169 OA
ATOM     18  O   UNL     1      33.662  -2.622 -27.259  0.00  0.00    -0.169 OA
ATOM     19  C   UNL     1      35.611  -4.206 -28.012  0.00  0.00    +0.182 C 
ENDBRANCH  15  16
ENDBRANCH   5  10
BRANCH   4  20
ATOM     20  C   UNL     1      33.070 -11.145 -22.921  0.00  0.00    -0.002 C 
BRANCH  20  21
ATOM     21  C   UNL     1      31.739 -11.846 -22.572  0.00  0.00    -0.001 C 
BRANCH  21  22
ATOM     22  C   UNL     1      31.518 -12.004 -21.097  0.00  0.00    -0.000 C 
ATOM     23  C   UNL     1      31.961 -10.913 -20.167  0.00  0.00    -0.000 C 
ATOM     24  C   UNL     1      30.498 -11.143 -20.411  0.00  0.00    -0.000 C 
ENDBRANCH  21  22
ENDBRANCH  20  21
BRANCH  20  25
ATOM     25  C   UNL     1      33.925 -12.056 -23.834  0.00  0.00    +0.013 C 
BRANCH  25  29
ATOM     26  F   UNL     1      33.394 -14.956 -20.004  0.00  0.00    -0.235 F 
ATOM     27  O   UNL     1      32.662 -13.804 -24.843  0.00  0.00    -0.277 OA
ATOM     28  N   UNL     1      33.761 -14.299 -22.872  0.00  0.00    -0.278 N 
ATOM     29  C   UNL     1      33.387 -13.462 -23.908  0.00  0.00    +0.205 C 
ATOM     30  C   UNL     1      34.612 -13.953 -21.735  0.00  0.00    +0.128 C 
ATOM     31  C   UNL     1      33.319 -15.684 -22.795  0.00  0.00    +0.096 C 
ATOM     32  C   UNL     1      34.484 -15.142 -20.798  0.00  0.00    +0.182 C 
ATOM     33  C   UNL     1      34.212 -16.310 -21.733  0.00  0.00    +0.059 C 
ENDBRANCH  25  29
BRANCH  25  34
ATOM     34  N   UNL     1      33.986 -11.562 -25.206  0.00  0.00    +0.387 N 
ATOM     35  H   UNL     1      34.300 -12.311 -25.823  0.00  0.00    -0.089 HD
ATOM     36  H   UNL     1      34.640 -10.781 -25.258  0.00  0.00    -0.089 HD
ATOM     37  H   UNL     1      33.060 -11.249 -25.496  0.00  0.00    -0.089 HD
ENDBRANCH  25  34
ENDBRANCH  20  25
ENDBRANCH   4  20
TORSDOF 8
ENDMDL
MODEL 9
REMARK VINA RESULT:      -8.8      2.461      3.223
REMARK  Name = 60206636
REMARK  8 active torsions:
REMARK  status: ('A' for Active; 'I' for Inactive)
REMARK    1  A    between atoms: C_4  and  C_20
REMARK    2  A    between atoms: C_5  and  C_10
REMARK    3  A    between atoms: C_15  and  S_16
REMARK    4  A    between atoms: C_20  and  C_21
REMARK    5  A    between atoms: C_20  and  C_25
REMARK    6  A    between atoms: C_21  and  C_22
REMARK    7  A    between atoms: C_25  and  C_29
REMARK    8  A    between atoms: C_25  and  N_34
REMARK                            x       y       z     vdW  Elec       q    Type
REMARK                         _______ _______ _______ _____ _____    ______ ____
ROOT
ATOM      1  O   UNL     1      36.313 -22.323 -18.134  0.00  0.00    -0.311 OA
ATOM      2  N   UNL     1      34.007 -22.010 -18.520  0.00  0.00    +0.417 N 
ATOM      3  N   UNL     1      36.079 -22.419 -19.578  0.00  0.00    -0.209 NA
ATOM      4  C   UNL     1      35.078 -21.932 -17.533  0.00  0.00    +0.083 C 
ATOM      5  C   UNL     1      34.736 -21.866 -19.780  0.00  0.00    +0.051 C 
ATOM      6  H   UNL     1      33.334 -21.254 -18.394  0.00  0.00    -0.078 HD
ATOM      7  H   UNL     1      33.458 -22.867 -18.461  0.00  0.00    -0.078 HD
ATOM      8  H   UNL     1      36.117 -23.391 -19.884  0.00  0.00    +0.152 HD
ENDROOT
BRANCH   5  10
ATOM      9  F   UNL     1      32.350 -20.452 -20.407  0.00  0.00    -0.204 F 
ATOM     10  C   UNL     1      34.722 -20.431 -20.283  0.00  0.00    +0.002 C 
ATOM     11  C   UNL     1      33.511 -19.801 -20.571  0.00  0.00    +0.137 C 
ATOM     12  C   UNL     1      35.923 -19.744 -20.457  0.00  0.00    -0.001 C 
ATOM     13  C   UNL     1      33.502 -18.485 -21.033  0.00  0.00    +0.048 C 
ATOM     14  C   UNL     1      35.914 -18.428 -20.919  0.00  0.00    +0.018 C 
ATOM     15  C   UNL     1      34.703 -17.799 -21.206  0.00  0.00    +0.108 C 
BRANCH  15  16
ATOM     16  S   UNL     1      34.691 -16.150 -21.784  0.00  0.00    +0.011 S 
ATOM     17  O   UNL     1      35.079 -15.265 -20.694  0.00  0.00    -0.169 OA
ATOM     18  O   UNL     1      35.423 -16.111 -23.043  0.00  0.00    -0.169 OA
ATOM     19  C   UNL     1      32.980 -15.818 -22.137  0.00  0.00    +0.182 C 
ENDBRANCH  15  16
ENDBRANCH   5  10
BRANCH   4  20
ATOM     20  C   UNL     1      34.804 -22.829 -16.335  0.00  0.00    -0.002 C 
BRANCH  20  21
ATOM     21  C   UNL     1      33.448 -23.554 -16.475  0.00  0.00    -0.001 C 
BRANCH  21  22
ATOM     22  C   UNL     1      32.439 -23.133 -15.448  0.00  0.00    -0.000 C 
ATOM     23  C   UNL     1      30.989 -23.063 -15.829  0.00  0.00    -0.000 C 
ATOM     24  C   UNL     1      31.472 -24.147 -14.911  0.00  0.00    -0.000 C 
ENDBRANCH  21  22
ENDBRANCH  20  21
BRANCH  20  25
ATOM     25  C   UNL     1      35.930 -23.859 -16.075  0.00  0.00    +0.013 C 
BRANCH  25  29
ATOM     26  F   UNL     1      36.258 -25.506 -11.542  0.00  0.00    -0.235 F 
ATOM     27  O   UNL     1      37.992 -22.848 -15.443  0.00  0.00    -0.277 OA
ATOM     28  N   UNL     1      36.592 -23.545 -13.741  0.00  0.00    -0.278 N 
ATOM     29  C   UNL     1      36.938 -23.366 -15.068  0.00  0.00    +0.205 C 
ATOM     30  C   UNL     1      35.365 -24.154 -13.233  0.00  0.00    +0.128 C 
ATOM     31  C   UNL     1      37.461 -23.129 -12.649  0.00  0.00    +0.096 C 
ATOM     32  C   UNL     1      35.618 -24.321 -11.745  0.00  0.00    +0.182 C 
ATOM     33  C   UNL     1      36.575 -23.187 -11.413  0.00  0.00    +0.059 C 
ENDBRANCH  25  29
BRANCH  25  34
ATOM     34  N   UNL     1      35.414 -25.123 -15.560  0.00  0.00    +0.387 N 
ATOM     35  H   UNL     1      34.398 -25.069 -15.483  0.00  0.00    -0.089 HD
ATOM     36  H   UNL     1      35.815 -25.306 -14.641  0.00  0.00    -0.089 HD
ATOM     37  H   UNL     1      35.666 -25.879 -16.197  0.00  0.00    -0.089 HD
ENDBRANCH  25  34
ENDBRANCH  20  25
ENDBRANCH   4  20
TORSDOF 8
ENDMDL
