MODEL 1
REMARK VINA RESULT:      -4.2      0.000      0.000
REMARK  Name = 167704
REMARK  0 active torsions:
REMARK  status: ('A' for Active; 'I' for Inactive)
REMARK                            x       y       z     vdW  Elec       q    Type
REMARK                         _______ _______ _______ _____ _____    ______ ____
ROOT
ATOM      1  P   UNL     1      27.851 -22.639 -16.895  0.00  0.00    +0.559 P 
ATOM      2  O   UNL     1      27.536 -23.911 -17.699  0.00  0.00    -0.113 OA
ATOM      3  O   UNL     1      29.351 -22.321 -17.004  0.00  0.00    -0.220 OA
ATOM      4  O   UNL     1      27.036 -21.462 -17.457  0.00  0.00    -0.113 OA
ATOM      5  O   UNL     1      27.480 -22.860 -15.419  0.00  0.00    -0.113 OA
ENDROOT
TORSDOF 0
ENDMDL
MODEL 2
REMARK VINA RESULT:      -4.2      0.002      1.944
REMARK  Name = 167704
REMARK  0 active torsions:
REMARK  status: ('A' for Active; 'I' for Inactive)
REMARK                            x       y       z     vdW  Elec       q    Type
REMARK                         _______ _______ _______ _____ _____    ______ ____
ROOT
ATOM      1  P   UNL     1      27.850 -22.637 -16.895  0.00  0.00    +0.559 P 
ATOM      2  O   UNL     1      29.350 -22.321 -17.004  0.00  0.00    -0.113 OA
ATOM      3  O   UNL     1      27.035 -21.460 -17.456  0.00  0.00    -0.220 OA
ATOM      4  O   UNL     1      27.534 -23.909 -17.699  0.00  0.00    -0.113 OA
ATOM      5  O   UNL     1      27.478 -22.858 -15.419  0.00  0.00    -0.113 OA
ENDROOT
TORSDOF 0
ENDMDL
MODEL 3
REMARK VINA RESULT:      -4.2      0.002      1.945
REMARK  Name = 167704
REMARK  0 active torsions:
REMARK  status: ('A' for Active; 'I' for Inactive)
REMARK                            x       y       z     vdW  Elec       q    Type
REMARK                         _______ _______ _______ _____ _____    ______ ____
ROOT
ATOM      1  P   UNL     1      27.849 -22.637 -16.895  0.00  0.00    +0.559 P 
ATOM      2  O   UNL     1      27.534 -23.909 -17.700  0.00  0.00    -0.113 OA
ATOM      3  O   UNL     1      27.479 -22.859 -15.419  0.00  0.00    -0.220 OA
ATOM      4  O   UNL     1      29.350 -22.321 -17.004  0.00  0.00    -0.113 OA
ATOM      5  O   UNL     1      27.035 -21.459 -17.456  0.00  0.00    -0.113 OA
ENDROOT
TORSDOF 0
ENDMDL
MODEL 4
REMARK VINA RESULT:      -4.2      0.002      1.945
REMARK  Name = 167704
REMARK  0 active torsions:
REMARK  status: ('A' for Active; 'I' for Inactive)
REMARK                            x       y       z     vdW  Elec       q    Type
REMARK                         _______ _______ _______ _____ _____    ______ ____
ROOT
ATOM      1  P   UNL     1      27.850 -22.637 -16.895  0.00  0.00    +0.559 P 
ATOM      2  O   UNL     1      27.479 -22.859 -15.419  0.00  0.00    -0.113 OA
ATOM      3  O   UNL     1      27.534 -23.909 -17.699  0.00  0.00    -0.220 OA
ATOM      4  O   UNL     1      27.035 -21.460 -17.456  0.00  0.00    -0.113 OA
ATOM      5  O   UNL     1      29.351 -22.321 -17.004  0.00  0.00    -0.113 OA
ENDROOT
TORSDOF 0
ENDMDL
MODEL 5
REMARK VINA RESULT:      -4.1     12.300     13.121
REMARK  Name = 167704
REMARK  0 active torsions:
REMARK  status: ('A' for Active; 'I' for Inactive)
REMARK                            x       y       z     vdW  Elec       q    Type
REMARK                         _______ _______ _______ _____ _____    ______ ____
ROOT
ATOM      1  P   UNL     1      40.213 -26.046 -14.519  0.00  0.00    +0.559 P 
ATOM      2  O   UNL     1      40.623 -25.901 -15.994  0.00  0.00    -0.113 OA
ATOM      3  O   UNL     1      41.277 -26.866 -13.770  0.00  0.00    -0.220 OA
ATOM      4  O   UNL     1      40.096 -24.653 -13.880  0.00  0.00    -0.113 OA
ATOM      5  O   UNL     1      38.857 -26.766 -14.432  0.00  0.00    -0.113 OA
ENDROOT
TORSDOF 0
ENDMDL
MODEL 6
REMARK VINA RESULT:      -4.1      0.385      1.929
REMARK  Name = 167704
REMARK  0 active torsions:
REMARK  status: ('A' for Active; 'I' for Inactive)
REMARK                            x       y       z     vdW  Elec       q    Type
REMARK                         _______ _______ _______ _____ _____    ______ ____
ROOT
ATOM      1  P   UNL     1      27.581 -22.414 -16.930  0.00  0.00    +0.559 P 
ATOM      2  O   UNL     1      26.772 -21.319 -17.644  0.00  0.00    -0.113 OA
ATOM      3  O   UNL     1      27.431 -23.742 -17.690  0.00  0.00    -0.220 OA
ATOM      4  O   UNL     1      29.065 -22.011 -16.891  0.00  0.00    -0.113 OA
ATOM      5  O   UNL     1      27.058 -22.583 -15.493  0.00  0.00    -0.113 OA
ENDROOT
TORSDOF 0
ENDMDL
MODEL 7
REMARK VINA RESULT:      -4.0     12.339     13.170
REMARK  Name = 167704
REMARK  0 active torsions:
REMARK  status: ('A' for Active; 'I' for Inactive)
REMARK                            x       y       z     vdW  Elec       q    Type
REMARK                         _______ _______ _______ _____ _____    ______ ____
ROOT
ATOM      1  P   UNL     1      40.240 -26.035 -14.559  0.00  0.00    +0.559 P 
ATOM      2  O   UNL     1      41.355 -26.862 -13.897  0.00  0.00    -0.113 OA
ATOM      3  O   UNL     1      40.141 -24.664 -13.871  0.00  0.00    -0.220 OA
ATOM      4  O   UNL     1      40.563 -25.838 -16.049  0.00  0.00    -0.113 OA
ATOM      5  O   UNL     1      38.900 -26.776 -14.418  0.00  0.00    -0.113 OA
ENDROOT
TORSDOF 0
ENDMDL
MODEL 8
REMARK VINA RESULT:      -4.0     12.339     13.138
REMARK  Name = 167704
REMARK  0 active torsions:
REMARK  status: ('A' for Active; 'I' for Inactive)
REMARK                            x       y       z     vdW  Elec       q    Type
REMARK                         _______ _______ _______ _____ _____    ______ ____
ROOT
ATOM      1  P   UNL     1      40.240 -26.035 -14.559  0.00  0.00    +0.559 P 
ATOM      2  O   UNL     1      38.900 -26.776 -14.418  0.00  0.00    -0.113 OA
ATOM      3  O   UNL     1      41.355 -26.861 -13.897  0.00  0.00    -0.220 OA
ATOM      4  O   UNL     1      40.563 -25.839 -16.049  0.00  0.00    -0.113 OA
ATOM      5  O   UNL     1      40.141 -24.663 -13.870  0.00  0.00    -0.113 OA
ENDROOT
TORSDOF 0
ENDMDL
MODEL 9
REMARK VINA RESULT:      -4.0     12.339     13.245
REMARK  Name = 167704
REMARK  0 active torsions:
REMARK  status: ('A' for Active; 'I' for Inactive)
REMARK                            x       y       z     vdW  Elec       q    Type
REMARK                         _______ _______ _______ _____ _____    ______ ____
ROOT
ATOM      1  P   UNL     1      40.241 -26.029 -14.552  0.00  0.00    +0.559 P 
ATOM      2  O   UNL     1      40.561 -25.815 -16.040  0.00  0.00    -0.113 OA
ATOM      3  O   UNL     1      38.901 -26.771 -14.417  0.00  0.00    -0.220 OA
ATOM      4  O   UNL     1      41.357 -26.864 -13.902  0.00  0.00    -0.113 OA
ATOM      5  O   UNL     1      40.144 -24.665 -13.847  0.00  0.00    -0.113 OA
ENDROOT
TORSDOF 0
ENDMDL
