MODEL 1
REMARK VINA RESULT:      -8.9      0.000      0.000
REMARK  Name = 71771
REMARK  8 active torsions:
REMARK  status: ('A' for Active; 'I' for Inactive)
REMARK    1  A    between atoms: C_1  and  C_17
REMARK    2  A    between atoms: C_2  and  N_7
REMARK    3  A    between atoms: N_7  and  C_11
REMARK    4  A    between atoms: C_17  and  C_19
REMARK    5  A    between atoms: C_19  and  O_20
REMARK    6  A    between atoms: O_20  and  C_21
REMARK    7  A    between atoms: C_21  and  C_23
REMARK    8  A    between atoms: C_23  and  O_24
REMARK                            x       y       z     vdW  Elec       q    Type
REMARK                         _______ _______ _______ _____ _____    ______ ____
ROOT
ATOM      1  C   UNL     1      34.575 -16.546 -22.892  0.00  0.00    +0.002 C 
ATOM      2  C   UNL     1      34.689 -17.900 -22.574  0.00  0.00    +0.045 C 
ATOM      3  C   UNL     1      34.476 -16.148 -24.225  0.00  0.00    -0.002 C 
ATOM      4  C   UNL     1      34.704 -18.855 -23.590  0.00  0.00    +0.014 C 
ATOM      5  C   UNL     1      34.492 -17.104 -25.241  0.00  0.00    -0.000 C 
ATOM      6  C   UNL     1      34.606 -18.457 -24.924  0.00  0.00    +0.001 C 
ENDROOT
BRANCH   2   7
ATOM      7  N   UNL     1      34.789 -18.322 -21.230  0.00  0.00    -0.311 N 
ATOM      8  H   UNL     1      34.840 -17.580 -20.586  0.00  0.00    +0.152 HD
BRANCH   7  11
ATOM      9 CL   UNL     1      32.100 -19.524 -20.561  0.00  0.00    -0.081 Cl
ATOM     10 CL   UNL     1      37.553 -19.461 -20.801  0.00  0.00    -0.081 Cl
ATOM     11  C   UNL     1      34.830 -19.595 -20.632  0.00  0.00    +0.070 C 
ATOM     12  C   UNL     1      33.643 -20.247 -20.279  0.00  0.00    +0.072 C 
ATOM     13  C   UNL     1      36.057 -20.221 -20.386  0.00  0.00    +0.072 C 
ATOM     14  C   UNL     1      33.684 -21.510 -19.688  0.00  0.00    +0.013 C 
ATOM     15  C   UNL     1      36.098 -21.483 -19.794  0.00  0.00    +0.013 C 
ATOM     16  C   UNL     1      34.911 -22.128 -19.446  0.00  0.00    +0.002 C 
ENDBRANCH   7  11
ENDBRANCH   2   7
BRANCH   1  17
ATOM     17  C   UNL     1      34.556 -15.502 -21.824  0.00  0.00    +0.137 C 
BRANCH  17  19
ATOM     18  O   UNL     1      32.390 -16.013 -20.842  0.00  0.00    -0.250 OA
ATOM     19  C   UNL     1      33.165 -15.191 -21.311  0.00  0.00    +0.322 C 
BRANCH  19  20
ATOM     20  O   UNL     1      32.919 -13.854 -21.455  0.00  0.00    -0.436 OA
BRANCH  20  21
ATOM     21  C   UNL     1      32.344 -13.464 -22.706  0.00  0.00    +0.317 C 
BRANCH  21  23
ATOM     22  O   UNL     1      32.685 -11.099 -23.144  0.00  0.00    -0.246 OA
ATOM     23  C   UNL     1      33.062 -12.257 -23.242  0.00  0.00    +0.359 C 
BRANCH  23  24
ATOM     24  O   UNL     1      34.210 -12.631 -23.862  0.00  0.00    -0.478 OA
ATOM     25  H   UNL     1      34.183 -13.252 -24.563  0.00  0.00    +0.295 HD
ENDBRANCH  23  24
ENDBRANCH  21  23
ENDBRANCH  20  21
ENDBRANCH  19  20
ENDBRANCH  17  19
ENDBRANCH   1  17
TORSDOF 8
ENDMDL
MODEL 2
REMARK VINA RESULT:      -8.9      2.032      3.068
REMARK  Name = 71771
REMARK  8 active torsions:
REMARK  status: ('A' for Active; 'I' for Inactive)
REMARK    1  A    between atoms: C_1  and  C_17
REMARK    2  A    between atoms: C_2  and  N_7
REMARK    3  A    between atoms: N_7  and  C_11
REMARK    4  A    between atoms: C_17  and  C_19
REMARK    5  A    between atoms: C_19  and  O_20
REMARK    6  A    between atoms: O_20  and  C_21
REMARK    7  A    between atoms: C_21  and  C_23
REMARK    8  A    between atoms: C_23  and  O_24
REMARK                            x       y       z     vdW  Elec       q    Type
REMARK                         _______ _______ _______ _____ _____    ______ ____
ROOT
ATOM      1  C   UNL     1      34.635 -16.122 -22.925  0.00  0.00    +0.002 C 
ATOM      2  C   UNL     1      34.251 -17.046 -21.952  0.00  0.00    +0.045 C 
ATOM      3  C   UNL     1      34.352 -14.767 -22.752  0.00  0.00    -0.002 C 
ATOM      4  C   UNL     1      33.584 -16.613 -20.806  0.00  0.00    +0.014 C 
ATOM      5  C   UNL     1      33.684 -14.335 -21.606  0.00  0.00    -0.000 C 
ATOM      6  C   UNL     1      33.300 -15.258 -20.633  0.00  0.00    +0.001 C 
ENDROOT
BRANCH   2   7
ATOM      7  N   UNL     1      34.531 -18.420 -22.110  0.00  0.00    -0.311 N 
ATOM      8  H   UNL     1      34.416 -18.744 -23.032  0.00  0.00    +0.152 HD
BRANCH   7  11
ATOM      9 CL   UNL     1      32.295 -19.963 -20.787  0.00  0.00    -0.081 Cl
ATOM     10 CL   UNL     1      37.518 -18.713 -21.771  0.00  0.00    -0.081 Cl
ATOM     11  C   UNL     1      34.940 -19.418 -21.206  0.00  0.00    +0.070 C 
ATOM     12  C   UNL     1      33.989 -20.195 -20.535  0.00  0.00    +0.072 C 
ATOM     13  C   UNL     1      36.301 -19.643 -20.970  0.00  0.00    +0.072 C 
ATOM     14  C   UNL     1      34.395 -21.185 -19.639  0.00  0.00    +0.013 C 
ATOM     15  C   UNL     1      36.706 -20.632 -20.074  0.00  0.00    +0.013 C 
ATOM     16  C   UNL     1      35.753 -21.404 -19.410  0.00  0.00    +0.002 C 
ENDBRANCH   7  11
ENDBRANCH   2   7
BRANCH   1  17
ATOM     17  C   UNL     1      35.350 -16.557 -24.162  0.00  0.00    +0.137 C 
BRANCH  17  19
ATOM     18  O   UNL     1      33.851 -18.081 -25.323  0.00  0.00    -0.250 OA
ATOM     19  C   UNL     1      34.419 -16.998 -25.272  0.00  0.00    +0.322 C 
BRANCH  19  20
ATOM     20  O   UNL     1      34.317 -15.999 -26.200  0.00  0.00    -0.436 OA
BRANCH  20  21
ATOM     21  C   UNL     1      33.093 -15.258 -26.177  0.00  0.00    +0.317 C 
BRANCH  21  23
ATOM     22  O   UNL     1      33.278 -12.895 -25.646  0.00  0.00    -0.246 OA
ATOM     23  C   UNL     1      33.372 -13.808 -26.453  0.00  0.00    +0.359 C 
BRANCH  23  24
ATOM     24  O   UNL     1      33.751 -13.641 -27.746  0.00  0.00    -0.478 OA
ATOM     25  H   UNL     1      33.569 -12.835 -28.188  0.00  0.00    +0.295 HD
ENDBRANCH  23  24
ENDBRANCH  21  23
ENDBRANCH  20  21
ENDBRANCH  19  20
ENDBRANCH  17  19
ENDBRANCH   1  17
TORSDOF 8
ENDMDL
MODEL 3
REMARK VINA RESULT:      -8.9      0.148      1.904
REMARK  Name = 71771
REMARK  8 active torsions:
REMARK  status: ('A' for Active; 'I' for Inactive)
REMARK    1  A    between atoms: C_1  and  C_17
REMARK    2  A    between atoms: C_2  and  N_7
REMARK    3  A    between atoms: N_7  and  C_11
REMARK    4  A    between atoms: C_17  and  C_19
REMARK    5  A    between atoms: C_19  and  O_20
REMARK    6  A    between atoms: O_20  and  C_21
REMARK    7  A    between atoms: C_21  and  C_23
REMARK    8  A    between atoms: C_23  and  O_24
REMARK                            x       y       z     vdW  Elec       q    Type
REMARK                         _______ _______ _______ _____ _____    ______ ____
ROOT
ATOM      1  C   UNL     1      34.546 -16.644 -22.786  0.00  0.00    +0.002 C 
ATOM      2  C   UNL     1      34.697 -17.999 -22.488  0.00  0.00    +0.045 C 
ATOM      3  C   UNL     1      34.403 -16.233 -24.112  0.00  0.00    -0.002 C 
ATOM      4  C   UNL     1      34.705 -18.942 -23.515  0.00  0.00    +0.014 C 
ATOM      5  C   UNL     1      34.412 -17.177 -25.139  0.00  0.00    -0.000 C 
ATOM      6  C   UNL     1      34.563 -18.531 -24.841  0.00  0.00    +0.001 C 
ENDROOT
BRANCH   2   7
ATOM      7  N   UNL     1      34.842 -18.434 -21.152  0.00  0.00    -0.311 N 
ATOM      8  H   UNL     1      34.996 -17.701 -20.513  0.00  0.00    +0.152 HD
BRANCH   7  11
ATOM      9 CL   UNL     1      37.540 -19.694 -20.649  0.00  0.00    -0.081 Cl
ATOM     10 CL   UNL     1      32.084 -19.517 -20.561  0.00  0.00    -0.081 Cl
ATOM     11  C   UNL     1      34.810 -19.708 -20.557  0.00  0.00    +0.070 C 
ATOM     12  C   UNL     1      36.001 -20.387 -20.278  0.00  0.00    +0.072 C 
ATOM     13  C   UNL     1      33.586 -20.309 -20.238  0.00  0.00    +0.072 C 
ATOM     14  C   UNL     1      35.970 -21.651 -19.687  0.00  0.00    +0.013 C 
ATOM     15  C   UNL     1      33.555 -21.572 -19.648  0.00  0.00    +0.013 C 
ATOM     16  C   UNL     1      34.747 -22.243 -19.372  0.00  0.00    +0.002 C 
ENDBRANCH   7  11
ENDBRANCH   2   7
BRANCH   1  17
ATOM     17  C   UNL     1      34.535 -15.613 -21.706  0.00  0.00    +0.137 C 
BRANCH  17  19
ATOM     18  O   UNL     1      32.265 -15.950 -20.897  0.00  0.00    -0.250 OA
ATOM     19  C   UNL     1      33.140 -15.191 -21.292  0.00  0.00    +0.322 C 
BRANCH  19  20
ATOM     20  O   UNL     1      33.019 -13.836 -21.431  0.00  0.00    -0.436 OA
BRANCH  20  21
ATOM     21  C   UNL     1      32.326 -13.395 -22.602  0.00  0.00    +0.317 C 
BRANCH  21  23
ATOM     22  O   UNL     1      32.739 -11.089 -23.243  0.00  0.00    -0.246 OA
ATOM     23  C   UNL     1      33.077 -12.262 -23.242  0.00  0.00    +0.359 C 
BRANCH  23  24
ATOM     24  O   UNL     1      34.210 -12.725 -23.832  0.00  0.00    -0.478 OA
ATOM     25  H   UNL     1      34.374 -12.547 -24.737  0.00  0.00    +0.295 HD
ENDBRANCH  23  24
ENDBRANCH  21  23
ENDBRANCH  20  21
ENDBRANCH  19  20
ENDBRANCH  17  19
ENDBRANCH   1  17
TORSDOF 8
ENDMDL
MODEL 4
REMARK VINA RESULT:      -8.8      2.017      3.592
REMARK  Name = 71771
REMARK  8 active torsions:
REMARK  status: ('A' for Active; 'I' for Inactive)
REMARK    1  A    between atoms: C_1  and  C_17
REMARK    2  A    between atoms: C_2  and  N_7
REMARK    3  A    between atoms: N_7  and  C_11
REMARK    4  A    between atoms: C_17  and  C_19
REMARK    5  A    between atoms: C_19  and  O_20
REMARK    6  A    between atoms: O_20  and  C_21
REMARK    7  A    between atoms: C_21  and  C_23
REMARK    8  A    between atoms: C_23  and  O_24
REMARK                            x       y       z     vdW  Elec       q    Type
REMARK                         _______ _______ _______ _____ _____    ______ ____
ROOT
ATOM      1  C   UNL     1      34.618 -16.081 -22.887  0.00  0.00    +0.002 C 
ATOM      2  C   UNL     1      34.229 -17.013 -21.924  0.00  0.00    +0.045 C 
ATOM      3  C   UNL     1      34.335 -14.727 -22.702  0.00  0.00    -0.002 C 
ATOM      4  C   UNL     1      33.558 -16.590 -20.777  0.00  0.00    +0.014 C 
ATOM      5  C   UNL     1      33.663 -14.305 -21.556  0.00  0.00    -0.000 C 
ATOM      6  C   UNL     1      33.274 -15.237 -20.593  0.00  0.00    +0.001 C 
ENDROOT
BRANCH   2   7
ATOM      7  N   UNL     1      34.508 -18.386 -22.093  0.00  0.00    -0.311 N 
ATOM      8  H   UNL     1      34.392 -18.703 -23.017  0.00  0.00    +0.152 HD
BRANCH   7  11
ATOM      9 CL   UNL     1      37.497 -18.691 -21.775  0.00  0.00    -0.081 Cl
ATOM     10 CL   UNL     1      32.277 -19.929 -20.764  0.00  0.00    -0.081 Cl
ATOM     11  C   UNL     1      34.920 -19.391 -21.198  0.00  0.00    +0.070 C 
ATOM     12  C   UNL     1      36.282 -19.621 -20.972  0.00  0.00    +0.072 C 
ATOM     13  C   UNL     1      33.971 -20.170 -20.524  0.00  0.00    +0.072 C 
ATOM     14  C   UNL     1      36.690 -20.617 -20.084  0.00  0.00    +0.013 C 
ATOM     15  C   UNL     1      34.380 -21.165 -19.637  0.00  0.00    +0.013 C 
ATOM     16  C   UNL     1      35.739 -21.388 -19.416  0.00  0.00    +0.002 C 
ENDBRANCH   7  11
ENDBRANCH   2   7
BRANCH   1  17
ATOM     17  C   UNL     1      35.338 -16.505 -24.125  0.00  0.00    +0.137 C 
BRANCH  17  19
ATOM     18  O   UNL     1      33.876 -18.117 -25.213  0.00  0.00    -0.250 OA
ATOM     19  C   UNL     1      34.416 -17.018 -25.212  0.00  0.00    +0.322 C 
BRANCH  19  20
ATOM     20  O   UNL     1      34.286 -16.064 -26.181  0.00  0.00    -0.436 OA
BRANCH  20  21
ATOM     21  C   UNL     1      33.082 -15.293 -26.132  0.00  0.00    +0.317 C 
BRANCH  21  23
ATOM     22  O   UNL     1      33.393 -12.946 -25.588  0.00  0.00    -0.246 OA
ATOM     23  C   UNL     1      33.390 -13.849 -26.411  0.00  0.00    +0.359 C 
BRANCH  23  24
ATOM     24  O   UNL     1      33.672 -13.676 -27.728  0.00  0.00    -0.478 OA
ATOM     25  H   UNL     1      33.805 -14.421 -28.280  0.00  0.00    +0.295 HD
ENDBRANCH  23  24
ENDBRANCH  21  23
ENDBRANCH  20  21
ENDBRANCH  19  20
ENDBRANCH  17  19
ENDBRANCH   1  17
TORSDOF 8
ENDMDL
MODEL 5
REMARK VINA RESULT:      -8.4      3.872      7.682
REMARK  Name = 71771
REMARK  8 active torsions:
REMARK  status: ('A' for Active; 'I' for Inactive)
REMARK    1  A    between atoms: C_1  and  C_17
REMARK    2  A    between atoms: C_2  and  N_7
REMARK    3  A    between atoms: N_7  and  C_11
REMARK    4  A    between atoms: C_17  and  C_19
REMARK    5  A    between atoms: C_19  and  O_20
REMARK    6  A    between atoms: O_20  and  C_21
REMARK    7  A    between atoms: C_21  and  C_23
REMARK    8  A    between atoms: C_23  and  O_24
REMARK                            x       y       z     vdW  Elec       q    Type
REMARK                         _______ _______ _______ _____ _____    ______ ____
ROOT
ATOM      1  C   UNL     1      34.061 -14.664 -23.772  0.00  0.00    +0.002 C 
ATOM      2  C   UNL     1      33.790 -13.383 -24.256  0.00  0.00    +0.045 C 
ATOM      3  C   UNL     1      33.840 -15.777 -24.583  0.00  0.00    -0.002 C 
ATOM      4  C   UNL     1      33.299 -13.216 -25.550  0.00  0.00    +0.014 C 
ATOM      5  C   UNL     1      33.347 -15.610 -25.877  0.00  0.00    -0.000 C 
ATOM      6  C   UNL     1      33.076 -14.330 -26.361  0.00  0.00    +0.001 C 
ENDROOT
BRANCH   2   7
ATOM      7  N   UNL     1      34.010 -12.244 -23.450  0.00  0.00    -0.311 N 
ATOM      8  H   UNL     1      34.783 -12.330 -22.847  0.00  0.00    +0.152 HD
BRANCH   7  11
ATOM      9 CL   UNL     1      31.553 -12.264 -21.693  0.00  0.00    -0.081 Cl
ATOM     10 CL   UNL     1      35.233  -9.960 -25.003  0.00  0.00    -0.081 Cl
ATOM     11  C   UNL     1      33.339 -11.013 -23.339  0.00  0.00    +0.070 C 
ATOM     12  C   UNL     1      32.187 -10.905 -22.551  0.00  0.00    +0.072 C 
ATOM     13  C   UNL     1      33.816  -9.884 -24.016  0.00  0.00    +0.072 C 
ATOM     14  C   UNL     1      31.522  -9.683 -22.440  0.00  0.00    +0.013 C 
ATOM     15  C   UNL     1      33.150  -8.664 -23.905  0.00  0.00    +0.013 C 
ATOM     16  C   UNL     1      32.004  -8.563 -23.117  0.00  0.00    +0.002 C 
ENDBRANCH   7  11
ENDBRANCH   2   7
BRANCH   1  17
ATOM     17  C   UNL     1      34.588 -14.871 -22.390  0.00  0.00    +0.137 C 
BRANCH  17  19
ATOM     18  O   UNL     1      32.454 -15.435 -21.367  0.00  0.00    -0.250 OA
ATOM     19  C   UNL     1      33.650 -15.660 -21.500  0.00  0.00    +0.322 C 
BRANCH  19  20
ATOM     20  O   UNL     1      34.350 -16.654 -20.875  0.00  0.00    -0.436 OA
BRANCH  20  21
ATOM     21  C   UNL     1      34.445 -17.887 -21.595  0.00  0.00    +0.317 C 
BRANCH  21  23
ATOM     22  O   UNL     1      36.394 -18.952 -20.610  0.00  0.00    -0.246 OA
ATOM     23  C   UNL     1      35.860 -18.392 -21.555  0.00  0.00    +0.359 C 
BRANCH  23  24
ATOM     24  O   UNL     1      36.481 -18.139 -22.736  0.00  0.00    -0.478 OA
ATOM     25  H   UNL     1      37.413 -18.208 -22.799  0.00  0.00    +0.295 HD
ENDBRANCH  23  24
ENDBRANCH  21  23
ENDBRANCH  20  21
ENDBRANCH  19  20
ENDBRANCH  17  19
ENDBRANCH   1  17
TORSDOF 8
ENDMDL
MODEL 6
REMARK VINA RESULT:      -8.4      3.883      7.849
REMARK  Name = 71771
REMARK  8 active torsions:
REMARK  status: ('A' for Active; 'I' for Inactive)
REMARK    1  A    between atoms: C_1  and  C_17
REMARK    2  A    between atoms: C_2  and  N_7
REMARK    3  A    between atoms: N_7  and  C_11
REMARK    4  A    between atoms: C_17  and  C_19
REMARK    5  A    between atoms: C_19  and  O_20
REMARK    6  A    between atoms: O_20  and  C_21
REMARK    7  A    between atoms: C_21  and  C_23
REMARK    8  A    between atoms: C_23  and  O_24
REMARK                            x       y       z     vdW  Elec       q    Type
REMARK                         _______ _______ _______ _____ _____    ______ ____
ROOT
ATOM      1  C   UNL     1      34.055 -14.643 -23.755  0.00  0.00    +0.002 C 
ATOM      2  C   UNL     1      33.789 -13.367 -24.253  0.00  0.00    +0.045 C 
ATOM      3  C   UNL     1      33.827 -15.765 -24.553  0.00  0.00    -0.002 C 
ATOM      4  C   UNL     1      33.295 -13.213 -25.548  0.00  0.00    +0.014 C 
ATOM      5  C   UNL     1      33.332 -15.610 -25.848  0.00  0.00    -0.000 C 
ATOM      6  C   UNL     1      33.066 -14.334 -26.345  0.00  0.00    +0.001 C 
ENDROOT
BRANCH   2   7
ATOM      7  N   UNL     1      34.015 -12.221 -23.460  0.00  0.00    -0.311 N 
ATOM      8  H   UNL     1      34.813 -12.286 -22.888  0.00  0.00    +0.152 HD
BRANCH   7  11
ATOM      9 CL   UNL     1      35.179  -9.893 -24.993  0.00  0.00    -0.081 Cl
ATOM     10 CL   UNL     1      31.574 -12.310 -21.681  0.00  0.00    -0.081 Cl
ATOM     11  C   UNL     1      33.321 -11.003 -23.326  0.00  0.00    +0.070 C 
ATOM     12  C   UNL     1      33.771  -9.858 -23.992  0.00  0.00    +0.072 C 
ATOM     13  C   UNL     1      32.175 -10.927 -22.527  0.00  0.00    +0.072 C 
ATOM     14  C   UNL     1      33.083  -8.651 -23.861  0.00  0.00    +0.013 C 
ATOM     15  C   UNL     1      31.487  -9.721 -22.395  0.00  0.00    +0.013 C 
ATOM     16  C   UNL     1      31.941  -8.583 -23.063  0.00  0.00    +0.002 C 
ENDBRANCH   7  11
ENDBRANCH   2   7
BRANCH   1  17
ATOM     17  C   UNL     1      34.584 -14.838 -22.372  0.00  0.00    +0.137 C 
BRANCH  17  19
ATOM     18  O   UNL     1      32.469 -15.491 -21.361  0.00  0.00    -0.250 OA
ATOM     19  C   UNL     1      33.673 -15.668 -21.491  0.00  0.00    +0.322 C 
BRANCH  19  20
ATOM     20  O   UNL     1      34.408 -16.639 -20.870  0.00  0.00    -0.436 OA
BRANCH  20  21
ATOM     21  C   UNL     1      34.467 -17.898 -21.549  0.00  0.00    +0.317 C 
BRANCH  21  23
ATOM     22  O   UNL     1      36.419 -18.984 -20.596  0.00  0.00    -0.246 OA
ATOM     23  C   UNL     1      35.876 -18.420 -21.533  0.00  0.00    +0.359 C 
BRANCH  23  24
ATOM     24  O   UNL     1      36.478 -18.177 -22.725  0.00  0.00    -0.478 OA
ATOM     25  H   UNL     1      36.573 -18.868 -23.351  0.00  0.00    +0.295 HD
ENDBRANCH  23  24
ENDBRANCH  21  23
ENDBRANCH  20  21
ENDBRANCH  19  20
ENDBRANCH  17  19
ENDBRANCH   1  17
TORSDOF 8
ENDMDL
MODEL 7
REMARK VINA RESULT:      -8.3      3.315      6.894
REMARK  Name = 71771
REMARK  8 active torsions:
REMARK  status: ('A' for Active; 'I' for Inactive)
REMARK    1  A    between atoms: C_1  and  C_17
REMARK    2  A    between atoms: C_2  and  N_7
REMARK    3  A    between atoms: N_7  and  C_11
REMARK    4  A    between atoms: C_17  and  C_19
REMARK    5  A    between atoms: C_19  and  O_20
REMARK    6  A    between atoms: O_20  and  C_21
REMARK    7  A    between atoms: C_21  and  C_23
REMARK    8  A    between atoms: C_23  and  O_24
REMARK                            x       y       z     vdW  Elec       q    Type
REMARK                         _______ _______ _______ _____ _____    ______ ____
ROOT
ATOM      1  C   UNL     1      34.752 -16.496 -23.228  0.00  0.00    +0.002 C 
ATOM      2  C   UNL     1      34.266 -15.273 -23.694  0.00  0.00    +0.045 C 
ATOM      3  C   UNL     1      34.708 -17.623 -24.048  0.00  0.00    -0.002 C 
ATOM      4  C   UNL     1      33.737 -15.180 -24.981  0.00  0.00    +0.014 C 
ATOM      5  C   UNL     1      34.177 -17.529 -25.335  0.00  0.00    -0.000 C 
ATOM      6  C   UNL     1      33.692 -16.307 -25.801  0.00  0.00    +0.001 C 
ENDROOT
BRANCH   2   7
ATOM      7  N   UNL     1      34.304 -14.122 -22.879  0.00  0.00    -0.311 N 
ATOM      8  H   UNL     1      35.201 -13.911 -22.534  0.00  0.00    +0.152 HD
BRANCH   7  11
ATOM      9 CL   UNL     1      33.987 -11.661 -24.602  0.00  0.00    -0.081 Cl
ATOM     10 CL   UNL     1      32.792 -14.920 -20.388  0.00  0.00    -0.081 Cl
ATOM     11  C   UNL     1      33.310 -13.218 -22.461  0.00  0.00    +0.070 C 
ATOM     12  C   UNL     1      33.075 -12.043 -23.185  0.00  0.00    +0.072 C 
ATOM     13  C   UNL     1      32.546 -13.485 -21.319  0.00  0.00    +0.072 C 
ATOM     14  C   UNL     1      32.089 -11.147 -22.772  0.00  0.00    +0.013 C 
ATOM     15  C   UNL     1      31.560 -12.589 -20.906  0.00  0.00    +0.013 C 
ATOM     16  C   UNL     1      31.331 -11.420 -21.633  0.00  0.00    +0.002 C 
ENDBRANCH   7  11
ENDBRANCH   2   7
BRANCH   1  17
ATOM     17  C   UNL     1      35.325 -16.625 -21.854  0.00  0.00    +0.137 C 
BRANCH  17  19
ATOM     18  O   UNL     1      36.343 -18.769 -21.320  0.00  0.00    -0.250 OA
ATOM     19  C   UNL     1      35.351 -18.052 -21.346  0.00  0.00    +0.322 C 
BRANCH  19  20
ATOM     20  O   UNL     1      34.100 -18.404 -20.923  0.00  0.00    -0.436 OA
BRANCH  20  21
ATOM     21  C   UNL     1      33.673 -19.719 -21.289  0.00  0.00    +0.317 C 
BRANCH  21  23
ATOM     22  O   UNL     1      32.538 -20.837 -19.455  0.00  0.00    -0.246 OA
ATOM     23  C   UNL     1      33.566 -20.580 -20.062  0.00  0.00    +0.359 C 
BRANCH  23  24
ATOM     24  O   UNL     1      34.792 -21.046 -19.708  0.00  0.00    -0.478 OA
ATOM     25  H   UNL     1      35.327 -21.483 -20.341  0.00  0.00    +0.295 HD
ENDBRANCH  23  24
ENDBRANCH  21  23
ENDBRANCH  20  21
ENDBRANCH  19  20
ENDBRANCH  17  19
ENDBRANCH   1  17
TORSDOF 8
ENDMDL
MODEL 8
REMARK VINA RESULT:      -8.3      9.277     11.490
REMARK  Name = 71771
REMARK  8 active torsions:
REMARK  status: ('A' for Active; 'I' for Inactive)
REMARK    1  A    between atoms: C_1  and  C_17
REMARK    2  A    between atoms: C_2  and  N_7
REMARK    3  A    between atoms: N_7  and  C_11
REMARK    4  A    between atoms: C_17  and  C_19
REMARK    5  A    between atoms: C_19  and  O_20
REMARK    6  A    between atoms: O_20  and  C_21
REMARK    7  A    between atoms: C_21  and  C_23
REMARK    8  A    between atoms: C_23  and  O_24
REMARK                            x       y       z     vdW  Elec       q    Type
REMARK                         _______ _______ _______ _____ _____    ______ ____
ROOT
ATOM      1  C   UNL     1      36.776 -23.824 -15.345  0.00  0.00    +0.002 C 
ATOM      2  C   UNL     1      35.576 -23.459 -15.959  0.00  0.00    +0.045 C 
ATOM      3  C   UNL     1      37.944 -23.112 -15.619  0.00  0.00    -0.002 C 
ATOM      4  C   UNL     1      35.546 -22.383 -16.844  0.00  0.00    +0.014 C 
ATOM      5  C   UNL     1      37.913 -22.036 -16.506  0.00  0.00    -0.000 C 
ATOM      6  C   UNL     1      36.714 -21.671 -17.119  0.00  0.00    +0.001 C 
ENDROOT
BRANCH   2   7
ATOM      7  N   UNL     1      34.384 -24.167 -15.692  0.00  0.00    -0.311 N 
ATOM      8  H   UNL     1      34.463 -25.139 -15.826  0.00  0.00    +0.152 HD
BRANCH   7  11
ATOM      9 CL   UNL     1      33.836 -24.450 -12.735  0.00  0.00    -0.081 Cl
ATOM     10 CL   UNL     1      32.581 -23.126 -17.881  0.00  0.00    -0.081 Cl
ATOM     11  C   UNL     1      33.105 -23.755 -15.274  0.00  0.00    +0.070 C 
ATOM     12  C   UNL     1      32.742 -23.841 -13.926  0.00  0.00    +0.072 C 
ATOM     13  C   UNL     1      32.185 -23.254 -16.203  0.00  0.00    +0.072 C 
ATOM     14  C   UNL     1      31.474 -23.431 -13.511  0.00  0.00    +0.013 C 
ATOM     15  C   UNL     1      30.918 -22.845 -15.789  0.00  0.00    +0.013 C 
ATOM     16  C   UNL     1      30.563 -22.933 -14.443  0.00  0.00    +0.002 C 
ENDBRANCH   7  11
ENDBRANCH   2   7
BRANCH   1  17
ATOM     17  C   UNL     1      36.838 -24.973 -14.393  0.00  0.00    +0.137 C 
BRANCH  17  19
ATOM     18  O   UNL     1      36.391 -26.835 -15.893  0.00  0.00    -0.250 OA
ATOM     19  C   UNL     1      37.119 -26.300 -15.068  0.00  0.00    +0.322 C 
BRANCH  19  20
ATOM     20  O   UNL     1      38.306 -26.797 -14.608  0.00  0.00    -0.436 OA
BRANCH  20  21
ATOM     21  C   UNL     1      39.024 -25.948 -13.708  0.00  0.00    +0.317 C 
BRANCH  21  23
ATOM     22  O   UNL     1      40.918 -24.567 -14.346  0.00  0.00    -0.246 OA
ATOM     23  C   UNL     1      40.395 -25.667 -14.256  0.00  0.00    +0.359 C 
BRANCH  23  24
ATOM     24  O   UNL     1      40.989 -26.824 -14.644  0.00  0.00    -0.478 OA
ATOM     25  H   UNL     1      41.520 -26.842 -15.416  0.00  0.00    +0.295 HD
ENDBRANCH  23  24
ENDBRANCH  21  23
ENDBRANCH  20  21
ENDBRANCH  19  20
ENDBRANCH  17  19
ENDBRANCH   1  17
TORSDOF 8
ENDMDL
MODEL 9
REMARK VINA RESULT:      -8.3      3.824      6.113
REMARK  Name = 71771
REMARK  8 active torsions:
REMARK  status: ('A' for Active; 'I' for Inactive)
REMARK    1  A    between atoms: C_1  and  C_17
REMARK    2  A    between atoms: C_2  and  N_7
REMARK    3  A    between atoms: N_7  and  C_11
REMARK    4  A    between atoms: C_17  and  C_19
REMARK    5  A    between atoms: C_19  and  O_20
REMARK    6  A    between atoms: O_20  and  C_21
REMARK    7  A    between atoms: C_21  and  C_23
REMARK    8  A    between atoms: C_23  and  O_24
REMARK                            x       y       z     vdW  Elec       q    Type
REMARK                         _______ _______ _______ _____ _____    ______ ____
ROOT
ATOM      1  C   UNL     1      32.435 -11.370 -22.997  0.00  0.00    +0.002 C 
ATOM      2  C   UNL     1      33.128 -12.333 -23.731  0.00  0.00    +0.045 C 
ATOM      3  C   UNL     1      32.773 -10.021 -23.120  0.00  0.00    -0.002 C 
ATOM      4  C   UNL     1      34.157 -11.948 -24.589  0.00  0.00    +0.014 C 
ATOM      5  C   UNL     1      33.804  -9.637 -23.977  0.00  0.00    -0.000 C 
ATOM      6  C   UNL     1      34.496 -10.600 -24.712  0.00  0.00    +0.001 C 
ENDROOT
BRANCH   2   7
ATOM      7  N   UNL     1      32.798 -13.701 -23.620  0.00  0.00    -0.311 N 
ATOM      8  H   UNL     1      31.846 -13.865 -23.433  0.00  0.00    +0.152 HD
BRANCH   7  11
ATOM      9 CL   UNL     1      34.176 -14.573 -21.077  0.00  0.00    -0.081 Cl
ATOM     10 CL   UNL     1      32.831 -14.991 -26.352  0.00  0.00    -0.081 Cl
ATOM     11  C   UNL     1      33.565 -14.877 -23.723  0.00  0.00    +0.070 C 
ATOM     12  C   UNL     1      34.248 -15.373 -22.607  0.00  0.00    +0.072 C 
ATOM     13  C   UNL     1      33.653 -15.559 -24.942  0.00  0.00    +0.072 C 
ATOM     14  C   UNL     1      35.008 -16.539 -22.709  0.00  0.00    +0.013 C 
ATOM     15  C   UNL     1      34.413 -16.724 -25.043  0.00  0.00    +0.013 C 
ATOM     16  C   UNL     1      35.090 -17.214 -23.927  0.00  0.00    +0.002 C 
ENDBRANCH   7  11
ENDBRANCH   2   7
BRANCH   1  17
ATOM     17  C   UNL     1      31.328 -11.753 -22.070  0.00  0.00    +0.137 C 
BRANCH  17  19
ATOM     18  O   UNL     1      31.891 -11.996 -19.716  0.00  0.00    -0.250 OA
ATOM     19  C   UNL     1      31.543 -11.282 -20.647  0.00  0.00    +0.322 C 
BRANCH  19  20
ATOM     20  O   UNL     1      31.288  -9.941 -20.573  0.00  0.00    -0.436 OA
BRANCH  20  21
ATOM     21  C   UNL     1      32.156  -9.194 -19.715  0.00  0.00    +0.317 C 
BRANCH  21  23
ATOM     22  O   UNL     1      31.818  -7.359 -21.270  0.00  0.00    -0.246 OA
ATOM     23  C   UNL     1      32.323  -7.799 -20.249  0.00  0.00    +0.359 C 
BRANCH  23  24
ATOM     24  O   UNL     1      33.125  -7.076 -19.427  0.00  0.00    -0.478 OA
ATOM     25  H   UNL     1      32.751  -6.459 -18.830  0.00  0.00    +0.295 HD
ENDBRANCH  23  24
ENDBRANCH  21  23
ENDBRANCH  20  21
ENDBRANCH  19  20
ENDBRANCH  17  19
ENDBRANCH   1  17
TORSDOF 8
ENDMDL
