MODEL 1
REMARK VINA RESULT:     -12.5      0.000      0.000
REMARK  Name = 9889200
REMARK  5 active torsions:
REMARK  status: ('A' for Active; 'I' for Inactive)
REMARK    1  A    between atoms: C_1  and  C_21
REMARK    2  A    between atoms: C_4  and  O_7
REMARK    3  A    between atoms: O_7  and  C_8
REMARK    4  A    between atoms: C_8  and  C_12
REMARK    5  A    between atoms: C_21  and  C_26
REMARK                            x       y       z     vdW  Elec       q    Type
REMARK                         _______ _______ _______ _____ _____    ______ ____
ROOT
ATOM      1  C   UNL     1      35.474 -19.823 -20.688  0.00  0.00    -0.021 C 
ATOM      2  C   UNL     1      34.126 -20.159 -20.577  0.00  0.00    -0.001 C 
ATOM      3  C   UNL     1      36.444 -20.616 -20.073  0.00  0.00    -0.001 C 
ATOM      4  C   UNL     1      34.718 -22.070 -19.244  0.00  0.00    +0.139 C 
ATOM      5  C   UNL     1      33.745 -21.289 -19.851  0.00  0.00    +0.037 C 
ATOM      6  C   UNL     1      36.064 -21.745 -19.348  0.00  0.00    +0.037 C 
ENDROOT
BRANCH   4   7
ATOM      7  O   UNL     1      34.343 -23.184 -18.530  0.00  0.00    -0.466 OA
BRANCH   7   8
ATOM      8  C   UNL     1      33.473 -22.987 -17.437  0.00  0.00    +0.279 C 
BRANCH   8  12
ATOM      9  O   UNL     1      33.266 -24.388 -12.817  0.00  0.00    -0.274 OA
ATOM     10  N   UNL     1      33.343 -23.705 -15.055  0.00  0.00    -0.232 N 
ATOM     11  N   UNL     1      35.428 -23.635 -16.196  0.00  0.00    -0.391 NA
ATOM     12  C   UNL     1      34.142 -23.469 -16.171  0.00  0.00    +0.210 C 
ATOM     13  C   UNL     1      35.360 -24.350 -13.855  0.00  0.00    +0.151 C 
ATOM     14  C   UNL     1      36.064 -24.081 -15.031  0.00  0.00    +0.123 C 
ATOM     15  C   UNL     1      33.894 -24.155 -13.845  0.00  0.00    +0.241 C 
ATOM     16  C   UNL     1      31.897 -23.493 -15.108  0.00  0.00    +0.122 C 
ATOM     17  C   UNL     1      36.025 -24.795 -12.708  0.00  0.00    -0.010 C 
ATOM     18  C   UNL     1      37.451 -24.265 -15.045  0.00  0.00    +0.028 C 
ATOM     19  C   UNL     1      37.408 -24.974 -12.736  0.00  0.00    -0.004 C 
ATOM     20  C   UNL     1      38.120 -24.709 -13.904  0.00  0.00    +0.002 C 
ENDBRANCH   8  12
ENDBRANCH   7   8
ENDBRANCH   4   7
BRANCH   1  21
ATOM     21  C   UNL     1      35.880 -18.616 -21.462  0.00  0.00    +0.047 C 
BRANCH  21  26
ATOM     22  S   UNL     1      34.764 -18.592 -23.988  0.00  0.00    -0.048 S 
ATOM     23  O   UNL     1      34.842 -15.797 -21.327  0.00  0.00    -0.274 OA
ATOM     24  O   UNL     1      34.825 -16.736 -25.850  0.00  0.00    -0.263 OA
ATOM     25  N   UNL     1      34.827 -16.064 -23.625  0.00  0.00    -0.246 N 
ATOM     26  C   UNL     1      34.721 -18.024 -22.261  0.00  0.00    +0.137 C 
ATOM     27  C   UNL     1      34.804 -16.515 -22.321  0.00  0.00    +0.239 C 
ATOM     28  C   UNL     1      34.809 -16.972 -24.651  0.00  0.00    +0.279 C 
ATOM     29  H   UNL     1      34.854 -15.098 -23.815  0.00  0.00    +0.158 HD
ENDBRANCH  21  26
ENDBRANCH   1  21
TORSDOF 5
ENDMDL
MODEL 2
REMARK VINA RESULT:     -12.4      1.274      3.585
REMARK  Name = 9889200
REMARK  5 active torsions:
REMARK  status: ('A' for Active; 'I' for Inactive)
REMARK    1  A    between atoms: C_1  and  C_21
REMARK    2  A    between atoms: C_4  and  O_7
REMARK    3  A    between atoms: O_7  and  C_8
REMARK    4  A    between atoms: C_8  and  C_12
REMARK    5  A    between atoms: C_21  and  C_26
REMARK                            x       y       z     vdW  Elec       q    Type
REMARK                         _______ _______ _______ _____ _____    ______ ____
ROOT
ATOM      1  C   UNL     1      35.572 -19.826 -20.671  0.00  0.00    -0.021 C 
ATOM      2  C   UNL     1      36.548 -20.557 -19.994  0.00  0.00    -0.001 C 
ATOM      3  C   UNL     1      34.226 -20.166 -20.536  0.00  0.00    -0.001 C 
ATOM      4  C   UNL     1      34.836 -21.960 -19.055  0.00  0.00    +0.139 C 
ATOM      5  C   UNL     1      36.178 -21.630 -19.182  0.00  0.00    +0.037 C 
ATOM      6  C   UNL     1      33.856 -21.238 -19.724  0.00  0.00    +0.037 C 
ENDROOT
BRANCH   4   7
ATOM      7  O   UNL     1      34.471 -23.016 -18.253  0.00  0.00    -0.466 OA
BRANCH   7   8
ATOM      8  C   UNL     1      34.677 -22.873 -16.865  0.00  0.00    +0.279 C 
BRANCH   8  12
ATOM      9  O   UNL     1      32.639 -24.994 -13.031  0.00  0.00    -0.274 OA
ATOM     10  N   UNL     1      33.648 -23.970 -14.879  0.00  0.00    -0.232 N 
ATOM     11  N   UNL     1      32.304 -23.221 -16.693  0.00  0.00    -0.391 NA
ATOM     12  C   UNL     1      33.460 -23.374 -16.124  0.00  0.00    +0.210 C 
ATOM     13  C   UNL     1      31.238 -24.292 -14.766  0.00  0.00    +0.151 C 
ATOM     14  C   UNL     1      31.165 -23.681 -16.020  0.00  0.00    +0.123 C 
ATOM     15  C   UNL     1      32.564 -24.458 -14.133  0.00  0.00    +0.241 C 
ATOM     16  C   UNL     1      34.987 -24.105 -14.306  0.00  0.00    +0.122 C 
ATOM     17  C   UNL     1      30.081 -24.740 -14.119  0.00  0.00    -0.010 C 
ATOM     18  C   UNL     1      29.912 -23.522 -16.622  0.00  0.00    +0.028 C 
ATOM     19  C   UNL     1      28.839 -24.574 -14.731  0.00  0.00    -0.004 C 
ATOM     20  C   UNL     1      28.755 -23.966 -15.982  0.00  0.00    +0.002 C 
ENDBRANCH   8  12
ENDBRANCH   7   8
ENDBRANCH   4   7
BRANCH   1  21
ATOM     21  C   UNL     1      35.968 -18.681 -21.539  0.00  0.00    +0.047 C 
BRANCH  21  26
ATOM     22  S   UNL     1      34.800 -18.616 -24.041  0.00  0.00    -0.048 S 
ATOM     23  O   UNL     1      34.873 -15.890 -21.310  0.00  0.00    -0.274 OA
ATOM     24  O   UNL     1      34.785 -16.712 -25.855  0.00  0.00    -0.263 OA
ATOM     25  N   UNL     1      34.817 -16.097 -23.613  0.00  0.00    -0.246 N 
ATOM     26  C   UNL     1      34.780 -18.094 -22.299  0.00  0.00    +0.137 C 
ATOM     27  C   UNL     1      34.830 -16.582 -22.322  0.00  0.00    +0.239 C 
ATOM     28  C   UNL     1      34.797 -16.979 -24.662  0.00  0.00    +0.279 C 
ATOM     29  H   UNL     1      34.820 -15.127 -23.779  0.00  0.00    +0.158 HD
ENDBRANCH  21  26
ENDBRANCH   1  21
TORSDOF 5
ENDMDL
MODEL 3
REMARK VINA RESULT:     -11.9      1.585      2.373
REMARK  Name = 9889200
REMARK  5 active torsions:
REMARK  status: ('A' for Active; 'I' for Inactive)
REMARK    1  A    between atoms: C_1  and  C_21
REMARK    2  A    between atoms: C_4  and  O_7
REMARK    3  A    between atoms: O_7  and  C_8
REMARK    4  A    between atoms: C_8  and  C_12
REMARK    5  A    between atoms: C_21  and  C_26
REMARK                            x       y       z     vdW  Elec       q    Type
REMARK                         _______ _______ _______ _____ _____    ______ ____
ROOT
ATOM      1  C   UNL     1      33.995 -20.435 -20.362  0.00  0.00    -0.021 C 
ATOM      2  C   UNL     1      35.315 -20.782 -20.080  0.00  0.00    -0.001 C 
ATOM      3  C   UNL     1      32.949 -21.051 -19.676  0.00  0.00    -0.001 C 
ATOM      4  C   UNL     1      34.543 -22.356 -18.435  0.00  0.00    +0.139 C 
ATOM      5  C   UNL     1      35.591 -21.748 -19.112  0.00  0.00    +0.037 C 
ATOM      6  C   UNL     1      33.224 -22.016 -18.707  0.00  0.00    +0.037 C 
ENDROOT
BRANCH   4   7
ATOM      7  O   UNL     1      34.815 -23.306 -17.479  0.00  0.00    -0.466 OA
BRANCH   7   8
ATOM      8  C   UNL     1      34.670 -22.923 -16.129  0.00  0.00    +0.279 C 
BRANCH   8  12
ATOM      9  O   UNL     1      35.939 -25.335 -12.139  0.00  0.00    -0.274 OA
ATOM     10  N   UNL     1      35.303 -24.163 -14.063  0.00  0.00    -0.232 N 
ATOM     11  N   UNL     1      36.906 -23.729 -15.765  0.00  0.00    -0.391 NA
ATOM     12  C   UNL     1      35.701 -23.641 -15.291  0.00  0.00    +0.210 C 
ATOM     13  C   UNL     1      37.583 -24.954 -13.756  0.00  0.00    +0.151 C 
ATOM     14  C   UNL     1      37.875 -24.392 -15.001  0.00  0.00    +0.123 C 
ATOM     15  C   UNL     1      36.206 -24.844 -13.232  0.00  0.00    +0.241 C 
ATOM     16  C   UNL     1      33.923 -24.021 -13.599  0.00  0.00    +0.122 C 
ATOM     17  C   UNL     1      38.574 -25.610 -13.018  0.00  0.00    -0.010 C 
ATOM     18  C   UNL     1      39.177 -24.494 -15.501  0.00  0.00    +0.028 C 
ATOM     19  C   UNL     1      39.868 -25.705 -13.529  0.00  0.00    -0.004 C 
ATOM     20  C   UNL     1      40.170 -25.147 -14.769  0.00  0.00    +0.002 C 
ENDBRANCH   8  12
ENDBRANCH   7   8
ENDBRANCH   4   7
BRANCH   1  21
ATOM     21  C   UNL     1      33.701 -19.404 -21.398  0.00  0.00    +0.047 C 
BRANCH  21  26
ATOM     22  S   UNL     1      34.867 -16.903 -21.301  0.00  0.00    -0.048 S 
ATOM     23  O   UNL     1      35.135 -19.616 -24.032  0.00  0.00    -0.274 OA
ATOM     24  O   UNL     1      35.120 -15.077 -23.177  0.00  0.00    -0.263 OA
ATOM     25  N   UNL     1      35.165 -17.315 -23.805  0.00  0.00    -0.246 N 
ATOM     26  C   UNL     1      34.952 -18.641 -21.828  0.00  0.00    +0.137 C 
ATOM     27  C   UNL     1      35.091 -18.609 -23.334  0.00  0.00    +0.239 C 
ATOM     28  C   UNL     1      35.075 -16.272 -22.921  0.00  0.00    +0.279 C 
ATOM     29  H   UNL     1      35.283 -17.143 -24.767  0.00  0.00    +0.158 HD
ENDBRANCH  21  26
ENDBRANCH   1  21
TORSDOF 5
ENDMDL
MODEL 4
REMARK VINA RESULT:     -11.9      1.463      3.320
REMARK  Name = 9889200
REMARK  5 active torsions:
REMARK  status: ('A' for Active; 'I' for Inactive)
REMARK    1  A    between atoms: C_1  and  C_21
REMARK    2  A    between atoms: C_4  and  O_7
REMARK    3  A    between atoms: O_7  and  C_8
REMARK    4  A    between atoms: C_8  and  C_12
REMARK    5  A    between atoms: C_21  and  C_26
REMARK                            x       y       z     vdW  Elec       q    Type
REMARK                         _______ _______ _______ _____ _____    ______ ____
ROOT
ATOM      1  C   UNL     1      35.574 -19.441 -20.935  0.00  0.00    -0.021 C 
ATOM      2  C   UNL     1      36.638 -20.096 -20.316  0.00  0.00    -0.001 C 
ATOM      3  C   UNL     1      34.267 -19.879 -20.722  0.00  0.00    -0.001 C 
ATOM      4  C   UNL     1      35.092 -21.618 -19.280  0.00  0.00    +0.139 C 
ATOM      5  C   UNL     1      36.396 -21.191 -19.485  0.00  0.00    +0.037 C 
ATOM      6  C   UNL     1      34.024 -20.973 -19.891  0.00  0.00    +0.037 C 
ENDROOT
BRANCH   4   7
ATOM      7  O   UNL     1      34.853 -22.695 -18.460  0.00  0.00    -0.466 OA
BRANCH   7   8
ATOM      8  C   UNL     1      35.328 -22.614 -17.134  0.00  0.00    +0.279 C 
BRANCH   8  12
ATOM      9  O   UNL     1      33.997 -24.400 -12.846  0.00  0.00    -0.274 OA
ATOM     10  N   UNL     1      34.664 -23.535 -14.916  0.00  0.00    -0.232 N 
ATOM     11  N   UNL     1      33.047 -23.181 -16.624  0.00  0.00    -0.391 NA
ATOM     12  C   UNL     1      34.270 -23.135 -16.191  0.00  0.00    +0.210 C 
ATOM     13  C   UNL     1      32.338 -24.088 -14.462  0.00  0.00    +0.151 C 
ATOM     14  C   UNL     1      32.053 -23.662 -15.762  0.00  0.00    +0.123 C 
ATOM     15  C   UNL     1      33.736 -24.028 -13.986  0.00  0.00    +0.241 C 
ATOM     16  C   UNL     1      36.065 -23.451 -14.504  0.00  0.00    +0.122 C 
ATOM     17  C   UNL     1      31.322 -24.562 -13.626  0.00  0.00    -0.010 C 
ATOM     18  C   UNL     1      30.731 -23.717 -16.217  0.00  0.00    +0.028 C 
ATOM     19  C   UNL     1      30.009 -24.611 -14.093  0.00  0.00    -0.004 C 
ATOM     20  C   UNL     1      29.714 -24.189 -15.387  0.00  0.00    +0.002 C 
ENDBRANCH   8  12
ENDBRANCH   7   8
ENDBRANCH   4   7
BRANCH   1  21
ATOM     21  C   UNL     1      35.833 -18.273 -21.824  0.00  0.00    +0.047 C 
BRANCH  21  26
ATOM     22  S   UNL     1      34.409 -16.809 -23.683  0.00  0.00    -0.048 S 
ATOM     23  O   UNL     1      34.944 -16.119 -19.923  0.00  0.00    -0.274 OA
ATOM     24  O   UNL     1      34.316 -14.212 -24.084  0.00  0.00    -0.263 OA
ATOM     25  N   UNL     1      34.627 -14.981 -21.912  0.00  0.00    -0.246 N 
ATOM     26  C   UNL     1      34.609 -17.371 -21.964  0.00  0.00    +0.137 C 
ATOM     27  C   UNL     1      34.749 -16.114 -21.134  0.00  0.00    +0.239 C 
ATOM     28  C   UNL     1      34.440 -15.110 -23.263  0.00  0.00    +0.279 C 
ATOM     29  H   UNL     1      34.672 -14.089 -21.499  0.00  0.00    +0.158 HD
ENDBRANCH  21  26
ENDBRANCH   1  21
TORSDOF 5
ENDMDL
MODEL 5
REMARK VINA RESULT:     -11.7      3.250     10.282
REMARK  Name = 9889200
REMARK  5 active torsions:
REMARK  status: ('A' for Active; 'I' for Inactive)
REMARK    1  A    between atoms: C_1  and  C_21
REMARK    2  A    between atoms: C_4  and  O_7
REMARK    3  A    between atoms: O_7  and  C_8
REMARK    4  A    between atoms: C_8  and  C_12
REMARK    5  A    between atoms: C_21  and  C_26
REMARK                            x       y       z     vdW  Elec       q    Type
REMARK                         _______ _______ _______ _____ _____    ______ ____
ROOT
ATOM      1  C   UNL     1      34.018 -22.179 -18.861  0.00  0.00    -0.021 C 
ATOM      2  C   UNL     1      35.397 -22.044 -19.013  0.00  0.00    -0.001 C 
ATOM      3  C   UNL     1      33.155 -21.284 -19.493  0.00  0.00    -0.001 C 
ATOM      4  C   UNL     1      35.047 -20.128 -20.423  0.00  0.00    +0.139 C 
ATOM      5  C   UNL     1      35.914 -21.013 -19.798  0.00  0.00    +0.037 C 
ATOM      6  C   UNL     1      33.671 -20.254 -20.278  0.00  0.00    +0.037 C 
ENDROOT
BRANCH   4   7
ATOM      7  O   UNL     1      35.557 -19.113 -21.198  0.00  0.00    -0.466 OA
BRANCH   7   8
ATOM      8  C   UNL     1      35.038 -18.975 -22.502  0.00  0.00    +0.279 C 
BRANCH   8  12
ATOM      9  O   UNL     1      33.682 -15.253 -25.270  0.00  0.00    -0.274 OA
ATOM     10  N   UNL     1      34.347 -17.067 -23.948  0.00  0.00    -0.232 N 
ATOM     11  N   UNL     1      34.066 -16.974 -21.589  0.00  0.00    -0.391 NA
ATOM     12  C   UNL     1      34.447 -17.594 -22.663  0.00  0.00    +0.210 C 
ATOM     13  C   UNL     1      33.368 -15.070 -22.961  0.00  0.00    +0.151 C 
ATOM     14  C   UNL     1      33.516 -15.693 -21.719  0.00  0.00    +0.123 C 
ATOM     15  C   UNL     1      33.808 -15.791 -24.174  0.00  0.00    +0.241 C 
ATOM     16  C   UNL     1      34.801 -17.831 -25.110  0.00  0.00    +0.122 C 
ATOM     17  C   UNL     1      32.814 -13.789 -23.057  0.00  0.00    -0.010 C 
ATOM     18  C   UNL     1      33.101 -15.014 -20.568  0.00  0.00    +0.028 C 
ATOM     19  C   UNL     1      32.404 -13.124 -21.902  0.00  0.00    -0.004 C 
ATOM     20  C   UNL     1      32.548 -13.736 -20.658  0.00  0.00    +0.002 C 
ENDBRANCH   8  12
ENDBRANCH   7   8
ENDBRANCH   4   7
BRANCH   1  21
ATOM     21  C   UNL     1      33.465 -23.280 -18.021  0.00  0.00    +0.047 C 
BRANCH  21  26
ATOM     22  S   UNL     1      33.906 -23.695 -15.327  0.00  0.00    -0.048 S 
ATOM     23  O   UNL     1      30.670 -22.616 -17.132  0.00  0.00    -0.274 OA
ATOM     24  O   UNL     1      32.425 -24.926 -13.537  0.00  0.00    -0.263 OA
ATOM     25  N   UNL     1      31.355 -23.805 -15.269  0.00  0.00    -0.246 N 
ATOM     26  C   UNL     1      33.031 -22.792 -16.640  0.00  0.00    +0.137 C 
ATOM     27  C   UNL     1      31.558 -23.044 -16.402  0.00  0.00    +0.239 C 
ATOM     28  C   UNL     1      32.436 -24.248 -14.554  0.00  0.00    +0.279 C 
ATOM     29  H   UNL     1      30.441 -24.026 -14.978  0.00  0.00    +0.158 HD
ENDBRANCH  21  26
ENDBRANCH   1  21
TORSDOF 5
ENDMDL
MODEL 6
REMARK VINA RESULT:     -11.7      4.451     11.478
REMARK  Name = 9889200
REMARK  5 active torsions:
REMARK  status: ('A' for Active; 'I' for Inactive)
REMARK    1  A    between atoms: C_1  and  C_21
REMARK    2  A    between atoms: C_4  and  O_7
REMARK    3  A    between atoms: O_7  and  C_8
REMARK    4  A    between atoms: C_8  and  C_12
REMARK    5  A    between atoms: C_21  and  C_26
REMARK                            x       y       z     vdW  Elec       q    Type
REMARK                         _______ _______ _______ _____ _____    ______ ____
ROOT
ATOM      1  C   UNL     1      34.968 -18.601 -22.207  0.00  0.00    -0.021 C 
ATOM      2  C   UNL     1      34.965 -18.330 -23.575  0.00  0.00    -0.001 C 
ATOM      3  C   UNL     1      34.837 -17.559 -21.289  0.00  0.00    -0.001 C 
ATOM      4  C   UNL     1      34.704 -15.987 -23.104  0.00  0.00    +0.139 C 
ATOM      5  C   UNL     1      34.833 -17.016 -24.026  0.00  0.00    +0.037 C 
ATOM      6  C   UNL     1      34.704 -16.246 -21.739  0.00  0.00    +0.037 C 
ENDROOT
BRANCH   4   7
ATOM      7  O   UNL     1      34.572 -14.693 -23.548  0.00  0.00    -0.466 OA
BRANCH   7   8
ATOM      8  C   UNL     1      33.280 -14.269 -23.925  0.00  0.00    +0.279 C 
BRANCH   8  12
ATOM      9  O   UNL     1      33.181  -9.439 -23.820  0.00  0.00    -0.274 OA
ATOM     10  N   UNL     1      33.239 -11.778 -23.892  0.00  0.00    -0.232 N 
ATOM     11  N   UNL     1      32.429 -13.037 -22.044  0.00  0.00    -0.391 NA
ATOM     12  C   UNL     1      32.955 -12.969 -23.228  0.00  0.00    +0.210 C 
ATOM     13  C   UNL     1      32.364 -10.590 -21.957  0.00  0.00    +0.151 C 
ATOM     14  C   UNL     1      32.123 -11.841 -21.383  0.00  0.00    +0.123 C 
ATOM     15  C   UNL     1      32.964 -10.533 -23.307  0.00  0.00    +0.241 C 
ATOM     16  C   UNL     1      33.834 -11.788 -25.228  0.00  0.00    +0.122 C 
ATOM     17  C   UNL     1      32.046  -9.414 -21.270  0.00  0.00    -0.010 C 
ATOM     18  C   UNL     1      31.555 -11.900 -20.105  0.00  0.00    +0.028 C 
ATOM     19  C   UNL     1      31.480  -9.488 -19.998  0.00  0.00    -0.004 C 
ATOM     20  C   UNL     1      31.235 -10.730 -19.416  0.00  0.00    +0.002 C 
ENDBRANCH   8  12
ENDBRANCH   7   8
ENDBRANCH   4   7
BRANCH   1  21
ATOM     21  C   UNL     1      35.110 -20.005 -21.725  0.00  0.00    +0.047 C 
BRANCH  21  26
ATOM     22  S   UNL     1      35.530 -21.459 -19.416  0.00  0.00    -0.048 S 
ATOM     23  O   UNL     1      32.233 -20.063 -20.856  0.00  0.00    -0.274 OA
ATOM     24  O   UNL     1      34.167 -23.469 -18.408  0.00  0.00    -0.263 OA
ATOM     25  N   UNL     1      33.011 -21.843 -19.601  0.00  0.00    -0.246 N 
ATOM     26  C   UNL     1      34.583 -20.185 -20.303  0.00  0.00    +0.137 C 
ATOM     27  C   UNL     1      33.148 -20.663 -20.302  0.00  0.00    +0.239 C 
ATOM     28  C   UNL     1      34.120 -22.431 -19.052  0.00  0.00    +0.279 C 
ATOM     29  H   UNL     1      32.125 -22.258 -19.496  0.00  0.00    +0.158 HD
ENDBRANCH  21  26
ENDBRANCH   1  21
TORSDOF 5
ENDMDL
MODEL 7
REMARK VINA RESULT:     -11.6      7.771     12.203
REMARK  Name = 9889200
REMARK  5 active torsions:
REMARK  status: ('A' for Active; 'I' for Inactive)
REMARK    1  A    between atoms: C_1  and  C_21
REMARK    2  A    between atoms: C_4  and  O_7
REMARK    3  A    between atoms: O_7  and  C_8
REMARK    4  A    between atoms: C_8  and  C_12
REMARK    5  A    between atoms: C_21  and  C_26
REMARK                            x       y       z     vdW  Elec       q    Type
REMARK                         _______ _______ _______ _____ _____    ______ ____
ROOT
ATOM      1  C   UNL     1      33.624  -8.360 -23.576  0.00  0.00    -0.021 C 
ATOM      2  C   UNL     1      34.736  -8.788 -24.301  0.00  0.00    -0.001 C 
ATOM      3  C   UNL     1      32.682  -9.287 -23.132  0.00  0.00    -0.001 C 
ATOM      4  C   UNL     1      33.961 -11.058 -24.137  0.00  0.00    +0.139 C 
ATOM      5  C   UNL     1      34.905 -10.144 -24.583  0.00  0.00    +0.037 C 
ATOM      6  C   UNL     1      32.851 -10.643 -23.413  0.00  0.00    +0.037 C 
ENDROOT
BRANCH   4   7
ATOM      7  O   UNL     1      34.129 -12.394 -24.414  0.00  0.00    -0.466 OA
BRANCH   7   8
ATOM      8  C   UNL     1      33.088 -13.268 -24.034  0.00  0.00    +0.279 C 
BRANCH   8  12
ATOM      9  O   UNL     1      34.304 -17.574 -25.857  0.00  0.00    -0.274 OA
ATOM     10  N   UNL     1      33.707 -15.481 -24.995  0.00  0.00    -0.232 N 
ATOM     11  N   UNL     1      34.021 -15.023 -22.682  0.00  0.00    -0.391 NA
ATOM     12  C   UNL     1      33.640 -14.663 -23.869  0.00  0.00    +0.210 C 
ATOM     13  C   UNL     1      34.648 -17.217 -23.573  0.00  0.00    +0.151 C 
ATOM     14  C   UNL     1      34.535 -16.315 -22.512  0.00  0.00    +0.123 C 
ATOM     15  C   UNL     1      34.209 -16.789 -24.918  0.00  0.00    +0.241 C 
ATOM     16  C   UNL     1      33.255 -14.999 -26.300  0.00  0.00    +0.122 C 
ATOM     17  C   UNL     1      35.167 -18.500 -23.369  0.00  0.00    -0.010 C 
ATOM     18  C   UNL     1      34.950 -16.716 -21.237  0.00  0.00    +0.028 C 
ATOM     19  C   UNL     1      35.577 -18.885 -22.093  0.00  0.00    -0.004 C 
ATOM     20  C   UNL     1      35.468 -17.994 -21.028  0.00  0.00    +0.002 C 
ENDBRANCH   8  12
ENDBRANCH   7   8
ENDBRANCH   4   7
BRANCH   1  21
ATOM     21  C   UNL     1      33.443  -6.911 -23.275  0.00  0.00    +0.047 C 
BRANCH  21  26
ATOM     22  S   UNL     1      31.542  -5.158 -24.243  0.00  0.00    -0.048 S 
ATOM     23  O   UNL     1      31.871  -6.700 -20.721  0.00  0.00    -0.274 OA
ATOM     24  O   UNL     1      30.498  -3.011 -23.139  0.00  0.00    -0.263 OA
ATOM     25  N   UNL     1      31.117  -4.773 -21.754  0.00  0.00    -0.246 N 
ATOM     26  C   UNL     1      31.971  -6.531 -23.130  0.00  0.00    +0.137 C 
ATOM     27  C   UNL     1      31.662  -6.040 -21.733  0.00  0.00    +0.239 C 
ATOM     28  C   UNL     1      30.960  -4.128 -22.953  0.00  0.00    +0.279 C 
ATOM     29  H   UNL     1      30.842  -4.337 -20.915  0.00  0.00    +0.158 HD
ENDBRANCH  21  26
ENDBRANCH   1  21
TORSDOF 5
ENDMDL
MODEL 8
REMARK VINA RESULT:     -11.5      5.020     12.233
REMARK  Name = 9889200
REMARK  5 active torsions:
REMARK  status: ('A' for Active; 'I' for Inactive)
REMARK    1  A    between atoms: C_1  and  C_21
REMARK    2  A    between atoms: C_4  and  O_7
REMARK    3  A    between atoms: O_7  and  C_8
REMARK    4  A    between atoms: C_8  and  C_12
REMARK    5  A    between atoms: C_21  and  C_26
REMARK                            x       y       z     vdW  Elec       q    Type
REMARK                         _______ _______ _______ _____ _____    ______ ____
ROOT
ATOM      1  C   UNL     1      34.725 -18.072 -22.378  0.00  0.00    -0.021 C 
ATOM      2  C   UNL     1      34.846 -17.638 -23.698  0.00  0.00    -0.001 C 
ATOM      3  C   UNL     1      34.561 -17.144 -21.351  0.00  0.00    -0.001 C 
ATOM      4  C   UNL     1      34.640 -15.359 -22.960  0.00  0.00    +0.139 C 
ATOM      5  C   UNL     1      34.803 -16.274 -23.990  0.00  0.00    +0.037 C 
ATOM      6  C   UNL     1      34.517 -15.781 -21.642  0.00  0.00    +0.037 C 
ENDROOT
BRANCH   4   7
ATOM      7  O   UNL     1      34.596 -14.015 -23.248  0.00  0.00    -0.466 OA
BRANCH   7   8
ATOM      8  C   UNL     1      33.398 -13.512 -23.799  0.00  0.00    +0.279 C 
BRANCH   8  12
ATOM      9  O   UNL     1      31.427  -9.872 -21.306  0.00  0.00    -0.274 OA
ATOM     10  N   UNL     1      32.368 -11.651 -22.502  0.00  0.00    -0.232 N 
ATOM     11  N   UNL     1      34.038 -11.220 -24.139  0.00  0.00    -0.391 NA
ATOM     12  C   UNL     1      33.280 -12.041 -23.480  0.00  0.00    +0.210 C 
ATOM     13  C   UNL     1      33.060  -9.351 -22.894  0.00  0.00    +0.151 C 
ATOM     14  C   UNL     1      33.941  -9.851 -23.857  0.00  0.00    +0.123 C 
ATOM     15  C   UNL     1      32.204 -10.301 -22.153  0.00  0.00    +0.241 C 
ATOM     16  C   UNL     1      31.548 -12.641 -21.804  0.00  0.00    +0.122 C 
ATOM     17  C   UNL     1      32.988  -7.978 -22.636  0.00  0.00    -0.010 C 
ATOM     18  C   UNL     1      34.753  -8.955 -24.560  0.00  0.00    +0.028 C 
ATOM     19  C   UNL     1      33.804  -7.097 -23.344  0.00  0.00    -0.004 C 
ATOM     20  C   UNL     1      34.686  -7.585 -24.306  0.00  0.00    +0.002 C 
ENDBRANCH   8  12
ENDBRANCH   7   8
ENDBRANCH   4   7
BRANCH   1  21
ATOM     21  C   UNL     1      34.772 -19.529 -22.066  0.00  0.00    +0.047 C 
BRANCH  21  26
ATOM     22  S   UNL     1      35.612 -21.070 -19.935  0.00  0.00    -0.048 S 
ATOM     23  O   UNL     1      32.064 -19.816 -20.790  0.00  0.00    -0.274 OA
ATOM     24  O   UNL     1      34.530 -23.213 -18.861  0.00  0.00    -0.263 OA
ATOM     25  N   UNL     1      33.120 -21.605 -19.772  0.00  0.00    -0.246 N 
ATOM     26  C   UNL     1      34.474 -19.816 -20.596  0.00  0.00    +0.137 C 
ATOM     27  C   UNL     1      33.084 -20.384 -20.413  0.00  0.00    +0.239 C 
ATOM     28  C   UNL     1      34.330 -22.148 -19.427  0.00  0.00    +0.279 C 
ATOM     29  H   UNL     1      32.283 -22.081 -19.564  0.00  0.00    +0.158 HD
ENDBRANCH  21  26
ENDBRANCH   1  21
TORSDOF 5
ENDMDL
MODEL 9
REMARK VINA RESULT:     -11.5      1.407      2.043
REMARK  Name = 9889200
REMARK  5 active torsions:
REMARK  status: ('A' for Active; 'I' for Inactive)
REMARK    1  A    between atoms: C_1  and  C_21
REMARK    2  A    between atoms: C_4  and  O_7
REMARK    3  A    between atoms: O_7  and  C_8
REMARK    4  A    between atoms: C_8  and  C_12
REMARK    5  A    between atoms: C_21  and  C_26
REMARK                            x       y       z     vdW  Elec       q    Type
REMARK                         _______ _______ _______ _____ _____    ______ ____
ROOT
ATOM      1  C   UNL     1      34.364 -19.415 -21.297  0.00  0.00    -0.021 C 
ATOM      2  C   UNL     1      35.646 -19.796 -20.905  0.00  0.00    -0.001 C 
ATOM      3  C   UNL     1      33.250 -20.063 -20.764  0.00  0.00    -0.001 C 
ATOM      4  C   UNL     1      34.700 -21.465 -19.455  0.00  0.00    +0.139 C 
ATOM      5  C   UNL     1      35.815 -20.827 -19.979  0.00  0.00    +0.037 C 
ATOM      6  C   UNL     1      33.418 -21.092 -19.838  0.00  0.00    +0.037 C 
ENDROOT
BRANCH   4   7
ATOM      7  O   UNL     1      34.866 -22.479 -18.542  0.00  0.00    -0.466 OA
BRANCH   7   8
ATOM      8  C   UNL     1      33.720 -22.910 -17.840  0.00  0.00    +0.279 C 
BRANCH   8  12
ATOM      9  O   UNL     1      32.558 -24.041 -13.289  0.00  0.00    -0.274 OA
ATOM     10  N   UNL     1      33.098 -23.489 -15.499  0.00  0.00    -0.232 N 
ATOM     11  N   UNL     1      35.375 -23.452 -16.183  0.00  0.00    -0.391 NA
ATOM     12  C   UNL     1      34.111 -23.306 -16.437  0.00  0.00    +0.210 C 
ATOM     13  C   UNL     1      34.822 -24.030 -13.868  0.00  0.00    +0.151 C 
ATOM     14  C   UNL     1      35.756 -23.819 -14.886  0.00  0.00    +0.123 C 
ATOM     15  C   UNL     1      33.386 -23.858 -14.176  0.00  0.00    +0.241 C 
ATOM     16  C   UNL     1      31.694 -23.304 -15.865  0.00  0.00    +0.122 C 
ATOM     17  C   UNL     1      35.235 -24.396 -12.583  0.00  0.00    -0.010 C 
ATOM     18  C   UNL     1      37.116 -23.980 -14.599  0.00  0.00    +0.028 C 
ATOM     19  C   UNL     1      36.594 -24.553 -12.312  0.00  0.00    -0.004 C 
ATOM     20  C   UNL     1      37.533 -24.346 -13.319  0.00  0.00    +0.002 C 
ENDBRANCH   8  12
ENDBRANCH   7   8
ENDBRANCH   4   7
BRANCH   1  21
ATOM     21  C   UNL     1      34.184 -18.315 -22.287  0.00  0.00    +0.047 C 
BRANCH  21  26
ATOM     22  S   UNL     1      33.039 -16.262 -20.838  0.00  0.00    -0.048 S 
ATOM     23  O   UNL     1      35.763 -16.100 -23.567  0.00  0.00    -0.274 OA
ATOM     24  O   UNL     1      32.198 -13.898 -21.623  0.00  0.00    -0.263 OA
ATOM     25  N   UNL     1      34.019 -14.839 -22.719  0.00  0.00    -0.246 N 
ATOM     26  C   UNL     1      34.494 -16.944 -21.691  0.00  0.00    +0.137 C 
ATOM     27  C   UNL     1      34.848 -15.940 -22.766  0.00  0.00    +0.239 C 
ATOM     28  C   UNL     1      33.012 -14.794 -21.792  0.00  0.00    +0.279 C 
ATOM     29  H   UNL     1      34.151 -14.091 -23.347  0.00  0.00    +0.158 HD
ENDBRANCH  21  26
ENDBRANCH   1  21
TORSDOF 5
ENDMDL
