MODEL 1
REMARK VINA RESULT:      -6.5      0.000      0.000
REMARK  Name = 9638
REMARK  3 active torsions:
REMARK  status: ('A' for Active; 'I' for Inactive)
REMARK    1  A    between atoms: C_3  and  C_7
REMARK    2  A    between atoms: C_3  and  C_10
REMARK    3  A    between atoms: C_10  and  C_14
REMARK                            x       y       z     vdW  Elec       q    Type
REMARK                         _______ _______ _______ _____ _____    ______ ____
ROOT
ATOM      1  F   UNL     1      30.012 -25.414 -16.229  0.00  0.00    -0.189 F 
ATOM      2  F   UNL     1      28.697 -25.061 -14.531  0.00  0.00    -0.189 F 
ATOM      3  C   UNL     1      29.404 -24.432 -15.505  0.00  0.00    +0.411 C 
ENDROOT
BRANCH   3   7
ATOM      4  F   UNL     1      27.457 -23.099 -15.735  0.00  0.00    -0.165 F 
ATOM      5  F   UNL     1      27.849 -24.600 -17.258  0.00  0.00    -0.165 F 
ATOM      6  F   UNL     1      29.070 -22.795 -17.175  0.00  0.00    -0.165 F 
ATOM      7  C   UNL     1      28.439 -23.718 -16.420  0.00  0.00    +0.460 C 
ENDBRANCH   3   7
BRANCH   3  10
ATOM      8  F   UNL     1      31.454 -23.373 -15.812  0.00  0.00    -0.189 F 
ATOM      9  F   UNL     1      29.989 -22.365 -14.557  0.00  0.00    -0.189 F 
ATOM     10  C   UNL     1      30.494 -23.587 -14.869  0.00  0.00    +0.411 C 
BRANCH  10  14
ATOM     11  F   UNL     1      31.503 -25.453 -13.829  0.00  0.00    -0.165 F 
ATOM     12  F   UNL     1      32.305 -23.476 -13.377  0.00  0.00    -0.165 F 
ATOM     13  F   UNL     1      30.385 -24.079 -12.553  0.00  0.00    -0.165 F 
ATOM     14  C   UNL     1      31.168 -24.158 -13.647  0.00  0.00    +0.460 C 
ENDBRANCH  10  14
ENDBRANCH   3  10
TORSDOF 3
ENDMDL
MODEL 2
REMARK VINA RESULT:      -6.5      0.062      4.015
REMARK  Name = 9638
REMARK  3 active torsions:
REMARK  status: ('A' for Active; 'I' for Inactive)
REMARK    1  A    between atoms: C_3  and  C_7
REMARK    2  A    between atoms: C_3  and  C_10
REMARK    3  A    between atoms: C_10  and  C_14
REMARK                            x       y       z     vdW  Elec       q    Type
REMARK                         _______ _______ _______ _____ _____    ______ ____
ROOT
ATOM      1  F   UNL     1      31.446 -23.341 -15.781  0.00  0.00    -0.189 F 
ATOM      2  F   UNL     1      29.984 -22.371 -14.493  0.00  0.00    -0.189 F 
ATOM      3  C   UNL     1      30.491 -23.582 -14.839  0.00  0.00    +0.411 C 
ENDROOT
BRANCH   3   7
ATOM      4  F   UNL     1      30.373 -24.190 -12.550  0.00  0.00    -0.165 F 
ATOM      5  F   UNL     1      32.276 -23.467 -13.316  0.00  0.00    -0.165 F 
ATOM      6  F   UNL     1      31.565 -25.452 -13.875  0.00  0.00    -0.165 F 
ATOM      7  C   UNL     1      31.174 -24.183 -13.635  0.00  0.00    +0.460 C 
ENDBRANCH   3   7
BRANCH   3  10
ATOM      8  F   UNL     1      30.009 -25.394 -16.219  0.00  0.00    -0.189 F 
ATOM      9  F   UNL     1      28.683 -25.048 -14.528  0.00  0.00    -0.189 F 
ATOM     10  C   UNL     1      29.401 -24.415 -15.492  0.00  0.00    +0.411 C 
BRANCH  10  14
ATOM     11  F   UNL     1      27.868 -24.531 -17.285  0.00  0.00    -0.165 F 
ATOM     12  F   UNL     1      27.462 -23.103 -15.688  0.00  0.00    -0.165 F 
ATOM     13  F   UNL     1      29.063 -22.712 -17.106  0.00  0.00    -0.165 F 
ATOM     14  C   UNL     1      28.448 -23.687 -16.406  0.00  0.00    +0.460 C 
ENDBRANCH  10  14
ENDBRANCH   3  10
TORSDOF 3
ENDMDL
MODEL 3
REMARK VINA RESULT:      -6.4     10.349     11.679
REMARK  Name = 9638
REMARK  3 active torsions:
REMARK  status: ('A' for Active; 'I' for Inactive)
REMARK    1  A    between atoms: C_3  and  C_7
REMARK    2  A    between atoms: C_3  and  C_10
REMARK    3  A    between atoms: C_10  and  C_14
REMARK                            x       y       z     vdW  Elec       q    Type
REMARK                         _______ _______ _______ _____ _____    ______ ____
ROOT
ATOM      1  F   UNL     1      33.700 -16.668 -22.640  0.00  0.00    -0.189 F 
ATOM      2  F   UNL     1      35.764 -16.253 -23.195  0.00  0.00    -0.189 F 
ATOM      3  C   UNL     1      34.729 -17.101 -23.424  0.00  0.00    +0.411 C 
ENDROOT
BRANCH   3   7
ATOM      4  F   UNL     1      35.345 -16.748 -25.685  0.00  0.00    -0.165 F 
ATOM      5  F   UNL     1      33.456 -15.914 -25.002  0.00  0.00    -0.165 F 
ATOM      6  F   UNL     1      33.651 -18.068 -25.291  0.00  0.00    -0.165 F 
ATOM      7  C   UNL     1      34.298 -16.964 -24.863  0.00  0.00    +0.460 C 
ENDBRANCH   3   7
BRANCH   3  10
ATOM      8  F   UNL     1      33.955 -19.179 -22.713  0.00  0.00    -0.189 F 
ATOM      9  F   UNL     1      35.734 -19.153 -23.966  0.00  0.00    -0.189 F 
ATOM     10  C   UNL     1      35.109 -18.495 -22.955  0.00  0.00    +0.411 C 
BRANCH  10  14
ATOM     11  F   UNL     1      35.824 -19.778 -21.106  0.00  0.00    -0.165 F 
ATOM     12  F   UNL     1      37.272 -18.441 -22.040  0.00  0.00    -0.165 F 
ATOM     13  F   UNL     1      35.667 -17.619 -20.824  0.00  0.00    -0.165 F 
ATOM     14  C   UNL     1      35.966 -18.584 -21.718  0.00  0.00    +0.460 C 
ENDBRANCH  10  14
ENDBRANCH   3  10
TORSDOF 3
ENDMDL
MODEL 4
REMARK VINA RESULT:      -6.4     10.137     11.651
REMARK  Name = 9638
REMARK  3 active torsions:
REMARK  status: ('A' for Active; 'I' for Inactive)
REMARK    1  A    between atoms: C_3  and  C_7
REMARK    2  A    between atoms: C_3  and  C_10
REMARK    3  A    between atoms: C_10  and  C_14
REMARK                            x       y       z     vdW  Elec       q    Type
REMARK                         _______ _______ _______ _____ _____    ______ ____
ROOT
ATOM      1  F   UNL     1      34.982 -14.983 -19.878  0.00  0.00    -0.189 F 
ATOM      2  F   UNL     1      34.785 -14.355 -21.953  0.00  0.00    -0.189 F 
ATOM      3  C   UNL     1      34.241 -15.165 -21.008  0.00  0.00    +0.411 C 
ENDROOT
BRANCH   3   7
ATOM      4  F   UNL     1      31.983 -15.010 -21.711  0.00  0.00    -0.165 F 
ATOM      5  F   UNL     1      32.813 -13.350 -20.579  0.00  0.00    -0.165 F 
ATOM      6  F   UNL     1      32.366 -15.233 -19.573  0.00  0.00    -0.165 F 
ATOM      7  C   UNL     1      32.837 -14.695 -20.717  0.00  0.00    +0.460 C 
ENDBRANCH   3   7
BRANCH   3  10
ATOM      8  F   UNL     1      35.468 -17.128 -20.760  0.00  0.00    -0.189 F 
ATOM      9  F   UNL     1      33.317 -17.323 -21.030  0.00  0.00    -0.189 F 
ATOM     10  C   UNL     1      34.402 -16.613 -21.436  0.00  0.00    +0.411 C 
BRANCH  10  14
ATOM     11  F   UNL     1      35.877 -16.534 -23.279  0.00  0.00    -0.165 F 
ATOM     12  F   UNL     1      34.445 -18.177 -23.188  0.00  0.00    -0.165 F 
ATOM     13  F   UNL     1      33.761 -16.171 -23.675  0.00  0.00    -0.165 F 
ATOM     14  C   UNL     1      34.623 -16.866 -22.905  0.00  0.00    +0.460 C 
ENDBRANCH  10  14
ENDBRANCH   3  10
TORSDOF 3
ENDMDL
MODEL 5
REMARK VINA RESULT:      -6.4     10.196     11.566
REMARK  Name = 9638
REMARK  3 active torsions:
REMARK  status: ('A' for Active; 'I' for Inactive)
REMARK    1  A    between atoms: C_3  and  C_7
REMARK    2  A    between atoms: C_3  and  C_10
REMARK    3  A    between atoms: C_10  and  C_14
REMARK                            x       y       z     vdW  Elec       q    Type
REMARK                         _______ _______ _______ _____ _____    ______ ____
ROOT
ATOM      1  F   UNL     1      35.432 -17.037 -20.738  0.00  0.00    -0.189 F 
ATOM      2  F   UNL     1      33.283 -17.217 -21.029  0.00  0.00    -0.189 F 
ATOM      3  C   UNL     1      34.378 -16.527 -21.437  0.00  0.00    +0.411 C 
ENDROOT
BRANCH   3   7
ATOM      4  F   UNL     1      33.747 -16.155 -23.692  0.00  0.00    -0.165 F 
ATOM      5  F   UNL     1      34.462 -18.135 -23.148  0.00  0.00    -0.165 F 
ATOM      6  F   UNL     1      35.866 -16.470 -23.272  0.00  0.00    -0.165 F 
ATOM      7  C   UNL     1      34.616 -16.815 -22.900  0.00  0.00    +0.460 C 
ENDBRANCH   3   7
BRANCH   3  10
ATOM      8  F   UNL     1      34.996 -14.856 -19.939  0.00  0.00    -0.189 F 
ATOM      9  F   UNL     1      34.748 -14.284 -22.024  0.00  0.00    -0.189 F 
ATOM     10  C   UNL     1      34.228 -15.068 -21.045  0.00  0.00    +0.411 C 
BRANCH  10  14
ATOM     11  F   UNL     1      31.966 -14.927 -21.712  0.00  0.00    -0.165 F 
ATOM     12  F   UNL     1      32.390 -15.150 -19.584  0.00  0.00    -0.165 F 
ATOM     13  F   UNL     1      32.779 -13.253 -20.571  0.00  0.00    -0.165 F 
ATOM     14  C   UNL     1      32.832 -14.590 -20.733  0.00  0.00    +0.460 C 
ENDBRANCH  10  14
ENDBRANCH   3  10
TORSDOF 3
ENDMDL
MODEL 6
REMARK VINA RESULT:      -6.3      0.797      1.990
REMARK  Name = 9638
REMARK  3 active torsions:
REMARK  status: ('A' for Active; 'I' for Inactive)
REMARK    1  A    between atoms: C_3  and  C_7
REMARK    2  A    between atoms: C_3  and  C_10
REMARK    3  A    between atoms: C_10  and  C_14
REMARK                            x       y       z     vdW  Elec       q    Type
REMARK                         _______ _______ _______ _____ _____    ______ ____
ROOT
ATOM      1  F   UNL     1      29.402 -22.156 -14.728  0.00  0.00    -0.189 F 
ATOM      2  F   UNL     1      30.401 -22.693 -16.585  0.00  0.00    -0.189 F 
ATOM      3  C   UNL     1      29.435 -23.091 -15.719  0.00  0.00    +0.411 C 
ENDROOT
BRANCH   3   7
ATOM      4  F   UNL     1      27.083 -22.825 -15.577  0.00  0.00    -0.165 F 
ATOM      5  F   UNL     1      27.862 -24.241 -17.032  0.00  0.00    -0.165 F 
ATOM      6  F   UNL     1      28.078 -22.099 -17.380  0.00  0.00    -0.165 F 
ATOM      7  C   UNL     1      28.103 -23.055 -16.428  0.00  0.00    +0.460 C 
ENDBRANCH   3   7
BRANCH   3  10
ATOM      8  F   UNL     1      28.726 -24.953 -14.515  0.00  0.00    -0.189 F 
ATOM      9  F   UNL     1      30.216 -25.278 -16.068  0.00  0.00    -0.189 F 
ATOM     10  C   UNL     1      29.838 -24.414 -15.091  0.00  0.00    +0.411 C 
BRANCH  10  14
ATOM     11  F   UNL     1      31.557 -25.549 -13.936  0.00  0.00    -0.165 F 
ATOM     12  F   UNL     1      31.845 -23.431 -14.367  0.00  0.00    -0.165 F 
ATOM     13  F   UNL     1      30.435 -24.040 -12.827  0.00  0.00    -0.165 F 
ATOM     14  C   UNL     1      30.921 -24.364 -14.043  0.00  0.00    +0.460 C 
ENDBRANCH  10  14
ENDBRANCH   3  10
TORSDOF 3
ENDMDL
MODEL 7
REMARK VINA RESULT:      -6.3     10.306     11.874
REMARK  Name = 9638
REMARK  3 active torsions:
REMARK  status: ('A' for Active; 'I' for Inactive)
REMARK    1  A    between atoms: C_3  and  C_7
REMARK    2  A    between atoms: C_3  and  C_10
REMARK    3  A    between atoms: C_10  and  C_14
REMARK                            x       y       z     vdW  Elec       q    Type
REMARK                         _______ _______ _______ _____ _____    ______ ____
ROOT
ATOM      1  F   UNL     1      35.747 -16.067 -23.347  0.00  0.00    -0.189 F 
ATOM      2  F   UNL     1      33.593 -16.282 -23.576  0.00  0.00    -0.189 F 
ATOM      3  C   UNL     1      34.666 -16.764 -22.896  0.00  0.00    +0.411 C 
ENDROOT
BRANCH   3   7
ATOM      4  F   UNL     1      33.233 -16.674 -21.010  0.00  0.00    -0.165 F 
ATOM      5  F   UNL     1      34.764 -15.142 -21.199  0.00  0.00    -0.165 F 
ATOM      6  F   UNL     1      35.329 -17.181 -20.668  0.00  0.00    -0.165 F 
ATOM      7  C   UNL     1      34.493 -16.447 -21.431  0.00  0.00    +0.460 C 
ENDBRANCH   3   7
BRANCH   3  10
ATOM      8  F   UNL     1      36.177 -18.531 -22.998  0.00  0.00    -0.189 F 
ATOM      9  F   UNL     1      34.128 -19.002 -22.433  0.00  0.00    -0.189 F 
ATOM     10  C   UNL     1      34.875 -18.224 -23.259  0.00  0.00    +0.411 C 
BRANCH  10  14
ATOM     11  F   UNL     1      35.055 -17.696 -25.554  0.00  0.00    -0.165 F 
ATOM     12  F   UNL     1      35.182 -19.795 -24.978  0.00  0.00    -0.165 F 
ATOM     13  F   UNL     1      33.266 -18.770 -24.912  0.00  0.00    -0.165 F 
ATOM     14  C   UNL     1      34.586 -18.616 -24.686  0.00  0.00    +0.460 C 
ENDBRANCH  10  14
ENDBRANCH   3  10
TORSDOF 3
ENDMDL
MODEL 8
REMARK VINA RESULT:      -6.3      9.607     11.063
REMARK  Name = 9638
REMARK  3 active torsions:
REMARK  status: ('A' for Active; 'I' for Inactive)
REMARK    1  A    between atoms: C_3  and  C_7
REMARK    2  A    between atoms: C_3  and  C_10
REMARK    3  A    between atoms: C_10  and  C_14
REMARK                            x       y       z     vdW  Elec       q    Type
REMARK                         _______ _______ _______ _____ _____    ______ ____
ROOT
ATOM      1  F   UNL     1      36.732 -18.130 -22.521  0.00  0.00    -0.189 F 
ATOM      2  F   UNL     1      35.650 -17.778 -20.665  0.00  0.00    -0.189 F 
ATOM      3  C   UNL     1      35.481 -18.049 -21.985  0.00  0.00    +0.411 C 
ENDROOT
BRANCH   3   7
ATOM      4  F   UNL     1      33.539 -19.388 -21.752  0.00  0.00    -0.165 F 
ATOM      5  F   UNL     1      35.465 -20.307 -21.335  0.00  0.00    -0.165 F 
ATOM      6  F   UNL     1      34.901 -19.855 -23.393  0.00  0.00    -0.165 F 
ATOM      7  C   UNL     1      34.835 -19.406 -22.123  0.00  0.00    +0.460 C 
ENDBRANCH   3   7
BRANCH   3  10
ATOM      8  F   UNL     1      35.721 -16.083 -23.208  0.00  0.00    -0.189 F 
ATOM      9  F   UNL     1      34.013 -17.348 -23.679  0.00  0.00    -0.189 F 
ATOM     10  C   UNL     1      34.770 -16.884 -22.650  0.00  0.00    +0.411 C 
BRANCH  10  14
ATOM     11  F   UNL     1      34.650 -15.187 -21.011  0.00  0.00    -0.165 F 
ATOM     12  F   UNL     1      33.073 -15.265 -22.514  0.00  0.00    -0.165 F 
ATOM     13  F   UNL     1      33.137 -16.759 -20.936  0.00  0.00    -0.165 F 
ATOM     14  C   UNL     1      33.905 -16.023 -21.764  0.00  0.00    +0.460 C 
ENDBRANCH  10  14
ENDBRANCH   3  10
TORSDOF 3
ENDMDL
MODEL 9
REMARK VINA RESULT:      -6.3      9.612     10.956
REMARK  Name = 9638
REMARK  3 active torsions:
REMARK  status: ('A' for Active; 'I' for Inactive)
REMARK    1  A    between atoms: C_3  and  C_7
REMARK    2  A    between atoms: C_3  and  C_10
REMARK    3  A    between atoms: C_10  and  C_14
REMARK                            x       y       z     vdW  Elec       q    Type
REMARK                         _______ _______ _______ _____ _____    ______ ____
ROOT
ATOM      1  F   UNL     1      35.700 -16.082 -23.232  0.00  0.00    -0.189 F 
ATOM      2  F   UNL     1      33.995 -17.355 -23.691  0.00  0.00    -0.189 F 
ATOM      3  C   UNL     1      34.758 -16.891 -22.669  0.00  0.00    +0.411 C 
ENDROOT
BRANCH   3   7
ATOM      4  F   UNL     1      33.143 -16.780 -20.936  0.00  0.00    -0.165 F 
ATOM      5  F   UNL     1      33.052 -15.284 -22.510  0.00  0.00    -0.165 F 
ATOM      6  F   UNL     1      34.646 -15.198 -21.024  0.00  0.00    -0.165 F 
ATOM      7  C   UNL     1      33.897 -16.037 -21.771  0.00  0.00    +0.460 C 
ENDBRANCH   3   7
BRANCH   3  10
ATOM      8  F   UNL     1      36.728 -18.127 -22.563  0.00  0.00    -0.189 F 
ATOM      9  F   UNL     1      35.664 -17.785 -20.695  0.00  0.00    -0.189 F 
ATOM     10  C   UNL     1      35.482 -18.054 -22.014  0.00  0.00    +0.411 C 
BRANCH  10  14
ATOM     11  F   UNL     1      34.907 -19.867 -23.415  0.00  0.00    -0.165 F 
ATOM     12  F   UNL     1      35.475 -20.310 -21.357  0.00  0.00    -0.165 F 
ATOM     13  F   UNL     1      33.545 -19.400 -21.775  0.00  0.00    -0.165 F 
ATOM     14  C   UNL     1      34.841 -19.413 -22.147  0.00  0.00    +0.460 C 
ENDBRANCH  10  14
ENDBRANCH   3  10
TORSDOF 3
ENDMDL
