MODEL 1
REMARK VINA RESULT:      -9.8      0.000      0.000
REMARK  Name = 4858
REMARK  3 active torsions:
REMARK  status: ('A' for Active; 'I' for Inactive)
REMARK    1  A    between atoms: C_8  and  N_18
REMARK    2  A    between atoms: C_19  and  C_21
REMARK    3  A    between atoms: C_21  and  N_22
REMARK                            x       y       z     vdW  Elec       q    Type
REMARK                         _______ _______ _______ _____ _____    ______ ____
ROOT
ATOM      1  O   UNL     1      32.377 -20.674 -20.731  0.00  0.00    -0.267 OA
ATOM      2  N   UNL     1      32.655 -21.986 -18.874  0.00  0.00    -0.321 N 
ATOM      3  C   UNL     1      34.850 -22.300 -17.870  0.00  0.00    +0.017 A 
ATOM      4  C   UNL     1      35.421 -21.423 -18.913  0.00  0.00    +0.006 A 
ATOM      5  C   UNL     1      33.469 -22.559 -17.883  0.00  0.00    +0.059 A 
ATOM      6  C   UNL     1      34.575 -20.865 -19.892  0.00  0.00    +0.056 A 
ATOM      7  C   UNL     1      35.605 -22.905 -16.849  0.00  0.00    +0.016 C 
ATOM      8  C   UNL     1      35.007 -23.727 -15.889  0.00  0.00    +0.050 C 
ATOM      9  C   UNL     1      32.865 -23.382 -16.923  0.00  0.00    +0.018 C 
ATOM     10  C   UNL     1      33.118 -21.158 -19.878  0.00  0.00    +0.258 A 
ATOM     11  C   UNL     1      33.637 -23.965 -15.925  0.00  0.00    +0.016 C 
ATOM     12  C   UNL     1      36.790 -21.102 -18.989  0.00  0.00    +0.000 C 
ATOM     13  C   UNL     1      35.076 -20.027 -20.899  0.00  0.00    +0.005 C 
ATOM     14  C   UNL     1      37.290 -20.266 -19.992  0.00  0.00    +0.000 C 
ATOM     15  C   UNL     1      36.434 -19.730 -20.947  0.00  0.00    +0.000 C 
ATOM     16  H   UNL     1      31.692 -22.190 -18.853  0.00  0.00    +0.169 HD
ENDROOT
BRANCH   8  18
ATOM     17  O   UNL     1      36.142 -26.498 -15.680  0.00  0.00    -0.277 OA
ATOM     18  N   UNL     1      35.787 -24.312 -14.889  0.00  0.00    -0.286 N 
ATOM     19  C   UNL     1      36.299 -25.619 -14.838  0.00  0.00    +0.205 C 
ATOM     20  H   UNL     1      36.006 -23.734 -14.122  0.00  0.00    +0.155 HD
BRANCH  19  21
ATOM     21  C   UNL     1      37.097 -25.839 -13.565  0.00  0.00    +0.010 C 
BRANCH  21  22
ATOM     22  N   UNL     1      38.158 -24.844 -13.480  0.00  0.00    +0.390 N 
ATOM     23  C   UNL     1      39.456 -25.447 -13.788  0.00  0.00    -0.100 C 
ATOM     24  C   UNL     1      38.186 -24.230 -12.151  0.00  0.00    -0.100 C 
ATOM     25  H   UNL     1      37.965 -24.118 -14.170  0.00  0.00    -0.079 HD
ENDBRANCH  21  22
ENDBRANCH  19  21
ENDBRANCH   8  18
TORSDOF 3
ENDMDL
MODEL 2
REMARK VINA RESULT:      -9.6      5.078      7.918
REMARK  Name = 4858
REMARK  3 active torsions:
REMARK  status: ('A' for Active; 'I' for Inactive)
REMARK    1  A    between atoms: C_8  and  N_18
REMARK    2  A    between atoms: C_19  and  C_21
REMARK    3  A    between atoms: C_21  and  N_22
REMARK                            x       y       z     vdW  Elec       q    Type
REMARK                         _______ _______ _______ _____ _____    ______ ____
ROOT
ATOM      1  O   UNL     1      33.224 -13.540 -25.158  0.00  0.00    -0.267 OA
ATOM      2  N   UNL     1      34.028 -15.660 -24.835  0.00  0.00    -0.321 N 
ATOM      3  C   UNL     1      34.026 -16.686 -22.627  0.00  0.00    +0.017 A 
ATOM      4  C   UNL     1      33.419 -15.453 -22.086  0.00  0.00    +0.006 A 
ATOM      5  C   UNL     1      34.316 -16.753 -24.001  0.00  0.00    +0.059 A 
ATOM      6  C   UNL     1      33.144 -14.375 -22.952  0.00  0.00    +0.056 A 
ATOM      7  C   UNL     1      34.340 -17.816 -21.851  0.00  0.00    +0.016 C 
ATOM      8  C   UNL     1      34.914 -18.956 -22.422  0.00  0.00    +0.050 C 
ATOM      9  C   UNL     1      34.892 -17.893 -24.578  0.00  0.00    +0.018 C 
ATOM     10  C   UNL     1      33.462 -14.477 -24.400  0.00  0.00    +0.258 A 
ATOM     11  C   UNL     1      35.190 -18.995 -23.785  0.00  0.00    +0.016 C 
ATOM     12  C   UNL     1      33.092 -15.284 -20.727  0.00  0.00    +0.000 C 
ATOM     13  C   UNL     1      32.568 -13.187 -22.479  0.00  0.00    +0.005 C 
ATOM     14  C   UNL     1      32.517 -14.100 -20.255  0.00  0.00    +0.000 C 
ATOM     15  C   UNL     1      32.256 -13.052 -21.130  0.00  0.00    +0.000 C 
ATOM     16  H   UNL     1      34.245 -15.742 -25.792  0.00  0.00    +0.169 HD
ENDROOT
BRANCH   8  18
ATOM     17  O   UNL     1      36.910 -19.264 -20.201  0.00  0.00    -0.277 OA
ATOM     18  N   UNL     1      35.213 -20.061 -21.621  0.00  0.00    -0.286 N 
ATOM     19  C   UNL     1      36.160 -20.155 -20.587  0.00  0.00    +0.205 C 
ATOM     20  H   UNL     1      34.695 -20.877 -21.805  0.00  0.00    +0.155 HD
BRANCH  19  21
ATOM     21  C   UNL     1      36.158 -21.546 -19.977  0.00  0.00    +0.010 C 
BRANCH  21  22
ATOM     22  N   UNL     1      35.421 -21.524 -18.721  0.00  0.00    +0.390 N 
ATOM     23  C   UNL     1      36.276 -21.954 -17.613  0.00  0.00    -0.100 C 
ATOM     24  C   UNL     1      34.232 -22.375 -18.804  0.00  0.00    -0.100 C 
ATOM     25  H   UNL     1      35.122 -20.564 -18.548  0.00  0.00    -0.079 HD
ENDBRANCH  21  22
ENDBRANCH  19  21
ENDBRANCH   8  18
TORSDOF 3
ENDMDL
MODEL 3
REMARK VINA RESULT:      -9.4      8.625     13.230
REMARK  Name = 4858
REMARK  3 active torsions:
REMARK  status: ('A' for Active; 'I' for Inactive)
REMARK    1  A    between atoms: C_8  and  N_18
REMARK    2  A    between atoms: C_19  and  C_21
REMARK    3  A    between atoms: C_21  and  N_22
REMARK                            x       y       z     vdW  Elec       q    Type
REMARK                         _______ _______ _______ _____ _____    ______ ____
ROOT
ATOM      1  O   UNL     1      34.461 -18.239 -25.491  0.00  0.00    -0.267 OA
ATOM      2  N   UNL     1      33.983 -16.017 -25.771  0.00  0.00    -0.321 N 
ATOM      3  C   UNL     1      33.987 -14.480 -23.882  0.00  0.00    +0.017 A 
ATOM      4  C   UNL     1      34.348 -15.609 -23.001  0.00  0.00    +0.006 A 
ATOM      5  C   UNL     1      33.813 -14.721 -25.256  0.00  0.00    +0.059 A 
ATOM      6  C   UNL     1      34.511 -16.896 -23.551  0.00  0.00    +0.056 A 
ATOM      7  C   UNL     1      33.801 -13.159 -23.436  0.00  0.00    +0.016 C 
ATOM      8  C   UNL     1      33.459 -12.131 -24.320  0.00  0.00    +0.050 C 
ATOM      9  C   UNL     1      33.470 -13.694 -26.146  0.00  0.00    +0.018 C 
ATOM     10  C   UNL     1      34.320 -17.118 -25.008  0.00  0.00    +0.258 A 
ATOM     11  C   UNL     1      33.294 -12.398 -25.675  0.00  0.00    +0.016 C 
ATOM     12  C   UNL     1      34.544 -15.474 -21.613  0.00  0.00    +0.000 C 
ATOM     13  C   UNL     1      34.854 -17.995 -22.749  0.00  0.00    +0.005 C 
ATOM     14  C   UNL     1      34.886 -16.569 -20.813  0.00  0.00    +0.000 C 
ATOM     15  C   UNL     1      35.040 -17.828 -21.381  0.00  0.00    +0.000 C 
ATOM     16  H   UNL     1      33.853 -16.149 -26.738  0.00  0.00    +0.169 HD
ENDROOT
BRANCH   8  18
ATOM     17  O   UNL     1      35.346  -9.797 -24.293  0.00  0.00    -0.277 OA
ATOM     18  N   UNL     1      33.282 -10.831 -23.842  0.00  0.00    -0.286 N 
ATOM     19  C   UNL     1      34.200  -9.767 -23.854  0.00  0.00    +0.205 C 
ATOM     20  H   UNL     1      32.403 -10.635 -23.446  0.00  0.00    +0.155 HD
BRANCH  19  21
ATOM     21  C   UNL     1      33.594  -8.523 -23.229  0.00  0.00    +0.010 C 
BRANCH  21  22
ATOM     22  N   UNL     1      32.293  -8.850 -22.661  0.00  0.00    +0.390 N 
ATOM     23  C   UNL     1      31.240  -8.045 -23.284  0.00  0.00    -0.100 C 
ATOM     24  C   UNL     1      32.296  -8.646 -21.211  0.00  0.00    -0.100 C 
ATOM     25  H   UNL     1      32.105  -9.834 -22.851  0.00  0.00    -0.079 HD
ENDBRANCH  21  22
ENDBRANCH  19  21
ENDBRANCH   8  18
TORSDOF 3
ENDMDL
MODEL 4
REMARK VINA RESULT:      -9.0      3.404      7.336
REMARK  Name = 4858
REMARK  3 active torsions:
REMARK  status: ('A' for Active; 'I' for Inactive)
REMARK    1  A    between atoms: C_8  and  N_18
REMARK    2  A    between atoms: C_19  and  C_21
REMARK    3  A    between atoms: C_21  and  N_22
REMARK                            x       y       z     vdW  Elec       q    Type
REMARK                         _______ _______ _______ _____ _____    ______ ____
ROOT
ATOM      1  O   UNL     1      38.481 -23.266 -15.462  0.00  0.00    -0.267 OA
ATOM      2  N   UNL     1      36.343 -23.150 -16.276  0.00  0.00    -0.321 N 
ATOM      3  C   UNL     1      34.423 -23.571 -14.840  0.00  0.00    +0.017 A 
ATOM      4  C   UNL     1      35.352 -23.809 -13.716  0.00  0.00    +0.006 A 
ATOM      5  C   UNL     1      34.953 -23.246 -16.100  0.00  0.00    +0.059 A 
ATOM      6  C   UNL     1      36.742 -23.704 -13.928  0.00  0.00    +0.056 A 
ATOM      7  C   UNL     1      33.023 -23.649 -14.735  0.00  0.00    +0.016 C 
ATOM      8  C   UNL     1      32.194 -23.414 -15.836  0.00  0.00    +0.050 C 
ATOM      9  C   UNL     1      34.127 -23.009 -17.207  0.00  0.00    +0.018 C 
ATOM     10  C   UNL     1      37.270 -23.358 -15.273  0.00  0.00    +0.258 A 
ATOM     11  C   UNL     1      32.746 -23.093 -17.072  0.00  0.00    +0.016 C 
ATOM     12  C   UNL     1      34.924 -24.140 -12.416  0.00  0.00    +0.000 C 
ATOM     13  C   UNL     1      37.658 -23.921 -12.888  0.00  0.00    +0.005 C 
ATOM     14  C   UNL     1      35.837 -24.357 -11.379  0.00  0.00    +0.000 C 
ATOM     15  C   UNL     1      37.202 -24.248 -11.615  0.00  0.00    +0.000 C 
ATOM     16  H   UNL     1      36.679 -22.921 -17.173  0.00  0.00    +0.169 HD
ENDROOT
BRANCH   8  18
ATOM     17  O   UNL     1      30.445 -25.779 -15.243  0.00  0.00    -0.277 OA
ATOM     18  N   UNL     1      30.808 -23.500 -15.696  0.00  0.00    -0.286 N 
ATOM     19  C   UNL     1      30.032 -24.637 -15.415  0.00  0.00    +0.205 C 
ATOM     20  H   UNL     1      30.311 -22.658 -15.810  0.00  0.00    +0.155 HD
BRANCH  19  21
ATOM     21  C   UNL     1      28.556 -24.282 -15.351  0.00  0.00    +0.010 C 
BRANCH  21  22
ATOM     22  N   UNL     1      28.310 -23.089 -16.148  0.00  0.00    +0.390 N 
ATOM     23  C   UNL     1      27.309 -22.235 -15.505  0.00  0.00    -0.100 C 
ATOM     24  C   UNL     1      27.875 -23.451 -17.499  0.00  0.00    -0.100 C 
ATOM     25  H   UNL     1      29.185 -22.569 -16.217  0.00  0.00    -0.079 HD
ENDBRANCH  21  22
ENDBRANCH  19  21
ENDBRANCH   8  18
TORSDOF 3
ENDMDL
MODEL 5
REMARK VINA RESULT:      -8.9      8.998     13.426
REMARK  Name = 4858
REMARK  3 active torsions:
REMARK  status: ('A' for Active; 'I' for Inactive)
REMARK    1  A    between atoms: C_8  and  N_18
REMARK    2  A    between atoms: C_19  and  C_21
REMARK    3  A    between atoms: C_21  and  N_22
REMARK                            x       y       z     vdW  Elec       q    Type
REMARK                         _______ _______ _______ _____ _____    ______ ____
ROOT
ATOM      1  O   UNL     1      34.542 -17.596 -20.986  0.00  0.00    -0.267 OA
ATOM      2  N   UNL     1      33.536 -15.571 -20.625  0.00  0.00    -0.321 N 
ATOM      3  C   UNL     1      32.969 -14.097 -22.479  0.00  0.00    +0.017 A 
ATOM      4  C   UNL     1      33.526 -15.101 -23.410  0.00  0.00    +0.006 A 
ATOM      5  C   UNL     1      32.992 -14.365 -21.099  0.00  0.00    +0.059 A 
ATOM      6  C   UNL     1      34.064 -16.300 -22.899  0.00  0.00    +0.056 A 
ATOM      7  C   UNL     1      32.409 -12.873 -22.884  0.00  0.00    +0.016 C 
ATOM      8  C   UNL     1      31.897 -11.962 -21.954  0.00  0.00    +0.050 C 
ATOM      9  C   UNL     1      32.481 -13.456 -20.164  0.00  0.00    +0.018 C 
ATOM     10  C   UNL     1      34.074 -16.553 -21.435  0.00  0.00    +0.258 A 
ATOM     11  C   UNL     1      31.932 -12.253 -20.595  0.00  0.00    +0.016 C 
ATOM     12  C   UNL     1      33.552 -14.929 -24.807  0.00  0.00    +0.000 C 
ATOM     13  C   UNL     1      34.603 -17.278 -23.748  0.00  0.00    +0.005 C 
ATOM     14  C   UNL     1      34.089 -15.905 -25.654  0.00  0.00    +0.000 C 
ATOM     15  C   UNL     1      34.614 -17.078 -25.125  0.00  0.00    +0.000 C 
ATOM     16  H   UNL     1      33.536 -15.725 -19.653  0.00  0.00    +0.169 HD
ENDROOT
BRANCH   8  18
ATOM     17  O   UNL     1      33.234  -9.482 -22.989  0.00  0.00    -0.277 OA
ATOM     18  N   UNL     1      31.349 -10.755 -22.392  0.00  0.00    -0.286 N 
ATOM     19  C   UNL     1      32.020  -9.617 -22.872  0.00  0.00    +0.205 C 
ATOM     20  H   UNL     1      30.367 -10.692 -22.359  0.00  0.00    +0.155 HD
BRANCH  19  21
ATOM     21  C   UNL     1      31.034  -8.522 -23.239  0.00  0.00    +0.010 C 
BRANCH  21  22
ATOM     22  N   UNL     1      31.714  -7.234 -23.229  0.00  0.00    +0.390 N 
ATOM     23  C   UNL     1      31.533  -6.565 -21.939  0.00  0.00    -0.100 C 
ATOM     24  C   UNL     1      31.224  -6.382 -24.315  0.00  0.00    -0.100 C 
ATOM     25  H   UNL     1      32.710  -7.402 -23.371  0.00  0.00    -0.079 HD
ENDBRANCH  21  22
ENDBRANCH  19  21
ENDBRANCH   8  18
TORSDOF 3
ENDMDL
MODEL 6
REMARK VINA RESULT:      -8.9      2.133      7.255
REMARK  Name = 4858
REMARK  3 active torsions:
REMARK  status: ('A' for Active; 'I' for Inactive)
REMARK    1  A    between atoms: C_8  and  N_18
REMARK    2  A    between atoms: C_19  and  C_21
REMARK    3  A    between atoms: C_21  and  N_22
REMARK                            x       y       z     vdW  Elec       q    Type
REMARK                         _______ _______ _______ _____ _____    ______ ____
ROOT
ATOM      1  O   UNL     1      35.708 -25.388 -10.799  0.00  0.00    -0.267 OA
ATOM      2  N   UNL     1      34.384 -24.551 -12.469  0.00  0.00    -0.321 N 
ATOM      3  C   UNL     1      35.283 -24.108 -14.688  0.00  0.00    +0.017 A 
ATOM      4  C   UNL     1      36.601 -24.582 -14.217  0.00  0.00    +0.006 A 
ATOM      5  C   UNL     1      34.203 -24.106 -13.789  0.00  0.00    +0.059 A 
ATOM      6  C   UNL     1      36.747 -25.021 -12.885  0.00  0.00    +0.056 A 
ATOM      7  C   UNL     1      35.031 -23.651 -15.994  0.00  0.00    +0.016 C 
ATOM      8  C   UNL     1      33.761 -23.214 -16.381  0.00  0.00    +0.050 C 
ATOM      9  C   UNL     1      32.928 -23.669 -14.172  0.00  0.00    +0.018 C 
ATOM     10  C   UNL     1      35.585 -25.007 -11.960  0.00  0.00    +0.258 A 
ATOM     11  C   UNL     1      32.709 -23.223 -15.471  0.00  0.00    +0.016 C 
ATOM     12  C   UNL     1      37.746 -24.624 -15.036  0.00  0.00    +0.000 C 
ATOM     13  C   UNL     1      37.981 -25.479 -12.399  0.00  0.00    +0.005 C 
ATOM     14  C   UNL     1      38.976 -25.080 -14.551  0.00  0.00    +0.000 C 
ATOM     15  C   UNL     1      39.093 -25.507 -13.234  0.00  0.00    +0.000 C 
ATOM     16  H   UNL     1      33.605 -24.535 -11.867  0.00  0.00    +0.169 HD
ENDROOT
BRANCH   8  18
ATOM     17  O   UNL     1      35.699 -22.175 -18.423  0.00  0.00    -0.277 OA
ATOM     18  N   UNL     1      33.546 -22.766 -17.686  0.00  0.00    -0.286 N 
ATOM     19  C   UNL     1      34.492 -22.289 -18.608  0.00  0.00    +0.205 C 
ATOM     20  H   UNL     1      32.612 -22.787 -17.999  0.00  0.00    +0.155 HD
BRANCH  19  21
ATOM     21  C   UNL     1      33.824 -21.904 -19.917  0.00  0.00    +0.010 C 
BRANCH  21  22
ATOM     22  N   UNL     1      33.950 -20.468 -20.122  0.00  0.00    +0.390 N 
ATOM     23  C   UNL     1      32.703 -19.910 -20.649  0.00  0.00    -0.100 C 
ATOM     24  C   UNL     1      35.061 -20.170 -21.028  0.00  0.00    -0.100 C 
ATOM     25  H   UNL     1      34.143 -20.036 -19.218  0.00  0.00    -0.079 HD
ENDBRANCH  21  22
ENDBRANCH  19  21
ENDBRANCH   8  18
TORSDOF 3
ENDMDL
MODEL 7
REMARK VINA RESULT:      -8.9      2.241      7.364
REMARK  Name = 4858
REMARK  3 active torsions:
REMARK  status: ('A' for Active; 'I' for Inactive)
REMARK    1  A    between atoms: C_8  and  N_18
REMARK    2  A    between atoms: C_19  and  C_21
REMARK    3  A    between atoms: C_21  and  N_22
REMARK                            x       y       z     vdW  Elec       q    Type
REMARK                         _______ _______ _______ _____ _____    ______ ____
ROOT
ATOM      1  O   UNL     1      34.539 -24.645 -12.326  0.00  0.00    -0.267 OA
ATOM      2  N   UNL     1      35.722 -23.643 -14.013  0.00  0.00    -0.321 N 
ATOM      3  C   UNL     1      34.641 -22.993 -16.096  0.00  0.00    +0.017 A 
ATOM      4  C   UNL     1      33.366 -23.517 -15.564  0.00  0.00    +0.006 A 
ATOM      5  C   UNL     1      35.794 -23.073 -15.295  0.00  0.00    +0.059 A 
ATOM      6  C   UNL     1      33.330 -24.082 -14.273  0.00  0.00    +0.056 A 
ATOM      7  C   UNL     1      34.785 -22.410 -17.367  0.00  0.00    +0.016 C 
ATOM      8  C   UNL     1      36.020 -21.931 -17.815  0.00  0.00    +0.050 C 
ATOM      9  C   UNL     1      37.034 -22.596 -15.739  0.00  0.00    +0.018 C 
ATOM     10  C   UNL     1      34.566 -24.152 -13.451  0.00  0.00    +0.258 A 
ATOM     11  C   UNL     1      37.145 -22.024 -17.001  0.00  0.00    +0.016 C 
ATOM     12  C   UNL     1      32.157 -23.485 -16.285  0.00  0.00    +0.000 C 
ATOM     13  C   UNL     1      32.140 -24.590 -13.732  0.00  0.00    +0.005 C 
ATOM     14  C   UNL     1      30.970 -23.991 -15.745  0.00  0.00    +0.000 C 
ATOM     15  C   UNL     1      30.962 -24.544 -14.470  0.00  0.00    +0.000 C 
ATOM     16  H   UNL     1      36.549 -23.683 -13.480  0.00  0.00    +0.169 HD
ENDROOT
BRANCH   8  18
ATOM     17  O   UNL     1      33.898 -20.868 -19.652  0.00  0.00    -0.277 OA
ATOM     18  N   UNL     1      36.127 -21.359 -19.084  0.00  0.00    -0.286 N 
ATOM     19  C   UNL     1      35.098 -20.872 -19.908  0.00  0.00    +0.205 C 
ATOM     20  H   UNL     1      37.039 -21.288 -19.448  0.00  0.00    +0.155 HD
BRANCH  19  21
ATOM     21  C   UNL     1      35.660 -20.332 -21.212  0.00  0.00    +0.010 C 
BRANCH  21  22
ATOM     22  N   UNL     1      34.839 -19.220 -21.670  0.00  0.00    +0.390 N 
ATOM     23  C   UNL     1      34.762 -19.202 -23.132  0.00  0.00    -0.100 C 
ATOM     24  C   UNL     1      35.371 -17.948 -21.174  0.00  0.00    -0.100 C 
ATOM     25  H   UNL     1      33.899 -19.346 -21.296  0.00  0.00    -0.079 HD
ENDBRANCH  21  22
ENDBRANCH  19  21
ENDBRANCH   8  18
TORSDOF 3
ENDMDL
MODEL 8
REMARK VINA RESULT:      -8.9      2.882      7.668
REMARK  Name = 4858
REMARK  3 active torsions:
REMARK  status: ('A' for Active; 'I' for Inactive)
REMARK    1  A    between atoms: C_8  and  N_18
REMARK    2  A    between atoms: C_19  and  C_21
REMARK    3  A    between atoms: C_21  and  N_22
REMARK                            x       y       z     vdW  Elec       q    Type
REMARK                         _______ _______ _______ _____ _____    ______ ____
ROOT
ATOM      1  O   UNL     1      33.213 -24.065 -15.540  0.00  0.00    -0.267 OA
ATOM      2  N   UNL     1      32.978 -22.843 -17.463  0.00  0.00    -0.321 N 
ATOM      3  C   UNL     1      34.889 -21.747 -18.500  0.00  0.00    +0.017 A 
ATOM      4  C   UNL     1      35.745 -22.279 -17.419  0.00  0.00    +0.006 A 
ATOM      5  C   UNL     1      33.516 -22.048 -18.489  0.00  0.00    +0.059 A 
ATOM      6  C   UNL     1      35.171 -23.073 -16.406  0.00  0.00    +0.056 A 
ATOM      7  C   UNL     1      35.360 -20.947 -19.556  0.00  0.00    +0.016 C 
ATOM      8  C   UNL     1      34.500 -20.473 -20.552  0.00  0.00    +0.050 C 
ATOM      9  C   UNL     1      32.650 -21.575 -19.483  0.00  0.00    +0.018 C 
ATOM     10  C   UNL     1      33.716 -23.374 -16.422  0.00  0.00    +0.258 A 
ATOM     11  C   UNL     1      33.146 -20.787 -20.516  0.00  0.00    +0.016 C 
ATOM     12  C   UNL     1      37.129 -22.035 -17.338  0.00  0.00    +0.000 C 
ATOM     13  C   UNL     1      35.948 -23.598 -15.362  0.00  0.00    +0.005 C 
ATOM     14  C   UNL     1      37.904 -22.558 -16.298  0.00  0.00    +0.000 C 
ATOM     15  C   UNL     1      37.314 -23.338 -15.311  0.00  0.00    +0.000 C 
ATOM     16  H   UNL     1      32.013 -23.033 -17.486  0.00  0.00    +0.169 HD
ENDROOT
BRANCH   8  18
ATOM     17  O   UNL     1      35.345 -17.592 -20.559  0.00  0.00    -0.277 OA
ATOM     18  N   UNL     1      35.002 -19.680 -21.586  0.00  0.00    -0.286 N 
ATOM     19  C   UNL     1      35.387 -18.329 -21.538  0.00  0.00    +0.205 C 
ATOM     20  H   UNL     1      35.097 -20.124 -22.460  0.00  0.00    +0.155 HD
BRANCH  19  21
ATOM     21  C   UNL     1      35.877 -17.859 -22.897  0.00  0.00    +0.010 C 
BRANCH  21  22
ATOM     22  N   UNL     1      34.777 -17.237 -23.620  0.00  0.00    +0.390 N 
ATOM     23  C   UNL     1      34.751 -17.690 -25.012  0.00  0.00    -0.100 C 
ATOM     24  C   UNL     1      34.881 -15.777 -23.564  0.00  0.00    -0.100 C 
ATOM     25  H   UNL     1      33.905 -17.518 -23.171  0.00  0.00    -0.079 HD
ENDBRANCH  21  22
ENDBRANCH  19  21
ENDBRANCH   8  18
TORSDOF 3
ENDMDL
MODEL 9
REMARK VINA RESULT:      -8.7      5.590      8.494
REMARK  Name = 4858
REMARK  3 active torsions:
REMARK  status: ('A' for Active; 'I' for Inactive)
REMARK    1  A    between atoms: C_8  and  N_18
REMARK    2  A    between atoms: C_19  and  C_21
REMARK    3  A    between atoms: C_21  and  N_22
REMARK                            x       y       z     vdW  Elec       q    Type
REMARK                         _______ _______ _______ _____ _____    ______ ____
ROOT
ATOM      1  O   UNL     1      33.429 -12.667 -24.999  0.00  0.00    -0.267 OA
ATOM      2  N   UNL     1      34.186 -14.753 -24.434  0.00  0.00    -0.321 N 
ATOM      3  C   UNL     1      33.819 -15.666 -22.207  0.00  0.00    +0.017 A 
ATOM      4  C   UNL     1      33.118 -14.418 -21.842  0.00  0.00    +0.006 A 
ATOM      5  C   UNL     1      34.338 -15.797 -23.507  0.00  0.00    +0.059 A 
ATOM      6  C   UNL     1      32.984 -13.391 -22.798  0.00  0.00    +0.056 A 
ATOM      7  C   UNL     1      34.006 -16.750 -21.331  0.00  0.00    +0.016 C 
ATOM      8  C   UNL     1      34.679 -17.907 -21.735  0.00  0.00    +0.050 C 
ATOM      9  C   UNL     1      35.014 -16.954 -23.917  0.00  0.00    +0.018 C 
ATOM     10  C   UNL     1      33.544 -13.560 -24.164  0.00  0.00    +0.258 A 
ATOM     11  C   UNL     1      35.183 -18.010 -23.028  0.00  0.00    +0.016 C 
ATOM     12  C   UNL     1      32.563 -14.187 -20.569  0.00  0.00    +0.000 C 
ATOM     13  C   UNL     1      32.325 -12.190 -22.492  0.00  0.00    +0.005 C 
ATOM     14  C   UNL     1      31.906 -12.990 -20.264  0.00  0.00    +0.000 C 
ATOM     15  C   UNL     1      31.788 -11.993 -21.224  0.00  0.00    +0.000 C 
ATOM     16  H   UNL     1      34.563 -14.879 -25.335  0.00  0.00    +0.169 HD
ENDROOT
BRANCH   8  18
ATOM     17  O   UNL     1      32.894 -20.241 -21.124  0.00  0.00    -0.277 OA
ATOM     18  N   UNL     1      34.848 -18.964 -20.838  0.00  0.00    -0.286 N 
ATOM     19  C   UNL     1      33.979 -20.040 -20.589  0.00  0.00    +0.205 C 
ATOM     20  H   UNL     1      35.681 -18.954 -20.314  0.00  0.00    +0.155 HD
BRANCH  19  21
ATOM     21  C   UNL     1      34.554 -20.965 -19.530  0.00  0.00    +0.010 C 
BRANCH  21  22
ATOM     22  N   UNL     1      36.001 -20.808 -19.484  0.00  0.00    +0.390 N 
ATOM     23  C   UNL     1      36.629 -21.466 -20.631  0.00  0.00    -0.100 C 
ATOM     24  C   UNL     1      36.540 -21.346 -18.233  0.00  0.00    -0.100 C 
ATOM     25  H   UNL     1      36.212 -19.811 -19.526  0.00  0.00    -0.079 HD
ENDBRANCH  21  22
ENDBRANCH  19  21
ENDBRANCH   8  18
TORSDOF 3
ENDMDL
