MODEL 1
REMARK VINA RESULT:      -4.6      0.000      0.000
REMARK  Name = 17754075
REMARK  3 active torsions:
REMARK  status: ('A' for Active; 'I' for Inactive)
REMARK    1  A    between atoms: CA_1  and  C_2
REMARK    2  A    between atoms: CA_1  and  C_8
REMARK    3  A    between atoms: C_8  and  O_9
REMARK                            x       y       z     vdW  Elec       q    Type
REMARK                         _______ _______ _______ _____ _____    ______ ____
ROOT
ATOM      1  CA  UNL     1      34.310 -19.168 -21.632  0.00  0.00    +0.106 C 
ATOM      2  N   UNL     1      34.355 -19.133 -22.995  0.00  0.00    -0.370 N 
ATOM      3  C   UNL     1      35.462 -18.590 -23.738  0.00  0.00    +0.122 C 
ATOM      4  H   UNL     1      33.591 -19.499 -23.496  0.00  0.00    +0.160 HD
ENDROOT
BRANCH   1   5
ATOM      5  C   UNL     1      33.328 -19.685 -20.870  0.00  0.00    +0.050 C 
ATOM      6  C   UNL     1      33.444 -20.872 -19.966  0.00  0.00    +0.007 C 
ENDBRANCH   1   5
BRANCH   1   8
ATOM      7  OXT UNL     1      36.473 -19.168 -20.543  0.00  0.00    -0.244 OA
ATOM      8  C   UNL     1      35.462 -18.574 -20.889  0.00  0.00    +0.349 C 
BRANCH   8   9
ATOM      9  O   UNL     1      35.245 -17.259 -20.637  0.00  0.00    -0.476 OA
ATOM     10  H   UNL     1      34.567 -17.002 -20.045  0.00  0.00    +0.295 HD
ENDBRANCH   8   9
ENDBRANCH   1   8
TORSDOF 3
ENDMDL
MODEL 2
REMARK VINA RESULT:      -4.6      3.734      4.580
REMARK  Name = 17754075
REMARK  3 active torsions:
REMARK  status: ('A' for Active; 'I' for Inactive)
REMARK    1  A    between atoms: CA_1  and  C_2
REMARK    2  A    between atoms: CA_1  and  C_8
REMARK    3  A    between atoms: C_8  and  O_9
REMARK                            x       y       z     vdW  Elec       q    Type
REMARK                         _______ _______ _______ _____ _____    ______ ____
ROOT
ATOM      1  CA  UNL     1      34.189 -21.431 -19.448  0.00  0.00    +0.106 C 
ATOM      2  N   UNL     1      35.463 -20.951 -19.377  0.00  0.00    -0.370 N 
ATOM      3  C   UNL     1      36.528 -21.630 -18.685  0.00  0.00    +0.122 C 
ATOM      4  H   UNL     1      35.667 -20.097 -19.823  0.00  0.00    +0.160 HD
ENDROOT
BRANCH   1   5
ATOM      5  C   UNL     1      33.151 -20.872 -20.098  0.00  0.00    +0.050 C 
ATOM      6  C   UNL     1      33.189 -19.609 -20.901  0.00  0.00    +0.007 C 
ENDBRANCH   1   5
BRANCH   1   8
ATOM      7  OXT UNL     1      33.592 -22.816 -17.553  0.00  0.00    -0.244 OA
ATOM      8  C   UNL     1      33.892 -22.709 -18.733  0.00  0.00    +0.349 C 
BRANCH   8   9
ATOM      9  O   UNL     1      33.999 -23.766 -19.575  0.00  0.00    -0.476 OA
ATOM     10  H   UNL     1      33.763 -23.673 -20.477  0.00  0.00    +0.295 HD
ENDBRANCH   8   9
ENDBRANCH   1   8
TORSDOF 3
ENDMDL
MODEL 3
REMARK VINA RESULT:      -4.5      9.683     10.760
REMARK  Name = 17754075
REMARK  3 active torsions:
REMARK  status: ('A' for Active; 'I' for Inactive)
REMARK    1  A    between atoms: CA_1  and  C_2
REMARK    2  A    between atoms: CA_1  and  C_8
REMARK    3  A    between atoms: C_8  and  O_9
REMARK                            x       y       z     vdW  Elec       q    Type
REMARK                         _______ _______ _______ _____ _____    ______ ____
ROOT
ATOM      1  CA  UNL     1      38.302 -24.677 -13.374  0.00  0.00    +0.106 C 
ATOM      2  N   UNL     1      37.425 -24.234 -14.319  0.00  0.00    -0.370 N 
ATOM      3  C   UNL     1      36.341 -23.330 -14.034  0.00  0.00    +0.122 C 
ATOM      4  H   UNL     1      37.538 -24.549 -15.245  0.00  0.00    +0.160 HD
ENDROOT
BRANCH   1   5
ATOM      5  C   UNL     1      39.353 -25.496 -13.568  0.00  0.00    +0.050 C 
ATOM      6  C   UNL     1      40.249 -25.512 -14.767  0.00  0.00    +0.007 C 
ENDBRANCH   1   5
BRANCH   1   8
ATOM      7  OXT UNL     1      37.361 -24.750 -11.144  0.00  0.00    -0.244 OA
ATOM      8  C   UNL     1      38.090 -24.219 -11.968  0.00  0.00    +0.349 C 
BRANCH   8   9
ATOM      9  O   UNL     1      38.826 -23.109 -11.708  0.00  0.00    -0.476 OA
ATOM     10  H   UNL     1      39.739 -23.094 -11.917  0.00  0.00    +0.295 HD
ENDBRANCH   8   9
ENDBRANCH   1   8
TORSDOF 3
ENDMDL
MODEL 4
REMARK VINA RESULT:      -4.5      8.476      9.702
REMARK  Name = 17754075
REMARK  3 active torsions:
REMARK  status: ('A' for Active; 'I' for Inactive)
REMARK    1  A    between atoms: CA_1  and  C_2
REMARK    2  A    between atoms: CA_1  and  C_8
REMARK    3  A    between atoms: C_8  and  O_9
REMARK                            x       y       z     vdW  Elec       q    Type
REMARK                         _______ _______ _______ _____ _____    ______ ____
ROOT
ATOM      1  CA  UNL     1      36.959 -25.102 -15.061  0.00  0.00    +0.106 C 
ATOM      2  N   UNL     1      38.222 -24.594 -14.975  0.00  0.00    -0.370 N 
ATOM      3  C   UNL     1      39.406 -25.413 -14.955  0.00  0.00    +0.122 C 
ATOM      4  H   UNL     1      38.330 -23.617 -14.923  0.00  0.00    +0.160 HD
ENDROOT
BRANCH   1   5
ATOM      5  C   UNL     1      35.810 -24.402 -15.114  0.00  0.00    +0.050 C 
ATOM      6  C   UNL     1      35.627 -23.049 -15.727  0.00  0.00    +0.007 C 
ENDBRANCH   1   5
BRANCH   1   8
ATOM      7  OXT UNL     1      36.754 -27.275 -16.109  0.00  0.00    -0.244 OA
ATOM      8  C   UNL     1      36.814 -26.588 -15.100  0.00  0.00    +0.349 C 
BRANCH   8   9
ATOM      9  O   UNL     1      36.757 -27.099 -13.845  0.00  0.00    -0.476 OA
ATOM     10  H   UNL     1      37.219 -27.888 -13.639  0.00  0.00    +0.295 HD
ENDBRANCH   8   9
ENDBRANCH   1   8
TORSDOF 3
ENDMDL
MODEL 5
REMARK VINA RESULT:      -4.5     10.188     11.284
REMARK  Name = 17754075
REMARK  3 active torsions:
REMARK  status: ('A' for Active; 'I' for Inactive)
REMARK    1  A    between atoms: CA_1  and  C_2
REMARK    2  A    between atoms: CA_1  and  C_8
REMARK    3  A    between atoms: C_8  and  O_9
REMARK                            x       y       z     vdW  Elec       q    Type
REMARK                         _______ _______ _______ _____ _____    ______ ____
ROOT
ATOM      1  CA  UNL     1      36.373 -25.179 -12.462  0.00  0.00    +0.106 C 
ATOM      2  N   UNL     1      35.475 -24.958 -13.464  0.00  0.00    -0.370 N 
ATOM      3  C   UNL     1      34.295 -24.147 -13.307  0.00  0.00    +0.122 C 
ATOM      4  H   UNL     1      35.641 -25.375 -14.340  0.00  0.00    +0.160 HD
ENDROOT
BRANCH   1   5
ATOM      5  C   UNL     1      37.509 -25.897 -12.540  0.00  0.00    +0.050 C 
ATOM      6  C   UNL     1      38.769 -25.483 -13.234  0.00  0.00    +0.007 C 
ENDBRANCH   1   5
BRANCH   1   8
ATOM      7  OXT UNL     1      35.293 -25.000 -10.302  0.00  0.00    -0.244 OA
ATOM      8  C   UNL     1      36.083 -24.569 -11.129  0.00  0.00    +0.349 C 
BRANCH   8   9
ATOM      9  O   UNL     1      36.822 -23.448 -10.942  0.00  0.00    -0.476 OA
ATOM     10  H   UNL     1      36.825 -22.775 -11.594  0.00  0.00    +0.295 HD
ENDBRANCH   8   9
ENDBRANCH   1   8
TORSDOF 3
ENDMDL
MODEL 6
REMARK VINA RESULT:      -4.5      9.971     11.036
REMARK  Name = 17754075
REMARK  3 active torsions:
REMARK  status: ('A' for Active; 'I' for Inactive)
REMARK    1  A    between atoms: CA_1  and  C_2
REMARK    2  A    between atoms: CA_1  and  C_8
REMARK    3  A    between atoms: C_8  and  O_9
REMARK                            x       y       z     vdW  Elec       q    Type
REMARK                         _______ _______ _______ _____ _____    ______ ____
ROOT
ATOM      1  CA  UNL     1      38.128 -25.094 -13.477  0.00  0.00    +0.106 C 
ATOM      2  N   UNL     1      37.530 -23.907 -13.781  0.00  0.00    -0.370 N 
ATOM      3  C   UNL     1      36.129 -23.649 -13.570  0.00  0.00    +0.122 C 
ATOM      4  H   UNL     1      38.084 -23.190 -14.164  0.00  0.00    +0.160 HD
ENDROOT
BRANCH   1   5
ATOM      5  C   UNL     1      39.432 -25.400 -13.616  0.00  0.00    +0.050 C 
ATOM      6  C   UNL     1      40.174 -25.538 -14.909  0.00  0.00    +0.007 C 
ENDBRANCH   1   5
BRANCH   1   8
ATOM      7  OXT UNL     1      36.976 -26.347 -11.755  0.00  0.00    -0.244 OA
ATOM      8  C   UNL     1      37.263 -26.183 -12.931  0.00  0.00    +0.349 C 
BRANCH   8   9
ATOM      9  O   UNL     1      36.821 -26.991 -13.927  0.00  0.00    -0.476 OA
ATOM     10  H   UNL     1      36.528 -26.620 -14.735  0.00  0.00    +0.295 HD
ENDBRANCH   8   9
ENDBRANCH   1   8
TORSDOF 3
ENDMDL
MODEL 7
REMARK VINA RESULT:      -4.4      8.920      9.724
REMARK  Name = 17754075
REMARK  3 active torsions:
REMARK  status: ('A' for Active; 'I' for Inactive)
REMARK    1  A    between atoms: CA_1  and  C_2
REMARK    2  A    between atoms: CA_1  and  C_8
REMARK    3  A    between atoms: C_8  and  O_9
REMARK                            x       y       z     vdW  Elec       q    Type
REMARK                         _______ _______ _______ _____ _____    ______ ____
ROOT
ATOM      1  CA  UNL     1      41.356 -14.687 -16.487  0.00  0.00    +0.106 C 
ATOM      2  N   UNL     1      41.063 -13.608 -15.706  0.00  0.00    -0.370 N 
ATOM      3  C   UNL     1      40.838 -13.694 -14.286  0.00  0.00    +0.122 C 
ATOM      4  H   UNL     1      41.002 -12.724 -16.136  0.00  0.00    +0.160 HD
ENDROOT
BRANCH   1   5
ATOM      5  C   UNL     1      41.607 -14.683 -17.809  0.00  0.00    +0.050 C 
ATOM      6  C   UNL     1      42.087 -15.845 -18.621  0.00  0.00    +0.007 C 
ENDBRANCH   1   5
BRANCH   1   8
ATOM      7  OXT UNL     1      42.421 -16.626 -15.503  0.00  0.00    -0.244 OA
ATOM      8  C   UNL     1      41.406 -16.024 -15.823  0.00  0.00    +0.349 C 
BRANCH   8   9
ATOM      9  O   UNL     1      40.156 -16.504 -15.611  0.00  0.00    -0.476 OA
ATOM     10  H   UNL     1      39.862 -16.676 -14.739  0.00  0.00    +0.295 HD
ENDBRANCH   8   9
ENDBRANCH   1   8
TORSDOF 3
ENDMDL
MODEL 8
REMARK VINA RESULT:      -4.4      9.987     10.655
REMARK  Name = 17754075
REMARK  3 active torsions:
REMARK  status: ('A' for Active; 'I' for Inactive)
REMARK    1  A    between atoms: CA_1  and  C_2
REMARK    2  A    between atoms: CA_1  and  C_8
REMARK    3  A    between atoms: C_8  and  O_9
REMARK                            x       y       z     vdW  Elec       q    Type
REMARK                         _______ _______ _______ _____ _____    ______ ____
ROOT
ATOM      1  CA  UNL     1      37.974 -25.568 -13.596  0.00  0.00    +0.106 C 
ATOM      2  N   UNL     1      36.796 -26.117 -14.007  0.00  0.00    -0.370 N 
ATOM      3  C   UNL     1      36.627 -26.768 -15.281  0.00  0.00    +0.122 C 
ATOM      4  H   UNL     1      36.021 -26.067 -13.402  0.00  0.00    +0.160 HD
ENDROOT
BRANCH   1   5
ATOM      5  C   UNL     1      38.218 -24.972 -12.413  0.00  0.00    +0.050 C 
ATOM      6  C   UNL     1      37.697 -23.640 -11.971  0.00  0.00    +0.007 C 
ENDBRANCH   1   5
BRANCH   1   8
ATOM      7  OXT UNL     1      39.909 -26.553 -14.668  0.00  0.00    -0.244 OA
ATOM      8  C   UNL     1      39.128 -25.621 -14.543  0.00  0.00    +0.349 C 
BRANCH   8   9
ATOM      9  O   UNL     1      39.208 -24.478 -15.269  0.00  0.00    -0.476 OA
ATOM     10  H   UNL     1      38.426 -24.020 -15.508  0.00  0.00    +0.295 HD
ENDBRANCH   8   9
ENDBRANCH   1   8
TORSDOF 3
ENDMDL
MODEL 9
REMARK VINA RESULT:      -4.4      2.845      3.549
REMARK  Name = 17754075
REMARK  3 active torsions:
REMARK  status: ('A' for Active; 'I' for Inactive)
REMARK    1  A    between atoms: CA_1  and  C_2
REMARK    2  A    between atoms: CA_1  and  C_8
REMARK    3  A    between atoms: C_8  and  O_9
REMARK                            x       y       z     vdW  Elec       q    Type
REMARK                         _______ _______ _______ _____ _____    ______ ____
ROOT
ATOM      1  CA  UNL     1      34.828 -16.766 -21.590  0.00  0.00    +0.106 C 
ATOM      2  N   UNL     1      35.421 -17.648 -20.735  0.00  0.00    -0.370 N 
ATOM      3  C   UNL     1      36.192 -18.782 -21.175  0.00  0.00    +0.122 C 
ATOM      4  H   UNL     1      35.317 -17.502 -19.767  0.00  0.00    +0.160 HD
ENDROOT
BRANCH   1   5
ATOM      5  C   UNL     1      34.120 -15.671 -21.256  0.00  0.00    +0.050 C 
ATOM      6  C   UNL     1      32.681 -15.641 -20.843  0.00  0.00    +0.007 C 
ENDBRANCH   1   5
BRANCH   1   8
ATOM      7  OXT UNL     1      34.402 -17.912 -23.680  0.00  0.00    -0.244 OA
ATOM      8  C   UNL     1      34.966 -17.026 -23.054  0.00  0.00    +0.349 C 
BRANCH   8   9
ATOM      9  O   UNL     1      35.817 -16.137 -23.622  0.00  0.00    -0.476 OA
ATOM     10  H   UNL     1      35.604 -15.224 -23.629  0.00  0.00    +0.295 HD
ENDBRANCH   8   9
ENDBRANCH   1   8
TORSDOF 3
ENDMDL
