MODEL 1
REMARK VINA RESULT:     -11.5      0.000      0.000
REMARK  Name = 10477723
REMARK  8 active torsions:
REMARK  status: ('A' for Active; 'I' for Inactive)
REMARK    1  A    between atoms: C_1  and  C_9
REMARK    2  A    between atoms: C_2  and  N_24
REMARK    3  A    between atoms: N_8  and  C_13
REMARK    4  A    between atoms: C_11  and  C_21
REMARK    5  A    between atoms: C_12  and  C_20
REMARK    6  A    between atoms: C_21  and  C_22
REMARK    7  A    between atoms: N_24  and  C_26
REMARK    8  A    between atoms: C_26  and  C_29
REMARK                            x       y       z     vdW  Elec       q    Type
REMARK                         _______ _______ _______ _____ _____    ______ ____
ROOT
ATOM      1  C   UNL     1      33.974 -15.622 -23.463  0.00  0.00    +0.067 C 
ATOM      2  C   UNL     1      33.318 -14.396 -23.248  0.00  0.00    +0.049 C 
ATOM      3  C   UNL     1      34.123 -16.136 -24.751  0.00  0.00    +0.006 C 
ATOM      4  C   UNL     1      32.818 -13.701 -24.364  0.00  0.00    +0.014 C 
ATOM      5  C   UNL     1      33.620 -15.432 -25.845  0.00  0.00    +0.000 C 
ATOM      6  C   UNL     1      32.968 -14.215 -25.652  0.00  0.00    +0.001 C 
ENDROOT
BRANCH   1   9
ATOM      7  O   UNL     1      34.847 -15.777 -21.312  0.00  0.00    -0.270 OA
ATOM      8  N   UNL     1      34.574 -17.770 -22.520  0.00  0.00    -0.280 N 
ATOM      9  C   UNL     1      34.510 -16.382 -22.341  0.00  0.00    +0.251 C 
ATOM     10  H   UNL     1      34.268 -18.104 -23.394  0.00  0.00    +0.155 HD
BRANCH   8  13
ATOM     11  C   UNL     1      35.897 -20.682 -19.821  0.00  0.00    -0.018 C 
ATOM     12  C   UNL     1      34.533 -20.541 -20.083  0.00  0.00    +0.069 C 
ATOM     13  C   UNL     1      35.021 -18.756 -21.606  0.00  0.00    +0.050 C 
ATOM     14  C   UNL     1      36.818 -19.850 -20.458  0.00  0.00    -0.003 C 
ATOM     15  C   UNL     1      34.092 -19.571 -20.983  0.00  0.00    +0.018 C 
ATOM     16  C   UNL     1      36.377 -18.880 -21.357  0.00  0.00    +0.014 C 
BRANCH  12  20
ATOM     17  F   UNL     1      33.202 -22.528 -20.141  0.00  0.00    -0.166 F 
ATOM     18  F   UNL     1      33.942 -21.896 -18.203  0.00  0.00    -0.166 F 
ATOM     19  F   UNL     1      32.349 -20.777 -19.172  0.00  0.00    -0.166 F 
ATOM     20  C   UNL     1      33.528 -21.420 -19.413  0.00  0.00    +0.418 C 
ENDBRANCH  12  20
BRANCH  11  21
ATOM     21  C   UNL     1      36.392 -21.713 -18.862  0.00  0.00    +0.026 C 
BRANCH  21  22
ATOM     22  C   UNL     1      37.036 -21.087 -17.618  0.00  0.00    +0.005 C 
ATOM     23  C   UNL     1      37.063 -22.053 -16.445  0.00  0.00    +0.000 C 
ENDBRANCH  21  22
ENDBRANCH  11  21
ENDBRANCH   8  13
ENDBRANCH   1   9
BRANCH   2  24
ATOM     24  N   UNL     1      33.158 -13.868 -21.973  0.00  0.00    -0.329 N 
ATOM     25  H   UNL     1      33.964 -13.725 -21.426  0.00  0.00    +0.147 HD
BRANCH  24  26
ATOM     26  C   UNL     1      31.887 -13.514 -21.404  0.00  0.00    +0.116 C 
BRANCH  26  29
ATOM     27  O   UNL     1      31.961  -8.203 -19.772  0.00  0.00    -0.270 OA
ATOM     28  N   UNL     1      32.051  -9.757 -21.479  0.00  0.00    -0.280 N 
ATOM     29  C   UNL     1      31.911 -12.071 -21.011  0.00  0.00    +0.012 C 
ATOM     30  C   UNL     1      32.034 -11.067 -21.892  0.00  0.00    +0.061 C 
ATOM     31  C   UNL     1      31.795 -11.751 -19.603  0.00  0.00    +0.003 C 
ATOM     32  C   UNL     1      31.809 -10.483 -19.170  0.00  0.00    +0.058 C 
ATOM     33  C   UNL     1      31.946  -9.371 -20.153  0.00  0.00    +0.250 C 
ATOM     34  H   UNL     1      32.142  -9.055 -22.163  0.00  0.00    +0.155 HD
ENDBRANCH  26  29
ENDBRANCH  24  26
ENDBRANCH   2  24
TORSDOF 8
ENDMDL
MODEL 2
REMARK VINA RESULT:     -11.3      4.612      9.610
REMARK  Name = 10477723
REMARK  8 active torsions:
REMARK  status: ('A' for Active; 'I' for Inactive)
REMARK    1  A    between atoms: C_1  and  C_9
REMARK    2  A    between atoms: C_2  and  N_24
REMARK    3  A    between atoms: N_8  and  C_13
REMARK    4  A    between atoms: C_11  and  C_21
REMARK    5  A    between atoms: C_12  and  C_20
REMARK    6  A    between atoms: C_21  and  C_22
REMARK    7  A    between atoms: N_24  and  C_26
REMARK    8  A    between atoms: C_26  and  C_29
REMARK                            x       y       z     vdW  Elec       q    Type
REMARK                         _______ _______ _______ _____ _____    ______ ____
ROOT
ATOM      1  C   UNL     1      34.389 -16.719 -23.526  0.00  0.00    +0.067 C 
ATOM      2  C   UNL     1      34.738 -17.904 -22.854  0.00  0.00    +0.049 C 
ATOM      3  C   UNL     1      34.235 -16.702 -24.913  0.00  0.00    +0.006 C 
ATOM      4  C   UNL     1      34.928 -19.072 -23.615  0.00  0.00    +0.014 C 
ATOM      5  C   UNL     1      34.428 -17.871 -25.650  0.00  0.00    +0.000 C 
ATOM      6  C   UNL     1      34.774 -19.056 -25.001  0.00  0.00    +0.001 C 
ENDROOT
BRANCH   1   9
ATOM      7  O   UNL     1      34.910 -15.235 -21.812  0.00  0.00    -0.270 OA
ATOM      8  N   UNL     1      33.166 -14.645 -23.267  0.00  0.00    -0.280 N 
ATOM      9  C   UNL     1      34.181 -15.481 -22.786  0.00  0.00    +0.251 C 
ATOM     10  H   UNL     1      32.672 -14.979 -24.051  0.00  0.00    +0.155 HD
BRANCH   8  13
ATOM     11  C   UNL     1      31.958 -10.915 -21.806  0.00  0.00    -0.018 C 
ATOM     12  C   UNL     1      32.713 -10.994 -22.976  0.00  0.00    +0.069 C 
ATOM     13  C   UNL     1      32.757 -13.382 -22.774  0.00  0.00    +0.050 C 
ATOM     14  C   UNL     1      31.606 -12.079 -21.123  0.00  0.00    -0.003 C 
ATOM     15  C   UNL     1      33.116 -12.238 -23.464  0.00  0.00    +0.018 C 
ATOM     16  C   UNL     1      32.009 -13.322 -21.611  0.00  0.00    +0.014 C 
BRANCH  12  20
ATOM     17  F   UNL     1      33.869  -8.900 -22.994  0.00  0.00    -0.166 F 
ATOM     18  F   UNL     1      33.825 -10.014 -24.854  0.00  0.00    -0.166 F 
ATOM     19  F   UNL     1      32.021  -9.035 -24.134  0.00  0.00    -0.166 F 
ATOM     20  C   UNL     1      33.102  -9.761 -23.725  0.00  0.00    +0.418 C 
ENDBRANCH  12  20
BRANCH  11  21
ATOM     21  C   UNL     1      31.515  -9.595 -21.266  0.00  0.00    +0.026 C 
BRANCH  21  22
ATOM     22  C   UNL     1      32.374  -9.137 -20.079  0.00  0.00    +0.005 C 
ATOM     23  C   UNL     1      32.710  -7.657 -20.160  0.00  0.00    +0.000 C 
ENDBRANCH  21  22
ENDBRANCH  11  21
ENDBRANCH   8  13
ENDBRANCH   1   9
BRANCH   2  24
ATOM     24  N   UNL     1      34.897 -17.942 -21.474  0.00  0.00    -0.329 N 
ATOM     25  H   UNL     1      34.258 -17.437 -20.921  0.00  0.00    +0.147 HD
BRANCH  24  26
ATOM     26  C   UNL     1      35.936 -18.675 -20.805  0.00  0.00    +0.116 C 
BRANCH  26  29
ATOM     27  O   UNL     1      33.671 -23.386 -18.918  0.00  0.00    -0.270 OA
ATOM     28  N   UNL     1      35.556 -22.115 -19.332  0.00  0.00    -0.280 N 
ATOM     29  C   UNL     1      35.371 -19.959 -20.287  0.00  0.00    +0.012 C 
ATOM     30  C   UNL     1      36.125 -20.955 -19.796  0.00  0.00    +0.061 C 
ATOM     31  C   UNL     1      33.932 -20.128 -20.319  0.00  0.00    +0.003 C 
ATOM     32  C   UNL     1      33.349 -21.248 -19.874  0.00  0.00    +0.058 C 
ATOM     33  C   UNL     1      34.191 -22.352 -19.330  0.00  0.00    +0.250 C 
ATOM     34  H   UNL     1      36.151 -22.816 -18.981  0.00  0.00    +0.155 HD
ENDBRANCH  26  29
ENDBRANCH  24  26
ENDBRANCH   2  24
TORSDOF 8
ENDMDL
MODEL 3
REMARK VINA RESULT:     -11.3      1.570      2.196
REMARK  Name = 10477723
REMARK  8 active torsions:
REMARK  status: ('A' for Active; 'I' for Inactive)
REMARK    1  A    between atoms: C_1  and  C_9
REMARK    2  A    between atoms: C_2  and  N_24
REMARK    3  A    between atoms: N_8  and  C_13
REMARK    4  A    between atoms: C_11  and  C_21
REMARK    5  A    between atoms: C_12  and  C_20
REMARK    6  A    between atoms: C_21  and  C_22
REMARK    7  A    between atoms: N_24  and  C_26
REMARK    8  A    between atoms: C_26  and  C_29
REMARK                            x       y       z     vdW  Elec       q    Type
REMARK                         _______ _______ _______ _____ _____    ______ ____
ROOT
ATOM      1  C   UNL     1      33.898 -15.762 -23.514  0.00  0.00    +0.067 C 
ATOM      2  C   UNL     1      33.409 -14.465 -23.278  0.00  0.00    +0.049 C 
ATOM      3  C   UNL     1      34.029 -16.251 -24.815  0.00  0.00    +0.006 C 
ATOM      4  C   UNL     1      33.056 -13.672 -24.385  0.00  0.00    +0.014 C 
ATOM      5  C   UNL     1      33.673 -15.450 -25.900  0.00  0.00    +0.000 C 
ATOM      6  C   UNL     1      33.187 -14.160 -25.685  0.00  0.00    +0.001 C 
ENDROOT
BRANCH   1   9
ATOM      7  O   UNL     1      34.942 -16.146 -21.471  0.00  0.00    -0.270 OA
ATOM      8  N   UNL     1      33.825 -17.948 -22.476  0.00  0.00    -0.280 N 
ATOM      9  C   UNL     1      34.278 -16.625 -22.403  0.00  0.00    +0.251 C 
ATOM     10  H   UNL     1      33.307 -18.180 -23.280  0.00  0.00    +0.155 HD
BRANCH   8  13
ATOM     11  C   UNL     1      34.383 -21.045 -19.717  0.00  0.00    -0.018 C 
ATOM     12  C   UNL     1      35.486 -20.380 -20.252  0.00  0.00    +0.069 C 
ATOM     13  C   UNL     1      34.014 -18.996 -21.542  0.00  0.00    +0.050 C 
ATOM     14  C   UNL     1      33.094 -20.678 -20.103  0.00  0.00    -0.003 C 
ATOM     15  C   UNL     1      35.300 -19.348 -21.171  0.00  0.00    +0.018 C 
ATOM     16  C   UNL     1      32.908 -19.646 -21.022  0.00  0.00    +0.014 C 
BRANCH  12  20
ATOM     17  F   UNL     1      37.830 -19.907 -20.339  0.00  0.00    -0.166 F 
ATOM     18  F   UNL     1      37.069 -20.777 -18.503  0.00  0.00    -0.166 F 
ATOM     19  F   UNL     1      37.229 -21.997 -20.296  0.00  0.00    -0.166 F 
ATOM     20  C   UNL     1      36.876 -20.756 -19.854  0.00  0.00    +0.418 C 
ENDBRANCH  12  20
BRANCH  11  21
ATOM     21  C   UNL     1      34.558 -22.153 -18.732  0.00  0.00    +0.026 C 
BRANCH  21  22
ATOM     22  C   UNL     1      33.214 -22.687 -18.216  0.00  0.00    +0.005 C 
ATOM     23  C   UNL     1      33.340 -23.288 -16.825  0.00  0.00    +0.000 C 
ENDBRANCH  21  22
ENDBRANCH  11  21
ENDBRANCH   8  13
ENDBRANCH   1   9
BRANCH   2  24
ATOM     24  N   UNL     1      33.271 -13.960 -21.991  0.00  0.00    -0.329 N 
ATOM     25  H   UNL     1      34.087 -13.809 -21.463  0.00  0.00    +0.147 HD
BRANCH  24  26
ATOM     26  C   UNL     1      32.007 -13.643 -21.384  0.00  0.00    +0.116 C 
BRANCH  26  29
ATOM     27  O   UNL     1      31.819  -8.236 -20.115  0.00  0.00    -0.270 OA
ATOM     28  N   UNL     1      31.985  -9.896 -21.714  0.00  0.00    -0.280 N 
ATOM     29  C   UNL     1      31.960 -12.178 -21.091  0.00  0.00    +0.012 C 
ATOM     30  C   UNL     1      32.033 -11.230 -22.037  0.00  0.00    +0.061 C 
ATOM     31  C   UNL     1      31.829 -11.769 -19.707  0.00  0.00    +0.003 C 
ATOM     32  C   UNL     1      31.780 -10.476 -19.360  0.00  0.00    +0.058 C 
ATOM     33  C   UNL     1      31.861  -9.426 -20.417  0.00  0.00    +0.250 C 
ATOM     34  H   UNL     1      32.041  -9.238 -22.444  0.00  0.00    +0.155 HD
ENDBRANCH  26  29
ENDBRANCH  24  26
ENDBRANCH   2  24
TORSDOF 8
ENDMDL
MODEL 4
REMARK VINA RESULT:     -11.3      3.798      9.347
REMARK  Name = 10477723
REMARK  8 active torsions:
REMARK  status: ('A' for Active; 'I' for Inactive)
REMARK    1  A    between atoms: C_1  and  C_9
REMARK    2  A    between atoms: C_2  and  N_24
REMARK    3  A    between atoms: N_8  and  C_13
REMARK    4  A    between atoms: C_11  and  C_21
REMARK    5  A    between atoms: C_12  and  C_20
REMARK    6  A    between atoms: C_21  and  C_22
REMARK    7  A    between atoms: N_24  and  C_26
REMARK    8  A    between atoms: C_26  and  C_29
REMARK                            x       y       z     vdW  Elec       q    Type
REMARK                         _______ _______ _______ _____ _____    ______ ____
ROOT
ATOM      1  C   UNL     1      34.481 -16.688 -23.813  0.00  0.00    +0.067 C 
ATOM      2  C   UNL     1      34.899 -17.801 -23.060  0.00  0.00    +0.049 C 
ATOM      3  C   UNL     1      34.166 -16.818 -25.166  0.00  0.00    +0.006 C 
ATOM      4  C   UNL     1      34.990 -19.048 -23.706  0.00  0.00    +0.014 C 
ATOM      5  C   UNL     1      34.263 -18.062 -25.788  0.00  0.00    +0.000 C 
ATOM      6  C   UNL     1      34.674 -19.178 -25.058  0.00  0.00    +0.001 C 
ENDROOT
BRANCH   1   9
ATOM      7  O   UNL     1      35.071 -15.118 -22.201  0.00  0.00    -0.270 OA
ATOM      8  N   UNL     1      33.478 -14.485 -23.804  0.00  0.00    -0.280 N 
ATOM      9  C   UNL     1      34.371 -15.374 -23.193  0.00  0.00    +0.251 C 
ATOM     10  H   UNL     1      32.992 -14.835 -24.585  0.00  0.00    +0.155 HD
BRANCH   8  13
ATOM     11  C   UNL     1      32.607 -10.532 -22.742  0.00  0.00    -0.018 C 
ATOM     12  C   UNL     1      32.117 -11.586 -21.969  0.00  0.00    +0.069 C 
ATOM     13  C   UNL     1      33.183 -13.147 -23.443  0.00  0.00    +0.050 C 
ATOM     14  C   UNL     1      33.386 -10.796 -23.868  0.00  0.00    -0.003 C 
ATOM     15  C   UNL     1      32.408 -12.903 -22.323  0.00  0.00    +0.018 C 
ATOM     16  C   UNL     1      33.677 -12.114 -24.221  0.00  0.00    +0.014 C 
BRANCH  12  20
ATOM     17  F   UNL     1      31.538 -10.124 -20.167  0.00  0.00    -0.166 F 
ATOM     18  F   UNL     1      29.940 -11.321 -21.015  0.00  0.00    -0.166 F 
ATOM     19  F   UNL     1      31.465 -12.264 -19.785  0.00  0.00    -0.166 F 
ATOM     20  C   UNL     1      31.281 -11.327 -20.759  0.00  0.00    +0.418 C 
ENDBRANCH  12  20
BRANCH  11  21
ATOM     21  C   UNL     1      32.310  -9.114 -22.382  0.00  0.00    +0.026 C 
BRANCH  21  22
ATOM     22  C   UNL     1      31.234  -8.499 -23.288  0.00  0.00    +0.005 C 
ATOM     23  C   UNL     1      31.120  -6.996 -23.094  0.00  0.00    +0.000 C 
ENDBRANCH  21  22
ENDBRANCH  11  21
ENDBRANCH   8  13
ENDBRANCH   1   9
BRANCH   2  24
ATOM     24  N   UNL     1      35.218 -17.693 -21.713  0.00  0.00    -0.329 N 
ATOM     25  H   UNL     1      34.813 -16.958 -21.199  0.00  0.00    +0.147 HD
BRANCH  24  26
ATOM     26  C   UNL     1      36.102 -18.592 -21.023  0.00  0.00    +0.116 C 
BRANCH  26  29
ATOM     27  O   UNL     1      32.985 -22.703 -18.958  0.00  0.00    -0.270 OA
ATOM     28  N   UNL     1      35.076 -21.816 -19.379  0.00  0.00    -0.280 N 
ATOM     29  C   UNL     1      35.304 -19.721 -20.454  0.00  0.00    +0.012 C 
ATOM     30  C   UNL     1      35.856 -20.805 -19.887  0.00  0.00    +0.061 C 
ATOM     31  C   UNL     1      33.860 -19.632 -20.523  0.00  0.00    +0.003 C 
ATOM     32  C   UNL     1      33.074 -20.602 -20.037  0.00  0.00    +0.058 C 
ATOM     33  C   UNL     1      33.692 -21.804 -19.408  0.00  0.00    +0.250 C 
ATOM     34  H   UNL     1      35.528 -22.590 -18.972  0.00  0.00    +0.155 HD
ENDBRANCH  26  29
ENDBRANCH  24  26
ENDBRANCH   2  24
TORSDOF 8
ENDMDL
MODEL 5
REMARK VINA RESULT:     -11.1      1.863      3.033
REMARK  Name = 10477723
REMARK  8 active torsions:
REMARK  status: ('A' for Active; 'I' for Inactive)
REMARK    1  A    between atoms: C_1  and  C_9
REMARK    2  A    between atoms: C_2  and  N_24
REMARK    3  A    between atoms: N_8  and  C_13
REMARK    4  A    between atoms: C_11  and  C_21
REMARK    5  A    between atoms: C_12  and  C_20
REMARK    6  A    between atoms: C_21  and  C_22
REMARK    7  A    between atoms: N_24  and  C_26
REMARK    8  A    between atoms: C_26  and  C_29
REMARK                            x       y       z     vdW  Elec       q    Type
REMARK                         _______ _______ _______ _____ _____    ______ ____
ROOT
ATOM      1  C   UNL     1      35.034 -18.426 -22.746  0.00  0.00    +0.067 C 
ATOM      2  C   UNL     1      34.639 -17.091 -22.953  0.00  0.00    +0.049 C 
ATOM      3  C   UNL     1      35.060 -19.335 -23.804  0.00  0.00    +0.006 C 
ATOM      4  C   UNL     1      34.273 -16.697 -24.252  0.00  0.00    +0.014 C 
ATOM      5  C   UNL     1      34.692 -18.925 -25.085  0.00  0.00    +0.000 C 
ATOM      6  C   UNL     1      34.299 -17.605 -25.310  0.00  0.00    +0.001 C 
ENDROOT
BRANCH   1   9
ATOM      7  O   UNL     1      36.012 -18.102 -20.660  0.00  0.00    -0.270 OA
ATOM      8  N   UNL     1      35.063 -20.202 -21.101  0.00  0.00    -0.280 N 
ATOM      9  C   UNL     1      35.422 -18.887 -21.419  0.00  0.00    +0.251 C 
ATOM     10  H   UNL     1      34.597 -20.703 -21.810  0.00  0.00    +0.155 HD
BRANCH   8  13
ATOM     11  C   UNL     1      35.714 -22.284 -17.530  0.00  0.00    -0.018 C 
ATOM     12  C   UNL     1      34.445 -22.276 -18.112  0.00  0.00    +0.069 C 
ATOM     13  C   UNL     1      35.282 -20.907 -19.893  0.00  0.00    +0.050 C 
ATOM     14  C   UNL     1      36.764 -21.598 -18.139  0.00  0.00    -0.003 C 
ATOM     15  C   UNL     1      34.228 -21.582 -19.302  0.00  0.00    +0.018 C 
ATOM     16  C   UNL     1      36.547 -20.904 -19.329  0.00  0.00    +0.014 C 
BRANCH  12  20
ATOM     17  F   UNL     1      33.334 -22.977 -16.112  0.00  0.00    -0.166 F 
ATOM     18  F   UNL     1      32.082 -22.503 -17.819  0.00  0.00    -0.166 F 
ATOM     19  F   UNL     1      33.272 -24.324 -17.819  0.00  0.00    -0.166 F 
ATOM     20  C   UNL     1      33.305 -23.003 -17.477  0.00  0.00    +0.418 C 
ENDBRANCH  12  20
BRANCH  11  21
ATOM     21  C   UNL     1      35.969 -23.020 -16.256  0.00  0.00    +0.026 C 
BRANCH  21  22
ATOM     22  C   UNL     1      37.432 -22.907 -15.805  0.00  0.00    +0.005 C 
ATOM     23  C   UNL     1      37.882 -24.134 -15.029  0.00  0.00    +0.000 C 
ENDBRANCH  21  22
ENDBRANCH  11  21
ENDBRANCH   8  13
ENDBRANCH   1   9
BRANCH   2  24
ATOM     24  N   UNL     1      34.605 -16.171 -21.913  0.00  0.00    -0.329 N 
ATOM     25  H   UNL     1      35.410 -15.629 -21.748  0.00  0.00    +0.147 HD
BRANCH  24  26
ATOM     26  C   UNL     1      33.466 -15.961 -21.063  0.00  0.00    +0.116 C 
BRANCH  26  29
ATOM     27  O   UNL     1      31.182 -11.000 -22.093  0.00  0.00    -0.270 OA
ATOM     28  N   UNL     1      32.014 -13.006 -22.882  0.00  0.00    -0.280 N 
ATOM     29  C   UNL     1      32.852 -14.636 -21.388  0.00  0.00    +0.012 C 
ATOM     30  C   UNL     1      32.579 -14.234 -22.638  0.00  0.00    +0.061 C 
ATOM     31  C   UNL     1      32.539 -13.747 -20.287  0.00  0.00    +0.003 C 
ATOM     32  C   UNL     1      31.988 -12.544 -20.495  0.00  0.00    +0.058 C 
ATOM     33  C   UNL     1      31.687 -12.101 -21.887  0.00  0.00    +0.250 C 
ATOM     34  H   UNL     1      31.832 -12.756 -23.817  0.00  0.00    +0.155 HD
ENDBRANCH  26  29
ENDBRANCH  24  26
ENDBRANCH   2  24
TORSDOF 8
ENDMDL
MODEL 6
REMARK VINA RESULT:     -11.1      5.664     10.127
REMARK  Name = 10477723
REMARK  8 active torsions:
REMARK  status: ('A' for Active; 'I' for Inactive)
REMARK    1  A    between atoms: C_1  and  C_9
REMARK    2  A    between atoms: C_2  and  N_24
REMARK    3  A    between atoms: N_8  and  C_13
REMARK    4  A    between atoms: C_11  and  C_21
REMARK    5  A    between atoms: C_12  and  C_20
REMARK    6  A    between atoms: C_21  and  C_22
REMARK    7  A    between atoms: N_24  and  C_26
REMARK    8  A    between atoms: C_26  and  C_29
REMARK                            x       y       z     vdW  Elec       q    Type
REMARK                         _______ _______ _______ _____ _____    ______ ____
ROOT
ATOM      1  C   UNL     1      37.035 -23.385 -15.512  0.00  0.00    +0.067 C 
ATOM      2  C   UNL     1      35.933 -23.787 -14.737  0.00  0.00    +0.049 C 
ATOM      3  C   UNL     1      38.276 -24.006 -15.365  0.00  0.00    +0.006 C 
ATOM      4  C   UNL     1      36.112 -24.831 -13.811  0.00  0.00    +0.014 C 
ATOM      5  C   UNL     1      38.434 -25.038 -14.441  0.00  0.00    +0.000 C 
ATOM      6  C   UNL     1      37.352 -25.451 -13.664  0.00  0.00    +0.001 C 
ENDROOT
BRANCH   1   9
ATOM      7  O   UNL     1      37.502 -21.241 -16.285  0.00  0.00    -0.270 OA
ATOM      8  N   UNL     1      36.112 -22.593 -17.605  0.00  0.00    -0.280 N 
ATOM      9  C   UNL     1      36.904 -22.309 -16.486  0.00  0.00    +0.251 C 
ATOM     10  H   UNL     1      35.700 -23.487 -17.623  0.00  0.00    +0.155 HD
BRANCH   8  13
ATOM     11  C   UNL     1      35.268 -20.134 -20.885  0.00  0.00    -0.018 C 
ATOM     12  C   UNL     1      34.236 -20.555 -20.045  0.00  0.00    +0.069 C 
ATOM     13  C   UNL     1      35.825 -21.761 -18.715  0.00  0.00    +0.050 C 
ATOM     14  C   UNL     1      36.580 -20.533 -20.631  0.00  0.00    -0.003 C 
ATOM     15  C   UNL     1      34.517 -21.374 -18.952  0.00  0.00    +0.018 C 
ATOM     16  C   UNL     1      36.861 -21.353 -19.538  0.00  0.00    +0.014 C 
BRANCH  12  20
ATOM     17  F   UNL     1      31.984 -20.406 -19.253  0.00  0.00    -0.166 F 
ATOM     18  F   UNL     1      32.683 -18.804 -20.537  0.00  0.00    -0.166 F 
ATOM     19  F   UNL     1      32.278 -20.768 -21.377  0.00  0.00    -0.166 F 
ATOM     20  C   UNL     1      32.823 -20.140 -20.296  0.00  0.00    +0.418 C 
ENDBRANCH  12  20
BRANCH  11  21
ATOM     21  C   UNL     1      34.990 -19.256 -22.061  0.00  0.00    +0.026 C 
BRANCH  21  22
ATOM     22  C   UNL     1      35.810 -17.959 -22.022  0.00  0.00    +0.005 C 
ATOM     23  C   UNL     1      34.966 -16.767 -21.606  0.00  0.00    +0.000 C 
ENDBRANCH  21  22
ENDBRANCH  11  21
ENDBRANCH   8  13
ENDBRANCH   1   9
BRANCH   2  24
ATOM     24  N   UNL     1      34.689 -23.182 -14.867  0.00  0.00    -0.329 N 
ATOM     25  H   UNL     1      34.612 -22.407 -15.469  0.00  0.00    +0.147 HD
BRANCH  24  26
ATOM     26  C   UNL     1      33.507 -23.619 -14.177  0.00  0.00    +0.116 C 
BRANCH  26  29
ATOM     27  O   UNL     1      28.947 -22.363 -17.094  0.00  0.00    -0.270 OA
ATOM     28  N   UNL     1      31.212 -22.812 -17.046  0.00  0.00    -0.280 N 
ATOM     29  C   UNL     1      32.306 -23.282 -15.003  0.00  0.00    +0.012 C 
ATOM     30  C   UNL     1      32.345 -23.122 -16.334  0.00  0.00    +0.061 C 
ATOM     31  C   UNL     1      31.038 -23.121 -14.320  0.00  0.00    +0.003 C 
ATOM     32  C   UNL     1      29.917 -22.818 -14.988  0.00  0.00    +0.058 C 
ATOM     33  C   UNL     1      29.966 -22.641 -16.468  0.00  0.00    +0.250 C 
ATOM     34  H   UNL     1      31.291 -22.705 -18.022  0.00  0.00    +0.155 HD
ENDBRANCH  26  29
ENDBRANCH  24  26
ENDBRANCH   2  24
TORSDOF 8
ENDMDL
MODEL 7
REMARK VINA RESULT:     -10.9      5.906     11.423
REMARK  Name = 10477723
REMARK  8 active torsions:
REMARK  status: ('A' for Active; 'I' for Inactive)
REMARK    1  A    between atoms: C_1  and  C_9
REMARK    2  A    between atoms: C_2  and  N_24
REMARK    3  A    between atoms: N_8  and  C_13
REMARK    4  A    between atoms: C_11  and  C_21
REMARK    5  A    between atoms: C_12  and  C_20
REMARK    6  A    between atoms: C_21  and  C_22
REMARK    7  A    between atoms: N_24  and  C_26
REMARK    8  A    between atoms: C_26  and  C_29
REMARK                            x       y       z     vdW  Elec       q    Type
REMARK                         _______ _______ _______ _____ _____    ______ ____
ROOT
ATOM      1  C   UNL     1      32.159 -23.667 -16.118  0.00  0.00    +0.067 C 
ATOM      2  C   UNL     1      32.585 -23.918 -14.802  0.00  0.00    +0.049 C 
ATOM      3  C   UNL     1      30.843 -23.926 -16.505  0.00  0.00    +0.006 C 
ATOM      4  C   UNL     1      31.653 -24.437 -13.885  0.00  0.00    +0.014 C 
ATOM      5  C   UNL     1      29.934 -24.441 -15.582  0.00  0.00    +0.000 C 
ATOM      6  C   UNL     1      30.338 -24.696 -14.271  0.00  0.00    +0.001 C 
ENDROOT
BRANCH   1   9
ATOM      7  O   UNL     1      34.227 -23.608 -17.181  0.00  0.00    -0.270 OA
ATOM      8  N   UNL     1      32.579 -22.113 -17.927  0.00  0.00    -0.280 N 
ATOM      9  C   UNL     1      33.084 -23.130 -17.107  0.00  0.00    +0.251 C 
ATOM     10  H   UNL     1      31.650 -21.840 -17.747  0.00  0.00    +0.155 HD
BRANCH   8  13
ATOM     11  C   UNL     1      34.501 -20.082 -21.040  0.00  0.00    -0.018 C 
ATOM     12  C   UNL     1      35.253 -20.692 -20.035  0.00  0.00    +0.069 C 
ATOM     13  C   UNL     1      33.230 -21.426 -18.980  0.00  0.00    +0.050 C 
ATOM     14  C   UNL     1      33.109 -20.150 -21.006  0.00  0.00    -0.003 C 
ATOM     15  C   UNL     1      34.613 -21.369 -18.998  0.00  0.00    +0.018 C 
ATOM     16  C   UNL     1      32.468 -20.827 -19.968  0.00  0.00    +0.014 C 
BRANCH  12  20
ATOM     17  F   UNL     1      37.240 -19.498 -20.627  0.00  0.00    -0.166 F 
ATOM     18  F   UNL     1      37.306 -20.676 -18.807  0.00  0.00    -0.166 F 
ATOM     19  F   UNL     1      37.303 -21.669 -20.741  0.00  0.00    -0.166 F 
ATOM     20  C   UNL     1      36.746 -20.633 -20.051  0.00  0.00    +0.418 C 
ENDBRANCH  12  20
BRANCH  11  21
ATOM     21  C   UNL     1      35.165 -19.352 -22.161  0.00  0.00    +0.026 C 
BRANCH  21  22
ATOM     22  C   UNL     1      34.647 -17.915 -22.305  0.00  0.00    +0.005 C 
ATOM     23  C   UNL     1      35.015 -17.057 -21.105  0.00  0.00    +0.000 C 
ENDBRANCH  21  22
ENDBRANCH  11  21
ENDBRANCH   8  13
ENDBRANCH   1   9
BRANCH   2  24
ATOM     24  N   UNL     1      33.890 -23.667 -14.397  0.00  0.00    -0.329 N 
ATOM     25  H   UNL     1      34.428 -23.040 -14.931  0.00  0.00    +0.147 HD
BRANCH  24  26
ATOM     26  C   UNL     1      34.502 -24.267 -13.243  0.00  0.00    +0.116 C 
BRANCH  26  29
ATOM     27  O   UNL     1      39.375 -26.584 -14.572  0.00  0.00    -0.270 OA
ATOM     28  N   UNL     1      37.311 -25.784 -15.232  0.00  0.00    -0.280 N 
ATOM     29  C   UNL     1      35.799 -24.891 -13.647  0.00  0.00    +0.012 C 
ATOM     30  C   UNL     1      36.103 -25.212 -14.914  0.00  0.00    +0.061 C 
ATOM     31  C   UNL     1      36.774 -25.160 -12.609  0.00  0.00    +0.003 C 
ATOM     32  C   UNL     1      37.959 -25.717 -12.889  0.00  0.00    +0.058 C 
ATOM     33  C   UNL     1      38.292 -26.072 -14.299  0.00  0.00    +0.250 C 
ATOM     34  H   UNL     1      37.488 -26.000 -16.176  0.00  0.00    +0.155 HD
ENDBRANCH  26  29
ENDBRANCH  24  26
ENDBRANCH   2  24
TORSDOF 8
ENDMDL
MODEL 8
REMARK VINA RESULT:     -10.8      2.991      4.442
REMARK  Name = 10477723
REMARK  8 active torsions:
REMARK  status: ('A' for Active; 'I' for Inactive)
REMARK    1  A    between atoms: C_1  and  C_9
REMARK    2  A    between atoms: C_2  and  N_24
REMARK    3  A    between atoms: N_8  and  C_13
REMARK    4  A    between atoms: C_11  and  C_21
REMARK    5  A    between atoms: C_12  and  C_20
REMARK    6  A    between atoms: C_21  and  C_22
REMARK    7  A    between atoms: N_24  and  C_26
REMARK    8  A    between atoms: C_26  and  C_29
REMARK                            x       y       z     vdW  Elec       q    Type
REMARK                         _______ _______ _______ _____ _____    ______ ____
ROOT
ATOM      1  C   UNL     1      33.970 -11.854 -24.406  0.00  0.00    +0.067 C 
ATOM      2  C   UNL     1      33.310 -10.859 -23.661  0.00  0.00    +0.049 C 
ATOM      3  C   UNL     1      34.919 -11.513 -25.370  0.00  0.00    +0.006 C 
ATOM      4  C   UNL     1      33.632  -9.513 -23.913  0.00  0.00    +0.014 C 
ATOM      5  C   UNL     1      35.223 -10.173 -25.606  0.00  0.00    +0.000 C 
ATOM      6  C   UNL     1      34.580  -9.172 -24.877  0.00  0.00    +0.001 C 
ENDROOT
BRANCH   1   9
ATOM      7  O   UNL     1      32.721 -13.778 -24.790  0.00  0.00    -0.270 OA
ATOM      8  N   UNL     1      34.530 -13.935 -23.304  0.00  0.00    -0.280 N 
ATOM      9  C   UNL     1      33.674 -13.263 -24.185  0.00  0.00    +0.251 C 
ATOM     10  H   UNL     1      35.243 -13.390 -22.899  0.00  0.00    +0.155 HD
BRANCH   8  13
ATOM     11  C   UNL     1      34.453 -17.961 -22.164  0.00  0.00    -0.018 C 
ATOM     12  C   UNL     1      34.513 -17.620 -23.516  0.00  0.00    +0.069 C 
ATOM     13  C   UNL     1      34.504 -15.298 -22.919  0.00  0.00    +0.050 C 
ATOM     14  C   UNL     1      34.418 -16.961 -21.194  0.00  0.00    -0.003 C 
ATOM     15  C   UNL     1      34.539 -16.278 -23.896  0.00  0.00    +0.018 C 
ATOM     16  C   UNL     1      34.444 -15.619 -21.573  0.00  0.00    +0.014 C 
BRANCH  12  20
ATOM     17  F   UNL     1      35.392 -19.710 -24.280  0.00  0.00    -0.166 F 
ATOM     18  F   UNL     1      33.338 -19.254 -24.808  0.00  0.00    -0.166 F 
ATOM     19  F   UNL     1      34.968 -18.191 -25.779  0.00  0.00    -0.166 F 
ATOM     20  C   UNL     1      34.551 -18.674 -24.573  0.00  0.00    +0.418 C 
ENDBRANCH  12  20
BRANCH  11  21
ATOM     21  C   UNL     1      34.424 -19.391 -21.734  0.00  0.00    +0.026 C 
BRANCH  21  22
ATOM     22  C   UNL     1      33.149 -19.736 -20.953  0.00  0.00    +0.005 C 
ATOM     23  C   UNL     1      33.385 -20.852 -19.948  0.00  0.00    +0.000 C 
ENDBRANCH  21  22
ENDBRANCH  11  21
ENDBRANCH   8  13
ENDBRANCH   1   9
BRANCH   2  24
ATOM     24  N   UNL     1      32.363 -11.177 -22.697  0.00  0.00    -0.329 N 
ATOM     25  H   UNL     1      32.475 -12.017 -22.196  0.00  0.00    +0.147 HD
BRANCH  24  26
ATOM     26  C   UNL     1      31.227 -10.353 -22.384  0.00  0.00    +0.116 C 
BRANCH  26  29
ATOM     27  O   UNL     1      32.830  -6.059 -19.241  0.00  0.00    -0.270 OA
ATOM     28  N   UNL     1      32.485  -8.332 -19.472  0.00  0.00    -0.280 N 
ATOM     29  C   UNL     1      31.668  -9.229 -21.502  0.00  0.00    +0.012 C 
ATOM     30  C   UNL     1      32.090  -9.400 -20.240  0.00  0.00    +0.061 C 
ATOM     31  C   UNL     1      31.635  -7.887 -22.048  0.00  0.00    +0.003 C 
ATOM     32  C   UNL     1      32.013  -6.826 -21.322  0.00  0.00    +0.058 C 
ATOM     33  C   UNL     1      32.481  -7.022 -19.920  0.00  0.00    +0.250 C 
ATOM     34  H   UNL     1      32.787  -8.509 -18.551  0.00  0.00    +0.155 HD
ENDBRANCH  26  29
ENDBRANCH  24  26
ENDBRANCH   2  24
TORSDOF 8
ENDMDL
MODEL 9
REMARK VINA RESULT:     -10.8      4.758      9.974
REMARK  Name = 10477723
REMARK  8 active torsions:
REMARK  status: ('A' for Active; 'I' for Inactive)
REMARK    1  A    between atoms: C_1  and  C_9
REMARK    2  A    between atoms: C_2  and  N_24
REMARK    3  A    between atoms: N_8  and  C_13
REMARK    4  A    between atoms: C_11  and  C_21
REMARK    5  A    between atoms: C_12  and  C_20
REMARK    6  A    between atoms: C_21  and  C_22
REMARK    7  A    between atoms: N_24  and  C_26
REMARK    8  A    between atoms: C_26  and  C_29
REMARK                            x       y       z     vdW  Elec       q    Type
REMARK                         _______ _______ _______ _____ _____    ______ ____
ROOT
ATOM      1  C   UNL     1      33.849 -15.103 -24.292  0.00  0.00    +0.067 C 
ATOM      2  C   UNL     1      34.489 -16.132 -23.577  0.00  0.00    +0.049 C 
ATOM      3  C   UNL     1      33.336 -15.332 -25.569  0.00  0.00    +0.006 C 
ATOM      4  C   UNL     1      34.598 -17.398 -24.182  0.00  0.00    +0.014 C 
ATOM      5  C   UNL     1      33.456 -16.594 -26.152  0.00  0.00    +0.000 C 
ATOM      6  C   UNL     1      34.086 -17.627 -25.458  0.00  0.00    +0.001 C 
ENDROOT
BRANCH   1   9
ATOM      7  O   UNL     1      33.358 -13.670 -22.526  0.00  0.00    -0.270 OA
ATOM      8  N   UNL     1      34.017 -12.703 -24.560  0.00  0.00    -0.280 N 
ATOM      9  C   UNL     1      33.709 -13.774 -23.712  0.00  0.00    +0.251 C 
ATOM     10  H   UNL     1      34.282 -12.945 -25.477  0.00  0.00    +0.155 HD
BRANCH   8  13
ATOM     11  C   UNL     1      33.962  -8.606 -23.707  0.00  0.00    -0.018 C 
ATOM     12  C   UNL     1      33.007  -9.451 -23.139  0.00  0.00    +0.069 C 
ATOM     13  C   UNL     1      33.998 -11.317 -24.271  0.00  0.00    +0.050 C 
ATOM     14  C   UNL     1      34.934  -9.128 -24.559  0.00  0.00    -0.003 C 
ATOM     15  C   UNL     1      33.025 -10.816 -23.423  0.00  0.00    +0.018 C 
ATOM     16  C   UNL     1      34.953 -10.494 -24.843  0.00  0.00    +0.014 C 
BRANCH  12  20
ATOM     17  F   UNL     1      31.057  -8.095 -22.845  0.00  0.00    -0.166 F 
ATOM     18  F   UNL     1      31.202  -9.886 -21.630  0.00  0.00    -0.166 F 
ATOM     19  F   UNL     1      32.478  -8.178 -21.200  0.00  0.00    -0.166 F 
ATOM     20  C   UNL     1      31.955  -8.914 -22.223  0.00  0.00    +0.418 C 
ENDBRANCH  12  20
BRANCH  11  21
ATOM     21  C   UNL     1      33.961  -7.142 -23.416  0.00  0.00    +0.026 C 
BRANCH  21  22
ATOM     22  C   UNL     1      33.706  -6.301 -24.675  0.00  0.00    +0.005 C 
ATOM     23  C   UNL     1      32.340  -5.636 -24.645  0.00  0.00    +0.000 C 
ENDBRANCH  21  22
ENDBRANCH  11  21
ENDBRANCH   8  13
ENDBRANCH   1   9
BRANCH   2  24
ATOM     24  N   UNL     1      35.006 -15.925 -22.305  0.00  0.00    -0.329 N 
ATOM     25  H   UNL     1      35.841 -15.410 -22.223  0.00  0.00    +0.147 HD
BRANCH  24  26
ATOM     26  C   UNL     1      34.394 -16.414 -21.100  0.00  0.00    +0.116 C 
BRANCH  26  29
ATOM     27  O   UNL     1      35.681 -21.769 -20.355  0.00  0.00    -0.270 OA
ATOM     28  N   UNL     1      36.368 -19.576 -20.595  0.00  0.00    -0.280 N 
ATOM     29  C   UNL     1      34.788 -17.843 -20.898  0.00  0.00    +0.012 C 
ATOM     30  C   UNL     1      36.060 -18.250 -20.779  0.00  0.00    +0.061 C 
ATOM     31  C   UNL     1      33.732 -18.832 -20.828  0.00  0.00    +0.003 C 
ATOM     32  C   UNL     1      34.001 -20.132 -20.650  0.00  0.00    +0.058 C 
ATOM     33  C   UNL     1      35.418 -20.580 -20.518  0.00  0.00    +0.250 C 
ATOM     34  H   UNL     1      37.317 -19.826 -20.513  0.00  0.00    +0.155 HD
ENDBRANCH  26  29
ENDBRANCH  24  26
ENDBRANCH   2  24
TORSDOF 8
ENDMDL
