MODEL 1
REMARK VINA RESULT:      -3.0      0.000      0.000
REMARK  Name = 6212
REMARK  0 active torsions:
REMARK  status: ('A' for Active; 'I' for Inactive)
REMARK                            x       y       z     vdW  Elec       q    Type
REMARK                         _______ _______ _______ _____ _____    ______ ____
ROOT
ATOM      1 CL   UNL     1      35.857 -20.552 -20.279  0.00  0.00    -0.079 Cl
ATOM      2 CL   UNL     1      34.614 -19.373 -22.635  0.00  0.00    -0.079 Cl
ATOM      3 CL   UNL     1      32.966 -20.216 -20.386  0.00  0.00    -0.079 Cl
ATOM      4  C   UNL     1      34.529 -19.541 -20.874  0.00  0.00    +0.236 C 
ENDROOT
TORSDOF 0
ENDMDL
MODEL 2
REMARK VINA RESULT:      -3.0      0.194      2.466
REMARK  Name = 6212
REMARK  0 active torsions:
REMARK  status: ('A' for Active; 'I' for Inactive)
REMARK                            x       y       z     vdW  Elec       q    Type
REMARK                         _______ _______ _______ _____ _____    ______ ____
ROOT
ATOM      1 CL   UNL     1      34.611 -19.363 -22.686  0.00  0.00    -0.079 Cl
ATOM      2 CL   UNL     1      32.780 -20.079 -20.536  0.00  0.00    -0.079 Cl
ATOM      3 CL   UNL     1      35.631 -20.607 -20.258  0.00  0.00    -0.079 Cl
ATOM      4  C   UNL     1      34.412 -19.513 -20.932  0.00  0.00    +0.236 C 
ENDROOT
TORSDOF 0
ENDMDL
MODEL 3
REMARK VINA RESULT:      -3.0      0.260      2.614
REMARK  Name = 6212
REMARK  0 active torsions:
REMARK  status: ('A' for Active; 'I' for Inactive)
REMARK                            x       y       z     vdW  Elec       q    Type
REMARK                         _______ _______ _______ _____ _____    ______ ____
ROOT
ATOM      1 CL   UNL     1      32.725 -20.046 -20.617  0.00  0.00    -0.079 Cl
ATOM      2 CL   UNL     1      35.560 -20.581 -20.211  0.00  0.00    -0.079 Cl
ATOM      3 CL   UNL     1      34.649 -19.363 -22.695  0.00  0.00    -0.079 Cl
ATOM      4  C   UNL     1      34.375 -19.491 -20.950  0.00  0.00    +0.236 C 
ENDROOT
TORSDOF 0
ENDMDL
MODEL 4
REMARK VINA RESULT:      -2.9      1.021      2.297
REMARK  Name = 6212
REMARK  0 active torsions:
REMARK  status: ('A' for Active; 'I' for Inactive)
REMARK                            x       y       z     vdW  Elec       q    Type
REMARK                         _______ _______ _______ _____ _____    ______ ____
ROOT
ATOM      1 CL   UNL     1      32.934 -20.209 -20.307  0.00  0.00    -0.079 Cl
ATOM      2 CL   UNL     1      34.800 -18.115 -21.095  0.00  0.00    -0.079 Cl
ATOM      3 CL   UNL     1      35.803 -20.669 -20.117  0.00  0.00    -0.079 Cl
ATOM      4  C   UNL     1      34.515 -19.863 -21.027  0.00  0.00    +0.236 C 
ENDROOT
TORSDOF 0
ENDMDL
MODEL 5
REMARK VINA RESULT:      -2.9      1.214      2.800
REMARK  Name = 6212
REMARK  0 active torsions:
REMARK  status: ('A' for Active; 'I' for Inactive)
REMARK                            x       y       z     vdW  Elec       q    Type
REMARK                         _______ _______ _______ _____ _____    ______ ____
ROOT
ATOM      1 CL   UNL     1      34.827 -19.360 -23.492  0.00  0.00    -0.079 Cl
ATOM      2 CL   UNL     1      33.491 -19.803 -20.941  0.00  0.00    -0.079 Cl
ATOM      3 CL   UNL     1      36.300 -19.036 -21.001  0.00  0.00    -0.079 Cl
ATOM      4  C   UNL     1      34.727 -18.863 -21.795  0.00  0.00    +0.236 C 
ENDROOT
TORSDOF 0
ENDMDL
MODEL 6
REMARK VINA RESULT:      -2.9      1.518      2.164
REMARK  Name = 6212
REMARK  0 active torsions:
REMARK  status: ('A' for Active; 'I' for Inactive)
REMARK                            x       y       z     vdW  Elec       q    Type
REMARK                         _______ _______ _______ _____ _____    ______ ____
ROOT
ATOM      1 CL   UNL     1      34.791 -19.351 -23.230  0.00  0.00    -0.079 Cl
ATOM      2 CL   UNL     1      35.046 -17.466 -21.023  0.00  0.00    -0.079 Cl
ATOM      3 CL   UNL     1      33.236 -19.737 -20.798  0.00  0.00    -0.079 Cl
ATOM      4  C   UNL     1      34.770 -19.159 -21.469  0.00  0.00    +0.236 C 
ENDROOT
TORSDOF 0
ENDMDL
MODEL 7
REMARK VINA RESULT:      -2.9      1.526      2.693
REMARK  Name = 6212
REMARK  0 active torsions:
REMARK  status: ('A' for Active; 'I' for Inactive)
REMARK                            x       y       z     vdW  Elec       q    Type
REMARK                         _______ _______ _______ _____ _____    ______ ____
ROOT
ATOM      1 CL   UNL     1      34.989 -17.430 -21.012  0.00  0.00    -0.079 Cl
ATOM      2 CL   UNL     1      33.194 -19.713 -20.770  0.00  0.00    -0.079 Cl
ATOM      3 CL   UNL     1      34.806 -19.375 -23.173  0.00  0.00    -0.079 Cl
ATOM      4  C   UNL     1      34.739 -19.136 -21.419  0.00  0.00    +0.236 C 
ENDROOT
TORSDOF 0
ENDMDL
MODEL 8
REMARK VINA RESULT:      -2.9      1.474      2.264
REMARK  Name = 6212
REMARK  0 active torsions:
REMARK  status: ('A' for Active; 'I' for Inactive)
REMARK                            x       y       z     vdW  Elec       q    Type
REMARK                         _______ _______ _______ _____ _____    ______ ____
ROOT
ATOM      1 CL   UNL     1      33.272 -19.767 -20.710  0.00  0.00    -0.079 Cl
ATOM      2 CL   UNL     1      34.795 -19.380 -23.163  0.00  0.00    -0.079 Cl
ATOM      3 CL   UNL     1      34.999 -17.440 -21.000  0.00  0.00    -0.079 Cl
ATOM      4  C   UNL     1      34.780 -19.150 -21.406  0.00  0.00    +0.236 C 
ENDROOT
TORSDOF 0
ENDMDL
MODEL 9
REMARK VINA RESULT:      -2.9      1.065      2.111
REMARK  Name = 6212
REMARK  0 active torsions:
REMARK  status: ('A' for Active; 'I' for Inactive)
REMARK                            x       y       z     vdW  Elec       q    Type
REMARK                         _______ _______ _______ _____ _____    ______ ____
ROOT
ATOM      1 CL   UNL     1      35.553 -20.838 -19.831  0.00  0.00    -0.079 Cl
ATOM      2 CL   UNL     1      32.796 -20.059 -20.360  0.00  0.00    -0.079 Cl
ATOM      3 CL   UNL     1      34.976 -18.250 -21.038  0.00  0.00    -0.079 Cl
ATOM      4  C   UNL     1      34.474 -19.945 -20.916  0.00  0.00    +0.236 C 
ENDROOT
TORSDOF 0
ENDMDL
