MODEL 1
REMARK VINA RESULT:      -6.2      0.000      0.000
REMARK  Name = 71815
REMARK  4 active torsions:
REMARK  status: ('A' for Active; 'I' for Inactive)
REMARK    1  A    between atoms: N_1  and  C_10
REMARK    2  A    between atoms: C_4  and  N_9
REMARK    3  A    between atoms: C_10  and  C_11
REMARK    4  A    between atoms: C_11  and  O_13
REMARK                            x       y       z     vdW  Elec       q    Type
REMARK                         _______ _______ _______ _____ _____    ______ ____
ROOT
ATOM      1  N   UNL     1      36.704 -24.690 -13.481  0.00  0.00    -0.254 N 
ATOM      2  N   UNL     1      37.956 -26.496 -13.676  0.00  0.00    -0.230 NA
ATOM      3  C   UNL     1      36.965 -25.812 -14.201  0.00  0.00    +0.114 C 
ATOM      4  C   UNL     1      37.566 -24.640 -12.434  0.00  0.00    +0.218 C 
ATOM      5  C   UNL     1      38.335 -25.771 -12.572  0.00  0.00    +0.140 C 
ATOM      6  C   UNL     1      36.208 -26.174 -15.416  0.00  0.00    +0.069 C 
ENDROOT
BRANCH   4   9
ATOM      7  O   UNL     1      36.841 -23.700 -10.461  0.00  0.00    -0.125 OA
ATOM      8  O   UNL     1      38.351 -22.625 -11.644  0.00  0.00    -0.125 OA
ATOM      9  N   UNL     1      37.587 -23.618 -11.479  0.00  0.00    +0.074 N 
ENDBRANCH   4   9
BRANCH   1  10
ATOM     10  C   UNL     1      35.669 -23.705 -13.789  0.00  0.00    +0.127 C 
BRANCH  10  11
ATOM     11  C   UNL     1      34.365 -23.961 -13.028  0.00  0.00    +0.131 C 
ATOM     12  C   UNL     1      33.264 -24.416 -13.977  0.00  0.00    +0.034 C 
BRANCH  11  13
ATOM     13  O   UNL     1      34.556 -25.000 -12.070  0.00  0.00    -0.383 OA
ATOM     14  H   UNL     1      34.725 -24.608 -11.198  0.00  0.00    +0.210 HD
ENDBRANCH  11  13
ENDBRANCH  10  11
ENDBRANCH   1  10
TORSDOF 4
ENDMDL
MODEL 2
REMARK VINA RESULT:      -6.2     14.253     15.118
REMARK  Name = 71815
REMARK  4 active torsions:
REMARK  status: ('A' for Active; 'I' for Inactive)
REMARK    1  A    between atoms: N_1  and  C_10
REMARK    2  A    between atoms: C_4  and  N_9
REMARK    3  A    between atoms: C_10  and  C_11
REMARK    4  A    between atoms: C_11  and  O_13
REMARK                            x       y       z     vdW  Elec       q    Type
REMARK                         _______ _______ _______ _____ _____    ______ ____
ROOT
ATOM      1  N   UNL     1      34.053 -15.281 -24.299  0.00  0.00    -0.254 N 
ATOM      2  N   UNL     1      33.296 -15.811 -26.302  0.00  0.00    -0.230 NA
ATOM      3  C   UNL     1      34.014 -16.220 -25.280  0.00  0.00    +0.114 C 
ATOM      4  C   UNL     1      33.327 -14.207 -24.701  0.00  0.00    +0.218 C 
ATOM      5  C   UNL     1      32.866 -14.556 -25.948  0.00  0.00    +0.140 C 
ATOM      6  C   UNL     1      34.702 -17.521 -25.167  0.00  0.00    +0.069 C 
ENDROOT
BRANCH   4   9
ATOM      7  O   UNL     1      32.255 -13.021 -23.044  0.00  0.00    -0.125 OA
ATOM      8  O   UNL     1      33.882 -12.041 -24.151  0.00  0.00    -0.125 OA
ATOM      9  N   UNL     1      33.148 -13.048 -23.938  0.00  0.00    +0.074 N 
ENDBRANCH   4   9
BRANCH   1  10
ATOM     10  C   UNL     1      34.759 -15.413 -23.026  0.00  0.00    +0.127 C 
BRANCH  10  11
ATOM     11  C   UNL     1      33.895 -16.051 -21.934  0.00  0.00    +0.131 C 
ATOM     12  C   UNL     1      34.734 -16.942 -21.029  0.00  0.00    +0.034 C 
BRANCH  11  13
ATOM     13  O   UNL     1      33.316 -15.036 -21.116  0.00  0.00    -0.383 OA
ATOM     14  H   UNL     1      34.020 -14.556 -20.652  0.00  0.00    +0.210 HD
ENDBRANCH  11  13
ENDBRANCH  10  11
ENDBRANCH   1  10
TORSDOF 4
ENDMDL
MODEL 3
REMARK VINA RESULT:      -6.1      2.058      2.730
REMARK  Name = 71815
REMARK  4 active torsions:
REMARK  status: ('A' for Active; 'I' for Inactive)
REMARK    1  A    between atoms: N_1  and  C_10
REMARK    2  A    between atoms: C_4  and  N_9
REMARK    3  A    between atoms: C_10  and  C_11
REMARK    4  A    between atoms: C_11  and  O_13
REMARK                            x       y       z     vdW  Elec       q    Type
REMARK                         _______ _______ _______ _____ _____    ______ ____
ROOT
ATOM      1  N   UNL     1      36.387 -24.455 -14.839  0.00  0.00    -0.254 N 
ATOM      2  N   UNL     1      38.267 -23.432 -15.375  0.00  0.00    -0.230 NA
ATOM      3  C   UNL     1      36.964 -23.448 -15.545  0.00  0.00    +0.114 C 
ATOM      4  C   UNL     1      37.361 -25.130 -14.177  0.00  0.00    +0.218 C 
ATOM      5  C   UNL     1      38.521 -24.479 -14.524  0.00  0.00    +0.140 C 
ATOM      6  C   UNL     1      36.186 -22.511 -16.381  0.00  0.00    +0.069 C 
ENDROOT
BRANCH   4   9
ATOM      7  O   UNL     1      36.859 -26.048 -12.126  0.00  0.00    -0.125 OA
ATOM      8  O   UNL     1      37.193 -27.399 -13.829  0.00  0.00    -0.125 OA
ATOM      9  N   UNL     1      37.130 -26.232 -13.348  0.00  0.00    +0.074 N 
ENDBRANCH   4   9
BRANCH   1  10
ATOM     10  C   UNL     1      34.957 -24.754 -14.801  0.00  0.00    +0.127 C 
BRANCH  10  11
ATOM     11  C   UNL     1      34.223 -23.991 -13.695  0.00  0.00    +0.131 C 
ATOM     12  C   UNL     1      32.784 -23.700 -14.098  0.00  0.00    +0.034 C 
BRANCH  11  13
ATOM     13  O   UNL     1      34.181 -24.778 -12.506  0.00  0.00    -0.383 OA
ATOM     14  H   UNL     1      35.074 -24.854 -12.137  0.00  0.00    +0.210 HD
ENDBRANCH  11  13
ENDBRANCH  10  11
ENDBRANCH   1  10
TORSDOF 4
ENDMDL
MODEL 4
REMARK VINA RESULT:      -6.1      2.160      3.116
REMARK  Name = 71815
REMARK  4 active torsions:
REMARK  status: ('A' for Active; 'I' for Inactive)
REMARK    1  A    between atoms: N_1  and  C_10
REMARK    2  A    between atoms: C_4  and  N_9
REMARK    3  A    between atoms: C_10  and  C_11
REMARK    4  A    between atoms: C_11  and  O_13
REMARK                            x       y       z     vdW  Elec       q    Type
REMARK                         _______ _______ _______ _____ _____    ______ ____
ROOT
ATOM      1  N   UNL     1      37.483 -25.019 -12.620  0.00  0.00    -0.254 N 
ATOM      2  N   UNL     1      38.827 -23.402 -11.954  0.00  0.00    -0.230 NA
ATOM      3  C   UNL     1      38.722 -24.470 -12.712  0.00  0.00    +0.114 C 
ATOM      4  C   UNL     1      36.744 -24.273 -11.760  0.00  0.00    +0.218 C 
ATOM      5  C   UNL     1      37.597 -23.274 -11.357  0.00  0.00    +0.140 C 
ATOM      6  C   UNL     1      39.784 -25.034 -13.569  0.00  0.00    +0.069 C 
ENDROOT
BRANCH   4   9
ATOM      7  O   UNL     1      35.155 -25.180 -10.361  0.00  0.00    -0.125 OA
ATOM      8  O   UNL     1      34.485 -24.155 -12.187  0.00  0.00    -0.125 OA
ATOM      9  N   UNL     1      35.414 -24.546 -11.425  0.00  0.00    +0.074 N 
ENDBRANCH   4   9
BRANCH   1  10
ATOM     10  C   UNL     1      37.028 -26.211 -13.333  0.00  0.00    +0.127 C 
BRANCH  10  11
ATOM     11  C   UNL     1      36.510 -25.897 -14.739  0.00  0.00    +0.131 C 
ATOM     12  C   UNL     1      36.716 -27.083 -15.671  0.00  0.00    +0.034 C 
BRANCH  11  13
ATOM     13  O   UNL     1      35.110 -25.629 -14.694  0.00  0.00    -0.383 OA
ATOM     14  H   UNL     1      34.619 -26.445 -14.874  0.00  0.00    +0.210 HD
ENDBRANCH  11  13
ENDBRANCH  10  11
ENDBRANCH   1  10
TORSDOF 4
ENDMDL
MODEL 5
REMARK VINA RESULT:      -6.1      3.037      3.932
REMARK  Name = 71815
REMARK  4 active torsions:
REMARK  status: ('A' for Active; 'I' for Inactive)
REMARK    1  A    between atoms: N_1  and  C_10
REMARK    2  A    between atoms: C_4  and  N_9
REMARK    3  A    between atoms: C_10  and  C_11
REMARK    4  A    between atoms: C_11  and  O_13
REMARK                            x       y       z     vdW  Elec       q    Type
REMARK                         _______ _______ _______ _____ _____    ______ ____
ROOT
ATOM      1  N   UNL     1      37.498 -24.568 -13.705  0.00  0.00    -0.254 N 
ATOM      2  N   UNL     1      37.108 -25.059 -11.590  0.00  0.00    -0.230 NA
ATOM      3  C   UNL     1      37.394 -24.095 -12.436  0.00  0.00    +0.114 C 
ATOM      4  C   UNL     1      37.270 -25.906 -13.686  0.00  0.00    +0.218 C 
ATOM      5  C   UNL     1      37.031 -26.191 -12.363  0.00  0.00    +0.140 C 
ATOM      6  C   UNL     1      37.583 -22.670 -12.098  0.00  0.00    +0.069 C 
ENDROOT
BRANCH   4   9
ATOM      7  O   UNL     1      38.294 -27.473 -15.027  0.00  0.00    -0.125 OA
ATOM      8  O   UNL     1      36.319 -26.710 -15.623  0.00  0.00    -0.125 OA
ATOM      9  N   UNL     1      37.295 -26.725 -14.819  0.00  0.00    +0.074 N 
ENDBRANCH   4   9
BRANCH   1  10
ATOM     10  C   UNL     1      37.802 -23.766 -14.888  0.00  0.00    +0.127 C 
BRANCH  10  11
ATOM     11  C   UNL     1      36.581 -23.010 -15.419  0.00  0.00    +0.131 C 
ATOM     12  C   UNL     1      36.994 -21.961 -16.443  0.00  0.00    +0.034 C 
BRANCH  11  13
ATOM     13  O   UNL     1      35.694 -23.916 -16.072  0.00  0.00    -0.383 OA
ATOM     14  H   UNL     1      35.124 -23.425 -16.684  0.00  0.00    +0.210 HD
ENDBRANCH  11  13
ENDBRANCH  10  11
ENDBRANCH   1  10
TORSDOF 4
ENDMDL
MODEL 6
REMARK VINA RESULT:      -6.1      1.441      3.304
REMARK  Name = 71815
REMARK  4 active torsions:
REMARK  status: ('A' for Active; 'I' for Inactive)
REMARK    1  A    between atoms: N_1  and  C_10
REMARK    2  A    between atoms: C_4  and  N_9
REMARK    3  A    between atoms: C_10  and  C_11
REMARK    4  A    between atoms: C_11  and  O_13
REMARK                            x       y       z     vdW  Elec       q    Type
REMARK                         _______ _______ _______ _____ _____    ______ ____
ROOT
ATOM      1  N   UNL     1      36.326 -25.263 -13.023  0.00  0.00    -0.254 N 
ATOM      2  N   UNL     1      34.638 -24.547 -14.250  0.00  0.00    -0.230 NA
ATOM      3  C   UNL     1      35.728 -25.282 -14.242  0.00  0.00    +0.114 C 
ATOM      4  C   UNL     1      35.592 -24.477 -12.195  0.00  0.00    +0.218 C 
ATOM      5  C   UNL     1      34.549 -24.041 -12.977  0.00  0.00    +0.140 C 
ATOM      6  C   UNL     1      36.267 -26.048 -15.383  0.00  0.00    +0.069 C 
ENDROOT
BRANCH   4   9
ATOM      7  O   UNL     1      35.299 -24.850  -9.942  0.00  0.00    -0.125 OA
ATOM      8  O   UNL     1      36.812 -23.386 -10.575  0.00  0.00    -0.125 OA
ATOM      9  N   UNL     1      35.913 -24.228 -10.856  0.00  0.00    +0.074 N 
ENDBRANCH   4   9
BRANCH   1  10
ATOM     10  C   UNL     1      37.553 -25.974 -12.668  0.00  0.00    +0.127 C 
BRANCH  10  11
ATOM     11  C   UNL     1      38.809 -25.121 -12.866  0.00  0.00    +0.131 C 
ATOM     12  C   UNL     1      39.647 -25.650 -14.022  0.00  0.00    +0.034 C 
BRANCH  11  13
ATOM     13  O   UNL     1      38.441 -23.780 -13.186  0.00  0.00    -0.383 OA
ATOM     14  H   UNL     1      39.019 -23.446 -13.889  0.00  0.00    +0.210 HD
ENDBRANCH  11  13
ENDBRANCH  10  11
ENDBRANCH   1  10
TORSDOF 4
ENDMDL
MODEL 7
REMARK VINA RESULT:      -6.0     13.354     14.447
REMARK  Name = 71815
REMARK  4 active torsions:
REMARK  status: ('A' for Active; 'I' for Inactive)
REMARK    1  A    between atoms: N_1  and  C_10
REMARK    2  A    between atoms: C_4  and  N_9
REMARK    3  A    between atoms: C_10  and  C_11
REMARK    4  A    between atoms: C_11  and  O_13
REMARK                            x       y       z     vdW  Elec       q    Type
REMARK                         _______ _______ _______ _____ _____    ______ ____
ROOT
ATOM      1  N   UNL     1      34.030 -15.750 -23.086  0.00  0.00    -0.254 N 
ATOM      2  N   UNL     1      33.857 -13.562 -22.872  0.00  0.00    -0.230 NA
ATOM      3  C   UNL     1      33.987 -14.699 -22.227  0.00  0.00    +0.114 C 
ATOM      4  C   UNL     1      33.922 -15.276 -24.353  0.00  0.00    +0.218 C 
ATOM      5  C   UNL     1      33.814 -13.915 -24.198  0.00  0.00    +0.140 C 
ATOM      6  C   UNL     1      34.082 -14.861 -20.762  0.00  0.00    +0.069 C 
ENDROOT
BRANCH   4   9
ATOM      7  O   UNL     1      34.962 -16.751 -25.783  0.00  0.00    -0.125 OA
ATOM      8  O   UNL     1      32.902 -16.128 -26.234  0.00  0.00    -0.125 OA
ATOM      9  N   UNL     1      33.929 -16.080 -25.498  0.00  0.00    +0.074 N 
ENDBRANCH   4   9
BRANCH   1  10
ATOM     10  C   UNL     1      34.172 -17.154 -22.704  0.00  0.00    +0.127 C 
BRANCH  10  11
ATOM     11  C   UNL     1      35.631 -17.558 -22.470  0.00  0.00    +0.131 C 
ATOM     12  C   UNL     1      35.763 -18.414 -21.218  0.00  0.00    +0.034 C 
BRANCH  11  13
ATOM     13  O   UNL     1      36.104 -18.334 -23.569  0.00  0.00    -0.383 OA
ATOM     14  H   UNL     1      36.911 -18.804 -23.309  0.00  0.00    +0.210 HD
ENDBRANCH  11  13
ENDBRANCH  10  11
ENDBRANCH   1  10
TORSDOF 4
ENDMDL
MODEL 8
REMARK VINA RESULT:      -6.0      2.310      3.905
REMARK  Name = 71815
REMARK  4 active torsions:
REMARK  status: ('A' for Active; 'I' for Inactive)
REMARK    1  A    between atoms: N_1  and  C_10
REMARK    2  A    between atoms: C_4  and  N_9
REMARK    3  A    between atoms: C_10  and  C_11
REMARK    4  A    between atoms: C_11  and  O_13
REMARK                            x       y       z     vdW  Elec       q    Type
REMARK                         _______ _______ _______ _____ _____    ______ ____
ROOT
ATOM      1  N   UNL     1      37.112 -24.199 -13.807  0.00  0.00    -0.254 N 
ATOM      2  N   UNL     1      35.372 -23.196 -14.720  0.00  0.00    -0.230 NA
ATOM      3  C   UNL     1      36.667 -23.403 -14.814  0.00  0.00    +0.114 C 
ATOM      4  C   UNL     1      36.058 -24.526 -13.018  0.00  0.00    +0.218 C 
ATOM      5  C   UNL     1      34.987 -23.893 -13.601  0.00  0.00    +0.140 C 
ATOM      6  C   UNL     1      37.558 -22.865 -15.861  0.00  0.00    +0.069 C 
ENDROOT
BRANCH   4   9
ATOM      7  O   UNL     1      36.877 -26.371 -11.909  0.00  0.00    -0.125 OA
ATOM      8  O   UNL     1      35.501 -25.028 -10.841  0.00  0.00    -0.125 OA
ATOM      9  N   UNL     1      36.148 -25.337 -11.882  0.00  0.00    +0.074 N 
ENDBRANCH   4   9
BRANCH   1  10
ATOM     10  C   UNL     1      38.496 -24.628 -13.615  0.00  0.00    +0.127 C 
BRANCH  10  11
ATOM     11  C   UNL     1      38.945 -25.659 -14.655  0.00  0.00    +0.131 C 
ATOM     12  C   UNL     1      40.438 -25.934 -14.537  0.00  0.00    +0.034 C 
BRANCH  11  13
ATOM     13  O   UNL     1      38.266 -26.894 -14.441  0.00  0.00    -0.383 OA
ATOM     14  H   UNL     1      38.908 -27.576 -14.188  0.00  0.00    +0.210 HD
ENDBRANCH  11  13
ENDBRANCH  10  11
ENDBRANCH   1  10
TORSDOF 4
ENDMDL
MODEL 9
REMARK VINA RESULT:      -6.0     13.127     13.947
REMARK  Name = 71815
REMARK  4 active torsions:
REMARK  status: ('A' for Active; 'I' for Inactive)
REMARK    1  A    between atoms: N_1  and  C_10
REMARK    2  A    between atoms: C_4  and  N_9
REMARK    3  A    between atoms: C_10  and  C_11
REMARK    4  A    between atoms: C_11  and  O_13
REMARK                            x       y       z     vdW  Elec       q    Type
REMARK                         _______ _______ _______ _____ _____    ______ ____
ROOT
ATOM      1  N   UNL     1      34.131 -15.876 -23.831  0.00  0.00    -0.254 N 
ATOM      2  N   UNL     1      33.940 -16.657 -25.885  0.00  0.00    -0.230 NA
ATOM      3  C   UNL     1      33.753 -15.613 -25.109  0.00  0.00    +0.114 C 
ATOM      4  C   UNL     1      34.586 -17.153 -23.770  0.00  0.00    +0.218 C 
ATOM      5  C   UNL     1      34.458 -17.621 -25.056  0.00  0.00    +0.140 C 
ATOM      6  C   UNL     1      33.209 -14.306 -25.528  0.00  0.00    +0.069 C 
ENDROOT
BRANCH   4   9
ATOM      7  O   UNL     1      34.238 -18.169 -21.733  0.00  0.00    -0.125 OA
ATOM      8  O   UNL     1      36.305 -17.909 -22.438  0.00  0.00    -0.125 OA
ATOM      9  N   UNL     1      35.060 -17.765 -22.605  0.00  0.00    +0.074 N 
ENDBRANCH   4   9
BRANCH   1  10
ATOM     10  C   UNL     1      34.060 -14.936 -22.714  0.00  0.00    +0.127 C 
BRANCH  10  11
ATOM     11  C   UNL     1      32.726 -15.009 -21.964  0.00  0.00    +0.131 C 
ATOM     12  C   UNL     1      32.950 -15.014 -20.458  0.00  0.00    +0.034 C 
BRANCH  11  13
ATOM     13  O   UNL     1      31.931 -13.867 -22.273  0.00  0.00    -0.383 OA
ATOM     14  H   UNL     1      31.110 -14.151 -22.705  0.00  0.00    +0.210 HD
ENDBRANCH  11  13
ENDBRANCH  10  11
ENDBRANCH   1  10
TORSDOF 4
ENDMDL
