MODEL 1
REMARK VINA RESULT:      -8.3      0.000      0.000
REMARK  Name = 71339
REMARK  5 active torsions:
REMARK  status: ('A' for Active; 'I' for Inactive)
REMARK    1  A    between atoms: C_4  and  C_13
REMARK    2  A    between atoms: C_7  and  S_17
REMARK    3  A    between atoms: C_8  and  C_12
REMARK    4  A    between atoms: C_13  and  O_15
REMARK    5  A    between atoms: S_17  and  C_21
REMARK                            x       y       z     vdW  Elec       q    Type
REMARK                         _______ _______ _______ _____ _____    ______ ____
ROOT
ATOM      1  O   UNL     1      37.730 -22.788 -15.103  0.00  0.00    -0.274 OA
ATOM      2  N   UNL     1      35.856 -24.148 -15.553  0.00  0.00    -0.254 N 
ATOM      3  C   UNL     1      35.238 -24.898 -14.443  0.00  0.00    +0.095 C 
ATOM      4  C   UNL     1      36.416 -24.358 -13.570  0.00  0.00    +0.123 C 
ATOM      5  C   UNL     1      33.767 -24.439 -14.465  0.00  0.00    +0.049 C 
ATOM      6  C   UNL     1      36.882 -23.610 -14.840  0.00  0.00    +0.233 C 
ATOM      7  C   UNL     1      33.702 -23.608 -15.735  0.00  0.00    +0.025 C 
ATOM      8  C   UNL     1      34.920 -23.462 -16.273  0.00  0.00    +0.136 C 
ATOM      9  C   UNL     1      33.323 -23.703 -13.212  0.00  0.00    +0.007 C 
ENDROOT
BRANCH   8  12
ATOM     10  O   UNL     1      34.730 -22.970 -18.560  0.00  0.00    -0.239 OA
ATOM     11  O   UNL     1      36.102 -21.687 -17.254  0.00  0.00    -0.239 OA
ATOM     12  C   UNL     1      35.287 -22.624 -17.482  0.00  0.00    +0.401 C 
ENDBRANCH   8  12
BRANCH   4  13
ATOM     13  C   UNL     1      37.457 -25.263 -12.961  0.00  0.00    +0.121 C 
ATOM     14  C   UNL     1      38.432 -24.506 -12.066  0.00  0.00    +0.032 C 
BRANCH  13  15
ATOM     15  O   UNL     1      36.819 -26.278 -12.183  0.00  0.00    -0.384 OA
ATOM     16  H   UNL     1      35.886 -26.046 -12.053  0.00  0.00    +0.210 HD
ENDBRANCH  13  15
ENDBRANCH   4  13
BRANCH   7  17
ATOM     17  S   UNL     1      32.233 -22.954 -16.342  0.00  0.00    -0.114 S 
BRANCH  17  21
ATOM     18  N   UNL     1      28.947 -22.873 -15.480  0.00  0.00    -0.179 NA
ATOM     19  N   UNL     1      28.962 -23.932 -16.397  0.00  0.00    -0.231 N 
ATOM     20  N   UNL     1      27.164 -22.753 -16.875  0.00  0.00    -0.233 NA
ATOM     21  C   UNL     1      31.025 -23.869 -15.314  0.00  0.00    +0.091 C 
ATOM     22  C   UNL     1      30.065 -22.860 -14.602  0.00  0.00    +0.107 C 
ATOM     23  C   UNL     1      30.128 -24.766 -16.220  0.00  0.00    +0.123 C 
ATOM     24  C   UNL     1      27.842 -22.153 -15.783  0.00  0.00    +0.219 C 
ATOM     25  C   UNL     1      27.892 -23.836 -17.221  0.00  0.00    +0.175 C 
ENDBRANCH  17  21
ENDBRANCH   7  17
TORSDOF 5
ENDMDL
MODEL 2
REMARK VINA RESULT:      -8.2      3.362      7.546
REMARK  Name = 71339
REMARK  5 active torsions:
REMARK  status: ('A' for Active; 'I' for Inactive)
REMARK    1  A    between atoms: C_4  and  C_13
REMARK    2  A    between atoms: C_7  and  S_17
REMARK    3  A    between atoms: C_8  and  C_12
REMARK    4  A    between atoms: C_13  and  O_15
REMARK    5  A    between atoms: S_17  and  C_21
REMARK                            x       y       z     vdW  Elec       q    Type
REMARK                         _______ _______ _______ _____ _____    ______ ____
ROOT
ATOM      1  O   UNL     1      31.471 -22.566 -16.421  0.00  0.00    -0.274 OA
ATOM      2  N   UNL     1      33.379 -23.922 -16.135  0.00  0.00    -0.254 N 
ATOM      3  C   UNL     1      34.586 -23.630 -16.932  0.00  0.00    +0.095 C 
ATOM      4  C   UNL     1      33.716 -22.545 -17.646  0.00  0.00    +0.123 C 
ATOM      5  C   UNL     1      35.687 -23.435 -15.872  0.00  0.00    +0.049 C 
ATOM      6  C   UNL     1      32.581 -22.968 -16.686  0.00  0.00    +0.233 C 
ATOM      7  C   UNL     1      34.981 -23.836 -14.588  0.00  0.00    +0.025 C 
ATOM      8  C   UNL     1      33.679 -24.063 -14.811  0.00  0.00    +0.136 C 
ATOM      9  C   UNL     1      36.289 -22.040 -15.845  0.00  0.00    +0.007 C 
ENDROOT
BRANCH   8  12
ATOM     10  O   UNL     1      32.370 -23.456 -12.960  0.00  0.00    -0.239 OA
ATOM     11  O   UNL     1      32.130 -25.546 -13.858  0.00  0.00    -0.239 OA
ATOM     12  C   UNL     1      32.622 -24.387 -13.774  0.00  0.00    +0.401 C 
ENDBRANCH   8  12
BRANCH   4  13
ATOM     13  C   UNL     1      33.358 -22.625 -19.109  0.00  0.00    +0.121 C 
ATOM     14  C   UNL     1      33.532 -21.288 -19.822  0.00  0.00    +0.032 C 
BRANCH  13  15
ATOM     15  O   UNL     1      34.184 -23.596 -19.754  0.00  0.00    -0.384 OA
ATOM     16  H   UNL     1      33.963 -24.480 -19.423  0.00  0.00    +0.210 HD
ENDBRANCH  13  15
ENDBRANCH   4  13
BRANCH   7  17
ATOM     17  S   UNL     1      35.793 -23.949 -13.078  0.00  0.00    -0.114 S 
BRANCH  17  21
ATOM     18  N   UNL     1      38.345 -25.572 -14.626  0.00  0.00    -0.179 NA
ATOM     19  N   UNL     1      38.835 -25.482 -13.318  0.00  0.00    -0.231 N 
ATOM     20  N   UNL     1      40.539 -24.998 -14.627  0.00  0.00    -0.233 NA
ATOM     21  C   UNL     1      36.511 -25.628 -13.224  0.00  0.00    +0.091 C 
ATOM     22  C   UNL     1      36.960 -25.885 -14.700  0.00  0.00    +0.107 C 
ATOM     23  C   UNL     1      37.796 -25.734 -12.347  0.00  0.00    +0.123 C 
ATOM     24  C   UNL     1      39.397 -25.271 -15.424  0.00  0.00    +0.219 C 
ATOM     25  C   UNL     1      40.143 -25.133 -13.343  0.00  0.00    +0.175 C 
ENDBRANCH  17  21
ENDBRANCH   7  17
TORSDOF 5
ENDMDL
MODEL 3
REMARK VINA RESULT:      -8.1     12.651     15.127
REMARK  Name = 71339
REMARK  5 active torsions:
REMARK  status: ('A' for Active; 'I' for Inactive)
REMARK    1  A    between atoms: C_4  and  C_13
REMARK    2  A    between atoms: C_7  and  S_17
REMARK    3  A    between atoms: C_8  and  C_12
REMARK    4  A    between atoms: C_13  and  O_15
REMARK    5  A    between atoms: S_17  and  C_21
REMARK                            x       y       z     vdW  Elec       q    Type
REMARK                         _______ _______ _______ _____ _____    ______ ____
ROOT
ATOM      1  O   UNL     1      32.916  -8.428 -20.578  0.00  0.00    -0.274 OA
ATOM      2  N   UNL     1      31.910  -9.806 -22.206  0.00  0.00    -0.254 N 
ATOM      3  C   UNL     1      32.388  -9.727 -23.600  0.00  0.00    +0.095 C 
ATOM      4  C   UNL     1      33.295  -8.555 -23.104  0.00  0.00    +0.123 C 
ATOM      5  C   UNL     1      32.787 -11.178 -23.933  0.00  0.00    +0.049 C 
ATOM      6  C   UNL     1      32.704  -8.823 -21.702  0.00  0.00    +0.233 C 
ATOM      7  C   UNL     1      32.296 -11.941 -22.715  0.00  0.00    +0.025 C 
ATOM      8  C   UNL     1      31.847 -11.100 -21.774  0.00  0.00    +0.136 C 
ATOM      9  C   UNL     1      34.265 -11.366 -24.236  0.00  0.00    +0.007 C 
ENDROOT
BRANCH   8  12
ATOM     10  O   UNL     1      32.032 -12.369 -19.809  0.00  0.00    -0.239 OA
ATOM     11  O   UNL     1      30.365 -10.813 -19.977  0.00  0.00    -0.239 OA
ATOM     12  C   UNL     1      31.368 -11.463 -20.383  0.00  0.00    +0.401 C 
ENDBRANCH   8  12
BRANCH   4  13
ATOM     13  C   UNL     1      33.128  -7.138 -23.591  0.00  0.00    +0.121 C 
ATOM     14  C   UNL     1      34.238  -6.719 -24.551  0.00  0.00    +0.032 C 
BRANCH  13  15
ATOM     15  O   UNL     1      31.873  -7.003 -24.261  0.00  0.00    -0.384 OA
ATOM     16  H   UNL     1      31.316  -6.371 -23.780  0.00  0.00    +0.210 HD
ENDBRANCH  13  15
ENDBRANCH   4  13
BRANCH   7  17
ATOM     17  S   UNL     1      32.351 -13.655 -22.609  0.00  0.00    -0.114 S 
BRANCH  17  21
ATOM     18  N   UNL     1      34.595 -15.995 -21.590  0.00  0.00    -0.179 NA
ATOM     19  N   UNL     1      34.674 -16.131 -22.981  0.00  0.00    -0.231 N 
ATOM     20  N   UNL     1      34.662 -18.183 -22.182  0.00  0.00    -0.233 NA
ATOM     21  C   UNL     1      34.161 -13.912 -22.487  0.00  0.00    +0.091 C 
ATOM     22  C   UNL     1      34.503 -14.646 -21.150  0.00  0.00    +0.107 C 
ATOM     23  C   UNL     1      34.644 -14.846 -23.639  0.00  0.00    +0.123 C 
ATOM     24  C   UNL     1      34.586 -17.260 -21.107  0.00  0.00    +0.219 C 
ATOM     25  C   UNL     1      34.707 -17.444 -23.310  0.00  0.00    +0.175 C 
ENDBRANCH  17  21
ENDBRANCH   7  17
TORSDOF 5
ENDMDL
MODEL 4
REMARK VINA RESULT:      -8.1      2.618      4.107
REMARK  Name = 71339
REMARK  5 active torsions:
REMARK  status: ('A' for Active; 'I' for Inactive)
REMARK    1  A    between atoms: C_4  and  C_13
REMARK    2  A    between atoms: C_7  and  S_17
REMARK    3  A    between atoms: C_8  and  C_12
REMARK    4  A    between atoms: C_13  and  O_15
REMARK    5  A    between atoms: S_17  and  C_21
REMARK                            x       y       z     vdW  Elec       q    Type
REMARK                         _______ _______ _______ _____ _____    ______ ____
ROOT
ATOM      1  O   UNL     1      38.817 -25.959 -11.767  0.00  0.00    -0.274 OA
ATOM      2  N   UNL     1      37.542 -24.482 -13.092  0.00  0.00    -0.254 N 
ATOM      3  C   UNL     1      37.595 -24.616 -14.560  0.00  0.00    +0.095 C 
ATOM      4  C   UNL     1      38.683 -25.709 -14.309  0.00  0.00    +0.123 C 
ATOM      5  C   UNL     1      36.120 -24.802 -14.965  0.00  0.00    +0.049 C 
ATOM      6  C   UNL     1      38.451 -25.452 -12.803  0.00  0.00    +0.233 C 
ATOM      7  C   UNL     1      35.388 -24.557 -13.656  0.00  0.00    +0.025 C 
ATOM      8  C   UNL     1      36.254 -24.418 -12.644  0.00  0.00    +0.136 C 
ATOM      9  C   UNL     1      35.813 -26.143 -15.611  0.00  0.00    +0.007 C 
ENDROOT
BRANCH   8  12
ATOM     10  O   UNL     1      36.464 -23.273 -10.605  0.00  0.00    -0.239 OA
ATOM     11  O   UNL     1      35.135 -25.132 -10.708  0.00  0.00    -0.239 OA
ATOM     12  C   UNL     1      35.918 -24.258 -11.174  0.00  0.00    +0.401 C 
ENDBRANCH   8  12
BRANCH   4  13
ATOM     13  C   UNL     1      40.114 -25.548 -14.757  0.00  0.00    +0.121 C 
ATOM     14  C   UNL     1      41.044 -26.568 -14.107  0.00  0.00    +0.032 C 
BRANCH  13  15
ATOM     15  O   UNL     1      40.196 -25.697 -16.175  0.00  0.00    -0.384 OA
ATOM     16  H   UNL     1      40.845 -25.069 -16.530  0.00  0.00    +0.210 HD
ENDBRANCH  13  15
ENDBRANCH   4  13
BRANCH   7  17
ATOM     17  S   UNL     1      33.674 -24.494 -13.549  0.00  0.00    -0.114 S 
BRANCH  17  21
ATOM     18  N   UNL     1      31.384 -23.679 -15.924  0.00  0.00    -0.179 NA
ATOM     19  N   UNL     1      31.026 -22.806 -14.890  0.00  0.00    -0.231 N 
ATOM     20  N   UNL     1      29.131 -23.596 -15.688  0.00  0.00    -0.233 NA
ATOM     21  C   UNL     1      33.323 -23.178 -14.774  0.00  0.00    +0.091 C 
ATOM     22  C   UNL     1      32.789 -23.815 -16.097  0.00  0.00    +0.107 C 
ATOM     23  C   UNL     1      32.190 -22.247 -14.243  0.00  0.00    +0.123 C 
ATOM     24  C   UNL     1      30.215 -24.162 -16.407  0.00  0.00    +0.219 C 
ATOM     25  C   UNL     1      29.678 -22.777 -14.765  0.00  0.00    +0.175 C 
ENDBRANCH  17  21
ENDBRANCH   7  17
TORSDOF 5
ENDMDL
MODEL 5
REMARK VINA RESULT:      -8.1     11.649     13.462
REMARK  Name = 71339
REMARK  5 active torsions:
REMARK  status: ('A' for Active; 'I' for Inactive)
REMARK    1  A    between atoms: C_4  and  C_13
REMARK    2  A    between atoms: C_7  and  S_17
REMARK    3  A    between atoms: C_8  and  C_12
REMARK    4  A    between atoms: C_13  and  O_15
REMARK    5  A    between atoms: S_17  and  C_21
REMARK                            x       y       z     vdW  Elec       q    Type
REMARK                         _______ _______ _______ _____ _____    ______ ____
ROOT
ATOM      1  O   UNL     1      34.848 -16.441 -25.802  0.00  0.00    -0.274 OA
ATOM      2  N   UNL     1      33.340 -15.350 -24.355  0.00  0.00    -0.254 N 
ATOM      3  C   UNL     1      33.400 -15.644 -22.910  0.00  0.00    +0.095 C 
ATOM      4  C   UNL     1      34.477 -16.713 -23.286  0.00  0.00    +0.123 C 
ATOM      5  C   UNL     1      33.604 -14.260 -22.262  0.00  0.00    +0.049 C 
ATOM      6  C   UNL     1      34.300 -16.231 -24.744  0.00  0.00    +0.233 C 
ATOM      7  C   UNL     1      33.441 -13.319 -23.443  0.00  0.00    +0.025 C 
ATOM      8  C   UNL     1      33.330 -14.004 -24.589  0.00  0.00    +0.136 C 
ATOM      9  C   UNL     1      34.918 -14.106 -21.516  0.00  0.00    +0.007 C 
ENDROOT
BRANCH   8  12
ATOM     10  O   UNL     1      32.499 -14.059 -26.783  0.00  0.00    -0.239 OA
ATOM     11  O   UNL     1      33.950 -12.396 -26.182  0.00  0.00    -0.239 OA
ATOM     12  C   UNL     1      33.252 -13.430 -25.990  0.00  0.00    +0.401 C 
ENDBRANCH   8  12
BRANCH   4  13
ATOM     13  C   UNL     1      34.257 -18.191 -23.086  0.00  0.00    +0.121 C 
ATOM     14  C   UNL     1      35.361 -19.032 -23.720  0.00  0.00    +0.032 C 
BRANCH  13  15
ATOM     15  O   UNL     1      34.206 -18.486 -21.689  0.00  0.00    -0.384 OA
ATOM     16  H   UNL     1      34.515 -17.718 -21.184  0.00  0.00    +0.210 HD
ENDBRANCH  13  15
ENDBRANCH   4  13
BRANCH   7  17
ATOM     17  S   UNL     1      33.427 -11.609 -23.273  0.00  0.00    -0.114 S 
BRANCH  17  21
ATOM     18  N   UNL     1      31.778 -10.605 -20.476  0.00  0.00    -0.179 NA
ATOM     19  N   UNL     1      31.643  -9.475 -21.292  0.00  0.00    -0.231 N 
ATOM     20  N   UNL     1      32.125  -8.708 -19.284  0.00  0.00    -0.233 NA
ATOM     21  C   UNL     1      31.719 -11.361 -22.657  0.00  0.00    +0.091 C 
ATOM     22  C   UNL     1      31.619 -11.835 -21.171  0.00  0.00    +0.107 C 
ATOM     23  C   UNL     1      31.369  -9.842 -22.661  0.00  0.00    +0.123 C 
ATOM     24  C   UNL     1      32.076 -10.125 -19.246  0.00  0.00    +0.219 C 
ATOM     25  C   UNL     1      31.860  -8.356 -20.560  0.00  0.00    +0.175 C 
ENDBRANCH  17  21
ENDBRANCH   7  17
TORSDOF 5
ENDMDL
MODEL 6
REMARK VINA RESULT:      -7.9      8.822     11.855
REMARK  Name = 71339
REMARK  5 active torsions:
REMARK  status: ('A' for Active; 'I' for Inactive)
REMARK    1  A    between atoms: C_4  and  C_13
REMARK    2  A    between atoms: C_7  and  S_17
REMARK    3  A    between atoms: C_8  and  C_12
REMARK    4  A    between atoms: C_13  and  O_15
REMARK    5  A    between atoms: S_17  and  C_21
REMARK                            x       y       z     vdW  Elec       q    Type
REMARK                         _______ _______ _______ _____ _____    ______ ____
ROOT
ATOM      1  O   UNL     1      33.835 -12.489 -23.394  0.00  0.00    -0.274 OA
ATOM      2  N   UNL     1      33.181 -14.739 -23.127  0.00  0.00    -0.254 N 
ATOM      3  C   UNL     1      33.282 -15.652 -24.282  0.00  0.00    +0.095 C 
ATOM      4  C   UNL     1      33.699 -14.388 -25.102  0.00  0.00    +0.123 C 
ATOM      5  C   UNL     1      34.171 -16.800 -23.766  0.00  0.00    +0.049 C 
ATOM      6  C   UNL     1      33.579 -13.610 -23.772  0.00  0.00    +0.233 C 
ATOM      7  C   UNL     1      34.307 -16.470 -22.289  0.00  0.00    +0.025 C 
ATOM      8  C   UNL     1      33.755 -15.282 -22.012  0.00  0.00    +0.136 C 
ATOM      9  C   UNL     1      35.493 -16.945 -24.500  0.00  0.00    +0.007 C 
ENDROOT
BRANCH   8  12
ATOM     10  O   UNL     1      34.915 -14.405 -20.170  0.00  0.00    -0.239 OA
ATOM     11  O   UNL     1      32.638 -14.203 -20.253  0.00  0.00    -0.239 OA
ATOM     12  C   UNL     1      33.771 -14.558 -20.680  0.00  0.00    +0.401 C 
ENDBRANCH   8  12
BRANCH   4  13
ATOM     13  C   UNL     1      32.859 -13.836 -26.226  0.00  0.00    +0.121 C 
ATOM     14  C   UNL     1      33.707 -13.291 -27.370  0.00  0.00    +0.032 C 
BRANCH  13  15
ATOM     15  O   UNL     1      32.007 -14.862 -26.740  0.00  0.00    -0.384 OA
ATOM     16  H   UNL     1      31.553 -14.538 -27.533  0.00  0.00    +0.210 HD
ENDBRANCH  13  15
ENDBRANCH   4  13
BRANCH   7  17
ATOM     17  S   UNL     1      35.093 -17.515 -21.173  0.00  0.00    -0.114 S 
BRANCH  17  21
ATOM     18  N   UNL     1      35.292 -20.840 -20.502  0.00  0.00    -0.179 NA
ATOM     19  N   UNL     1      33.913 -20.624 -20.398  0.00  0.00    -0.231 N 
ATOM     20  N   UNL     1      34.441 -21.932 -18.707  0.00  0.00    -0.233 NA
ATOM     21  C   UNL     1      34.774 -19.134 -21.969  0.00  0.00    +0.091 C 
ATOM     22  C   UNL     1      35.901 -20.145 -21.583  0.00  0.00    +0.107 C 
ATOM     23  C   UNL     1      33.438 -19.735 -21.432  0.00  0.00    +0.123 C 
ATOM     24  C   UNL     1      35.609 -21.642 -19.458  0.00  0.00    +0.219 C 
ATOM     25  C   UNL     1      33.428 -21.280 -19.317  0.00  0.00    +0.175 C 
ENDBRANCH  17  21
ENDBRANCH   7  17
TORSDOF 5
ENDMDL
MODEL 7
REMARK VINA RESULT:      -7.8     13.312     15.152
REMARK  Name = 71339
REMARK  5 active torsions:
REMARK  status: ('A' for Active; 'I' for Inactive)
REMARK    1  A    between atoms: C_4  and  C_13
REMARK    2  A    between atoms: C_7  and  S_17
REMARK    3  A    between atoms: C_8  and  C_12
REMARK    4  A    between atoms: C_13  and  O_15
REMARK    5  A    between atoms: S_17  and  C_21
REMARK                            x       y       z     vdW  Elec       q    Type
REMARK                         _______ _______ _______ _____ _____    ______ ____
ROOT
ATOM      1  O   UNL     1      31.969 -15.317 -21.210  0.00  0.00    -0.274 OA
ATOM      2  N   UNL     1      33.302 -13.478 -21.844  0.00  0.00    -0.254 N 
ATOM      3  C   UNL     1      34.246 -13.635 -22.966  0.00  0.00    +0.095 C 
ATOM      4  C   UNL     1      33.816 -15.138 -22.971  0.00  0.00    +0.123 C 
ATOM      5  C   UNL     1      33.842 -12.516 -23.945  0.00  0.00    +0.049 C 
ATOM      6  C   UNL     1      32.853 -14.762 -21.822  0.00  0.00    +0.233 C 
ATOM      7  C   UNL     1      32.816 -11.734 -23.143  0.00  0.00    +0.025 C 
ATOM      8  C   UNL     1      32.540 -12.354 -21.988  0.00  0.00    +0.136 C 
ATOM      9  C   UNL     1      33.338 -13.013 -25.290  0.00  0.00    +0.007 C 
ENDROOT
BRANCH   8  12
ATOM     10  O   UNL     1      30.397 -11.569 -21.440  0.00  0.00    -0.239 OA
ATOM     11  O   UNL     1      31.876 -12.035 -19.760  0.00  0.00    -0.239 OA
ATOM     12  C   UNL     1      31.501 -11.945 -20.961  0.00  0.00    +0.401 C 
ENDBRANCH   8  12
BRANCH   4  13
ATOM     13  C   UNL     1      34.772 -16.257 -22.643  0.00  0.00    +0.121 C 
ATOM     14  C   UNL     1      34.088 -17.621 -22.638  0.00  0.00    +0.032 C 
BRANCH  13  15
ATOM     15  O   UNL     1      35.831 -16.282 -23.601  0.00  0.00    -0.384 OA
ATOM     16  H   UNL     1      36.428 -15.534 -23.444  0.00  0.00    +0.210 HD
ENDBRANCH  13  15
ENDBRANCH   4  13
BRANCH   7  17
ATOM     17  S   UNL     1      32.123 -10.264 -23.704  0.00  0.00    -0.114 S 
BRANCH  17  21
ATOM     18  N   UNL     1      32.698  -6.924 -23.469  0.00  0.00    -0.179 NA
ATOM     19  N   UNL     1      31.781  -7.115 -22.429  0.00  0.00    -0.231 N 
ATOM     20  N   UNL     1      31.155  -5.263 -23.443  0.00  0.00    -0.233 NA
ATOM     21  C   UNL     1      33.038  -9.062 -22.668  0.00  0.00    +0.091 C 
ATOM     22  C   UNL     1      33.670  -7.956 -23.574  0.00  0.00    +0.107 C 
ATOM     23  C   UNL     1      32.053  -8.333 -21.704  0.00  0.00    +0.123 C 
ATOM     24  C   UNL     1      32.305  -5.785 -24.089  0.00  0.00    +0.219 C 
ATOM     25  C   UNL     1      30.867  -6.115 -22.437  0.00  0.00    +0.175 C 
ENDBRANCH  17  21
ENDBRANCH   7  17
TORSDOF 5
ENDMDL
MODEL 8
REMARK VINA RESULT:      -7.6     12.868     15.159
REMARK  Name = 71339
REMARK  5 active torsions:
REMARK  status: ('A' for Active; 'I' for Inactive)
REMARK    1  A    between atoms: C_4  and  C_13
REMARK    2  A    between atoms: C_7  and  S_17
REMARK    3  A    between atoms: C_8  and  C_12
REMARK    4  A    between atoms: C_13  and  O_15
REMARK    5  A    between atoms: S_17  and  C_21
REMARK                            x       y       z     vdW  Elec       q    Type
REMARK                         _______ _______ _______ _____ _____    ______ ____
ROOT
ATOM      1  O   UNL     1      32.407  -8.240 -24.696  0.00  0.00    -0.274 OA
ATOM      2  N   UNL     1      33.137  -9.700 -22.994  0.00  0.00    -0.254 N 
ATOM      3  C   UNL     1      32.475  -9.645 -21.677  0.00  0.00    +0.095 C 
ATOM      4  C   UNL     1      31.680  -8.428 -22.251  0.00  0.00    +0.123 C 
ATOM      5  C   UNL     1      31.990 -11.091 -21.450  0.00  0.00    +0.049 C 
ATOM      6  C   UNL     1      32.450  -8.675 -23.568  0.00  0.00    +0.233 C 
ATOM      7  C   UNL     1      32.621 -11.834 -22.615  0.00  0.00    +0.025 C 
ATOM      8  C   UNL     1      33.220 -10.981 -23.457  0.00  0.00    +0.136 C 
ATOM      9  C   UNL     1      30.481 -11.237 -21.358  0.00  0.00    +0.007 C 
ENDROOT
BRANCH   8  12
ATOM     10  O   UNL     1      33.242 -12.148 -25.494  0.00  0.00    -0.239 OA
ATOM     11  O   UNL     1      34.969 -10.730 -25.002  0.00  0.00    -0.239 OA
ATOM     12  C   UNL     1      33.875 -11.320 -24.782  0.00  0.00    +0.401 C 
ENDBRANCH   8  12
BRANCH   4  13
ATOM     13  C   UNL     1      31.822  -7.033 -21.697  0.00  0.00    +0.121 C 
ATOM     14  C   UNL     1      30.686  -6.116 -22.139  0.00  0.00    +0.032 C 
BRANCH  13  15
ATOM     15  O   UNL     1      31.839  -7.080 -20.269  0.00  0.00    -0.384 OA
ATOM     16  H   UNL     1      31.041  -7.529 -19.950  0.00  0.00    +0.210 HD
ENDBRANCH  13  15
ENDBRANCH   4  13
BRANCH   7  17
ATOM     17  S   UNL     1      32.529 -13.542 -22.786  0.00  0.00    -0.114 S 
BRANCH  17  21
ATOM     18  N   UNL     1      34.457 -16.110 -21.674  0.00  0.00    -0.179 NA
ATOM     19  N   UNL     1      34.610 -16.236 -23.060  0.00  0.00    -0.231 N 
ATOM     20  N   UNL     1      34.340 -18.285 -22.301  0.00  0.00    -0.233 NA
ATOM     21  C   UNL     1      34.293 -13.982 -22.557  0.00  0.00    +0.091 C 
ATOM     22  C   UNL     1      34.473 -14.764 -21.216  0.00  0.00    +0.107 C 
ATOM     23  C   UNL     1      34.751 -14.946 -23.694  0.00  0.00    +0.123 C 
ATOM     24  C   UNL     1      34.289 -17.373 -21.216  0.00  0.00    +0.219 C 
ATOM     25  C   UNL     1      34.531 -17.541 -23.411  0.00  0.00    +0.175 C 
ENDBRANCH  17  21
ENDBRANCH   7  17
TORSDOF 5
ENDMDL
MODEL 9
REMARK VINA RESULT:      -7.5      9.352     11.273
REMARK  Name = 71339
REMARK  5 active torsions:
REMARK  status: ('A' for Active; 'I' for Inactive)
REMARK    1  A    between atoms: C_4  and  C_13
REMARK    2  A    between atoms: C_7  and  S_17
REMARK    3  A    between atoms: C_8  and  C_12
REMARK    4  A    between atoms: C_13  and  O_15
REMARK    5  A    between atoms: S_17  and  C_21
REMARK                            x       y       z     vdW  Elec       q    Type
REMARK                         _______ _______ _______ _____ _____    ______ ____
ROOT
ATOM      1  O   UNL     1      31.965 -18.723 -20.223  0.00  0.00    -0.274 OA
ATOM      2  N   UNL     1      34.151 -18.123 -20.873  0.00  0.00    -0.254 N 
ATOM      3  C   UNL     1      34.998 -19.132 -21.539  0.00  0.00    +0.095 C 
ATOM      4  C   UNL     1      33.828 -20.132 -21.266  0.00  0.00    +0.123 C 
ATOM      5  C   UNL     1      35.397 -18.458 -22.866  0.00  0.00    +0.049 C 
ATOM      6  C   UNL     1      33.080 -18.930 -20.644  0.00  0.00    +0.233 C 
ATOM      7  C   UNL     1      34.862 -17.047 -22.690  0.00  0.00    +0.025 C 
ATOM      8  C   UNL     1      34.145 -16.945 -21.563  0.00  0.00    +0.136 C 
ATOM      9  C   UNL     1      34.887 -19.170 -24.107  0.00  0.00    +0.007 C 
ENDROOT
BRANCH   8  12
ATOM     10  O   UNL     1      34.072 -14.812 -20.586  0.00  0.00    -0.239 OA
ATOM     11  O   UNL     1      32.119 -15.804 -21.246  0.00  0.00    -0.239 OA
ATOM     12  C   UNL     1      33.369 -15.734 -21.084  0.00  0.00    +0.401 C 
ENDBRANCH   8  12
BRANCH   4  13
ATOM     13  C   UNL     1      33.973 -21.320 -20.349  0.00  0.00    +0.121 C 
ATOM     14  C   UNL     1      35.233 -21.241 -19.494  0.00  0.00    +0.032 C 
BRANCH  13  15
ATOM     15  O   UNL     1      32.839 -21.401 -19.483  0.00  0.00    -0.384 OA
ATOM     16  H   UNL     1      32.138 -21.913 -19.915  0.00  0.00    +0.210 HD
ENDBRANCH  13  15
ENDBRANCH   4  13
BRANCH   7  17
ATOM     17  S   UNL     1      35.157 -15.793 -23.829  0.00  0.00    -0.114 S 
BRANCH  17  21
ATOM     18  N   UNL     1      33.387 -13.217 -25.161  0.00  0.00    -0.179 NA
ATOM     19  N   UNL     1      33.422 -14.108 -26.240  0.00  0.00    -0.231 N 
ATOM     20  N   UNL     1      33.809 -12.118 -27.099  0.00  0.00    -0.233 NA
ATOM     21  C   UNL     1      33.435 -15.344 -24.263  0.00  0.00    +0.091 C 
ATOM     22  C   UNL     1      33.172 -13.845 -23.904  0.00  0.00    +0.107 C 
ATOM     23  C   UNL     1      33.226 -15.471 -25.804  0.00  0.00    +0.123 C 
ATOM     24  C   UNL     1      33.628 -11.997 -25.697  0.00  0.00    +0.219 C 
ATOM     25  C   UNL     1      33.680 -13.431 -27.383  0.00  0.00    +0.175 C 
ENDBRANCH  17  21
ENDBRANCH   7  17
TORSDOF 5
ENDMDL
