MODEL 1
REMARK VINA RESULT:      -7.3      0.000      0.000
REMARK  Name = 445722
REMARK  7 active torsions:
REMARK  status: ('A' for Active; 'I' for Inactive)
REMARK    1  A    between atoms: C_2  and  O_13
REMARK    2  A    between atoms: C_3  and  O_15
REMARK    3  A    between atoms: C_4  and  O_17
REMARK    4  A    between atoms: C_5  and  C_19
REMARK    5  A    between atoms: C_6  and  N_8
REMARK    6  A    between atoms: C_9  and  O_11
REMARK    7  A    between atoms: C_19  and  O_20
REMARK                            x       y       z     vdW  Elec       q    Type
REMARK                         _______ _______ _______ _____ _____    ______ ____
ROOT
ATOM      1  O   UNL     1      35.945 -25.088 -14.827  0.00  0.00    -0.333 OA
ATOM      2  C   UNL     1      35.780 -24.690 -11.991  0.00  0.00    +0.171 C 
ATOM      3  C   UNL     1      36.782 -25.658 -12.620  0.00  0.00    +0.169 C 
ATOM      4  C   UNL     1      34.590 -24.430 -12.917  0.00  0.00    +0.187 C 
ATOM      5  C   UNL     1      37.136 -25.215 -14.044  0.00  0.00    +0.175 C 
ATOM      6  C   UNL     1      35.065 -24.085 -14.328  0.00  0.00    +0.224 C 
ENDROOT
BRANCH   6   8
ATOM      7  O   UNL     1      35.034 -22.893 -16.978  0.00  0.00    -0.226 OA
ATOM      8  N   UNL     1      33.954 -23.992 -15.242  0.00  0.00    -0.247 N 
ATOM      9  C   UNL     1      34.031 -23.405 -16.489  0.00  0.00    +0.403 C 
ATOM     10  H   UNL     1      33.089 -24.369 -14.960  0.00  0.00    +0.155 HD
BRANCH   9  11
ATOM     11  O   UNL     1      32.816 -23.474 -17.110  0.00  0.00    -0.431 OA
ATOM     12  C   UNL     1      31.674 -23.245 -16.276  0.00  0.00    +0.257 C 
ENDBRANCH   9  11
ENDBRANCH   6   8
BRANCH   2  13
ATOM     13  O   UNL     1      35.305 -25.235 -10.758  0.00  0.00    -0.379 OA
ATOM     14  H   UNL     1      36.051 -25.596 -10.255  0.00  0.00    +0.211 HD
ENDBRANCH   2  13
BRANCH   3  15
ATOM     15  O   UNL     1      37.949 -25.681 -11.802  0.00  0.00    -0.379 OA
ATOM     16  H   UNL     1      38.123 -26.591 -11.514  0.00  0.00    +0.211 HD
ENDBRANCH   3  15
BRANCH   4  17
ATOM     17  O   UNL     1      33.831 -23.337 -12.403  0.00  0.00    -0.378 OA
ATOM     18  H   UNL     1      33.083 -23.678 -11.888  0.00  0.00    +0.211 HD
ENDBRANCH   4  17
BRANCH   5  19
ATOM     19  C   UNL     1      38.037 -26.219 -14.755  0.00  0.00    +0.169 C 
BRANCH  19  20
ATOM     20  O   UNL     1      37.334 -26.751 -15.862  0.00  0.00    -0.379 OA
ATOM     21  H   UNL     1      37.957 -26.931 -16.584  0.00  0.00    +0.211 HD
ENDBRANCH  19  20
ENDBRANCH   5  19
TORSDOF 7
ENDMDL
MODEL 2
REMARK VINA RESULT:      -6.9      1.773      4.784
REMARK  Name = 445722
REMARK  7 active torsions:
REMARK  status: ('A' for Active; 'I' for Inactive)
REMARK    1  A    between atoms: C_2  and  O_13
REMARK    2  A    between atoms: C_3  and  O_15
REMARK    3  A    between atoms: C_4  and  O_17
REMARK    4  A    between atoms: C_5  and  C_19
REMARK    5  A    between atoms: C_6  and  N_8
REMARK    6  A    between atoms: C_9  and  O_11
REMARK    7  A    between atoms: C_19  and  O_20
REMARK                            x       y       z     vdW  Elec       q    Type
REMARK                         _______ _______ _______ _____ _____    ______ ____
ROOT
ATOM      1  O   UNL     1      34.973 -24.109 -15.950  0.00  0.00    -0.333 OA
ATOM      2  C   UNL     1      33.071 -23.820 -13.822  0.00  0.00    +0.171 C 
ATOM      3  C   UNL     1      32.923 -23.081 -15.153  0.00  0.00    +0.169 C 
ATOM      4  C   UNL     1      34.522 -24.227 -13.562  0.00  0.00    +0.187 C 
ATOM      5  C   UNL     1      33.603 -23.865 -16.281  0.00  0.00    +0.175 C 
ATOM      6  C   UNL     1      35.120 -24.919 -14.787  0.00  0.00    +0.224 C 
ENDROOT
BRANCH   6   8
ATOM      7  O   UNL     1      36.704 -27.087 -15.898  0.00  0.00    -0.226 OA
ATOM      8  N   UNL     1      36.530 -25.165 -14.608  0.00  0.00    -0.247 N 
ATOM      9  C   UNL     1      37.202 -26.227 -15.178  0.00  0.00    +0.403 C 
ATOM     10  H   UNL     1      37.042 -24.540 -14.046  0.00  0.00    +0.155 HD
BRANCH   9  11
ATOM     11  O   UNL     1      38.521 -26.185 -14.821  0.00  0.00    -0.431 OA
ATOM     12  C   UNL     1      38.837 -25.361 -13.693  0.00  0.00    +0.257 C 
ENDBRANCH   9  11
ENDBRANCH   6   8
BRANCH   2  13
ATOM     13  O   UNL     1      32.623 -22.976 -12.759  0.00  0.00    -0.379 OA
ATOM     14  H   UNL     1      31.660 -22.869 -12.815  0.00  0.00    +0.211 HD
ENDBRANCH   2  13
BRANCH   3  15
ATOM     15  O   UNL     1      31.532 -22.927 -15.422  0.00  0.00    -0.379 OA
ATOM     16  H   UNL     1      31.151 -22.291 -14.797  0.00  0.00    +0.211 HD
ENDBRANCH   3  15
BRANCH   4  17
ATOM     17  O   UNL     1      34.562 -25.127 -12.457  0.00  0.00    -0.378 OA
ATOM     18  H   UNL     1      34.567 -24.621 -11.629  0.00  0.00    +0.211 HD
ENDBRANCH   4  17
BRANCH   5  19
ATOM     19  C   UNL     1      33.588 -23.105 -17.603  0.00  0.00    +0.169 C 
BRANCH  19  20
ATOM     20  O   UNL     1      34.918 -22.752 -17.936  0.00  0.00    -0.379 OA
ATOM     21  H   UNL     1      35.203 -22.005 -17.386  0.00  0.00    +0.211 HD
ENDBRANCH  19  20
ENDBRANCH   5  19
TORSDOF 7
ENDMDL
MODEL 3
REMARK VINA RESULT:      -6.9      1.597      3.110
REMARK  Name = 445722
REMARK  7 active torsions:
REMARK  status: ('A' for Active; 'I' for Inactive)
REMARK    1  A    between atoms: C_2  and  O_13
REMARK    2  A    between atoms: C_3  and  O_15
REMARK    3  A    between atoms: C_4  and  O_17
REMARK    4  A    between atoms: C_5  and  C_19
REMARK    5  A    between atoms: C_6  and  N_8
REMARK    6  A    between atoms: C_9  and  O_11
REMARK    7  A    between atoms: C_19  and  O_20
REMARK                            x       y       z     vdW  Elec       q    Type
REMARK                         _______ _______ _______ _____ _____    ______ ____
ROOT
ATOM      1  O   UNL     1      35.877 -23.648 -13.531  0.00  0.00    -0.333 OA
ATOM      2  C   UNL     1      37.253 -26.142 -13.870  0.00  0.00    +0.171 C 
ATOM      3  C   UNL     1      37.737 -25.071 -12.892  0.00  0.00    +0.169 C 
ATOM      4  C   UNL     1      36.376 -25.544 -14.971  0.00  0.00    +0.187 C 
ATOM      5  C   UNL     1      36.562 -24.213 -12.410  0.00  0.00    +0.175 C 
ATOM      6  C   UNL     1      35.298 -24.638 -14.376  0.00  0.00    +0.224 C 
ENDROOT
BRANCH   6   8
ATOM      7  O   UNL     1      32.453 -24.053 -14.461  0.00  0.00    -0.226 OA
ATOM      8  N   UNL     1      34.568 -23.949 -15.412  0.00  0.00    -0.247 N 
ATOM      9  C   UNL     1      33.208 -23.715 -15.367  0.00  0.00    +0.403 C 
ATOM     10  H   UNL     1      35.068 -23.629 -16.196  0.00  0.00    +0.155 HD
BRANCH   9  11
ATOM     11  O   UNL     1      32.817 -23.044 -16.492  0.00  0.00    -0.431 OA
ATOM     12  C   UNL     1      33.566 -23.326 -17.680  0.00  0.00    +0.257 C 
ENDBRANCH   9  11
ENDBRANCH   6   8
BRANCH   2  13
ATOM     13  O   UNL     1      38.382 -26.785 -14.466  0.00  0.00    -0.379 OA
ATOM     14  H   UNL     1      38.089 -27.577 -14.943  0.00  0.00    +0.211 HD
ENDBRANCH   2  13
BRANCH   3  15
ATOM     15  O   UNL     1      38.360 -25.726 -11.790  0.00  0.00    -0.379 OA
ATOM     16  H   UNL     1      39.320 -25.608 -11.845  0.00  0.00    +0.211 HD
ENDBRANCH   3  15
BRANCH   4  17
ATOM     17  O   UNL     1      35.746 -26.602 -15.691  0.00  0.00    -0.378 OA
ATOM     18  H   UNL     1      35.402 -26.260 -16.531  0.00  0.00    +0.211 HD
ENDBRANCH   4  17
BRANCH   5  19
ATOM     19  C   UNL     1      37.016 -23.054 -11.529  0.00  0.00    +0.169 C 
BRANCH  19  20
ATOM     20  O   UNL     1      38.414 -22.892 -11.683  0.00  0.00    -0.379 OA
ATOM     21  H   UNL     1      38.876 -23.400 -10.997  0.00  0.00    +0.211 HD
ENDBRANCH  19  20
ENDBRANCH   5  19
TORSDOF 7
ENDMDL
MODEL 4
REMARK VINA RESULT:      -6.8      1.676      5.808
REMARK  Name = 445722
REMARK  7 active torsions:
REMARK  status: ('A' for Active; 'I' for Inactive)
REMARK    1  A    between atoms: C_2  and  O_13
REMARK    2  A    between atoms: C_3  and  O_15
REMARK    3  A    between atoms: C_4  and  O_17
REMARK    4  A    between atoms: C_5  and  C_19
REMARK    5  A    between atoms: C_6  and  N_8
REMARK    6  A    between atoms: C_9  and  O_11
REMARK    7  A    between atoms: C_19  and  O_20
REMARK                            x       y       z     vdW  Elec       q    Type
REMARK                         _______ _______ _______ _____ _____    ______ ____
ROOT
ATOM      1  O   UNL     1      32.950 -24.352 -13.959  0.00  0.00    -0.333 OA
ATOM      2  C   UNL     1      33.552 -23.326 -16.569  0.00  0.00    +0.171 C 
ATOM      3  C   UNL     1      32.123 -23.641 -16.127  0.00  0.00    +0.169 C 
ATOM      4  C   UNL     1      34.580 -24.107 -15.748  0.00  0.00    +0.187 C 
ATOM      5  C   UNL     1      31.989 -23.513 -14.605  0.00  0.00    +0.175 C 
ATOM      6  C   UNL     1      34.292 -23.977 -14.252  0.00  0.00    +0.224 C 
ENDROOT
BRANCH   6   8
ATOM      7  O   UNL     1      35.015 -23.718 -11.450  0.00  0.00    -0.226 OA
ATOM      8  N   UNL     1      35.159 -24.833 -13.480  0.00  0.00    -0.247 N 
ATOM      9  C   UNL     1      35.447 -24.632 -12.145  0.00  0.00    +0.403 C 
ATOM     10  H   UNL     1      35.569 -25.606 -13.932  0.00  0.00    +0.155 HD
BRANCH   9  11
ATOM     11  O   UNL     1      36.294 -25.609 -11.703  0.00  0.00    -0.431 OA
ATOM     12  C   UNL     1      37.230 -26.108 -12.665  0.00  0.00    +0.257 C 
ENDBRANCH   9  11
ENDBRANCH   6   8
BRANCH   2  13
ATOM     13  O   UNL     1      33.705 -23.658 -17.950  0.00  0.00    -0.379 OA
ATOM     14  H   UNL     1      34.636 -23.560 -18.205  0.00  0.00    +0.211 HD
ENDBRANCH   2  13
BRANCH   3  15
ATOM     15  O   UNL     1      31.245 -22.728 -16.782  0.00  0.00    -0.379 OA
ATOM     16  H   UNL     1      31.508 -21.819 -16.570  0.00  0.00    +0.211 HD
ENDBRANCH   3  15
BRANCH   4  17
ATOM     17  O   UNL     1      35.881 -23.588 -16.016  0.00  0.00    -0.378 OA
ATOM     18  H   UNL     1      36.544 -24.273 -15.839  0.00  0.00    +0.211 HD
ENDBRANCH   4  17
BRANCH   5  19
ATOM     19  C   UNL     1      30.612 -23.938 -14.108  0.00  0.00    +0.169 C 
BRANCH  19  20
ATOM     20  O   UNL     1      30.779 -24.799 -12.997  0.00  0.00    -0.379 OA
ATOM     21  H   UNL     1      30.789 -24.274 -12.180  0.00  0.00    +0.211 HD
ENDBRANCH  19  20
ENDBRANCH   5  19
TORSDOF 7
ENDMDL
MODEL 5
REMARK VINA RESULT:      -6.7      2.020      3.639
REMARK  Name = 445722
REMARK  7 active torsions:
REMARK  status: ('A' for Active; 'I' for Inactive)
REMARK    1  A    between atoms: C_2  and  O_13
REMARK    2  A    between atoms: C_3  and  O_15
REMARK    3  A    between atoms: C_4  and  O_17
REMARK    4  A    between atoms: C_5  and  C_19
REMARK    5  A    between atoms: C_6  and  N_8
REMARK    6  A    between atoms: C_9  and  O_11
REMARK    7  A    between atoms: C_19  and  O_20
REMARK                            x       y       z     vdW  Elec       q    Type
REMARK                         _______ _______ _______ _____ _____    ______ ____
ROOT
ATOM      1  O   UNL     1      34.997 -23.568 -12.903  0.00  0.00    -0.333 OA
ATOM      2  C   UNL     1      36.793 -23.867 -15.119  0.00  0.00    +0.171 C 
ATOM      3  C   UNL     1      37.291 -23.622 -13.694  0.00  0.00    +0.169 C 
ATOM      4  C   UNL     1      35.352 -23.387 -15.302  0.00  0.00    +0.187 C 
ATOM      5  C   UNL     1      36.280 -24.155 -12.672  0.00  0.00    +0.175 C 
ATOM      6  C   UNL     1      34.458 -23.908 -14.177  0.00  0.00    +0.224 C 
ENDROOT
BRANCH   6   8
ATOM      7  O   UNL     1      31.961 -25.056 -13.236  0.00  0.00    -0.226 OA
ATOM      8  N   UNL     1      33.137 -23.334 -14.255  0.00  0.00    -0.247 N 
ATOM      9  C   UNL     1      32.001 -23.956 -13.778  0.00  0.00    +0.403 C 
ATOM     10  H   UNL     1      33.041 -22.449 -14.673  0.00  0.00    +0.155 HD
BRANCH   9  11
ATOM     11  O   UNL     1      30.911 -23.161 -14.000  0.00  0.00    -0.431 OA
ATOM     12  C   UNL     1      30.556 -22.957 -15.373  0.00  0.00    +0.257 C 
ENDBRANCH   9  11
ENDBRANCH   6   8
BRANCH   2  13
ATOM     13  O   UNL     1      37.638 -23.177 -16.042  0.00  0.00    -0.379 OA
ATOM     14  H   UNL     1      37.098 -22.614 -16.618  0.00  0.00    +0.211 HD
ENDBRANCH   2  13
BRANCH   3  15
ATOM     15  O   UNL     1      38.546 -24.281 -13.544  0.00  0.00    -0.379 OA
ATOM     16  H   UNL     1      38.489 -25.173 -13.921  0.00  0.00    +0.211 HD
ENDBRANCH   3  15
BRANCH   4  17
ATOM     17  O   UNL     1      34.856 -23.870 -16.549  0.00  0.00    -0.378 OA
ATOM     18  H   UNL     1      35.155 -23.286 -17.263  0.00  0.00    +0.211 HD
ENDBRANCH   4  17
BRANCH   5  19
ATOM     19  C   UNL     1      36.678 -23.821 -11.239  0.00  0.00    +0.169 C 
BRANCH  19  20
ATOM     20  O   UNL     1      37.570 -22.721 -11.263  0.00  0.00    -0.379 OA
ATOM     21  H   UNL     1      38.397 -22.966 -10.817  0.00  0.00    +0.211 HD
ENDBRANCH  19  20
ENDBRANCH   5  19
TORSDOF 7
ENDMDL
MODEL 6
REMARK VINA RESULT:      -6.7     10.928     13.462
REMARK  Name = 445722
REMARK  7 active torsions:
REMARK  status: ('A' for Active; 'I' for Inactive)
REMARK    1  A    between atoms: C_2  and  O_13
REMARK    2  A    between atoms: C_3  and  O_15
REMARK    3  A    between atoms: C_4  and  O_17
REMARK    4  A    between atoms: C_5  and  C_19
REMARK    5  A    between atoms: C_6  and  N_8
REMARK    6  A    between atoms: C_9  and  O_11
REMARK    7  A    between atoms: C_19  and  O_20
REMARK                            x       y       z     vdW  Elec       q    Type
REMARK                         _______ _______ _______ _____ _____    ______ ____
ROOT
ATOM      1  O   UNL     1      33.814 -14.992 -22.953  0.00  0.00    -0.333 OA
ATOM      2  C   UNL     1      35.013 -17.575 -23.297  0.00  0.00    +0.171 C 
ATOM      3  C   UNL     1      34.935 -16.888 -21.933  0.00  0.00    +0.169 C 
ATOM      4  C   UNL     1      34.921 -16.564 -24.442  0.00  0.00    +0.187 C 
ATOM      5  C   UNL     1      33.737 -15.933 -21.880  0.00  0.00    +0.175 C 
ATOM      6  C   UNL     1      33.744 -15.612 -24.233  0.00  0.00    +0.224 C 
ENDROOT
BRANCH   6   8
ATOM      7  O   UNL     1      32.527 -15.652 -26.871  0.00  0.00    -0.226 OA
ATOM      8  N   UNL     1      33.744 -14.562 -25.223  0.00  0.00    -0.247 N 
ATOM      9  C   UNL     1      33.136 -14.670 -26.457  0.00  0.00    +0.403 C 
ATOM     10  H   UNL     1      34.204 -13.720 -25.005  0.00  0.00    +0.155 HD
BRANCH   9  11
ATOM     11  O   UNL     1      33.312 -13.513 -27.162  0.00  0.00    -0.431 OA
ATOM     12  C   UNL     1      33.660 -12.358 -26.390  0.00  0.00    +0.257 C 
ENDBRANCH   9  11
ENDBRANCH   6   8
BRANCH   2  13
ATOM     13  O   UNL     1      36.247 -18.288 -23.399  0.00  0.00    -0.379 OA
ATOM     14  H   UNL     1      36.873 -17.777 -23.935  0.00  0.00    +0.211 HD
ENDBRANCH   2  13
BRANCH   3  15
ATOM     15  O   UNL     1      34.812 -17.898 -20.935  0.00  0.00    -0.379 OA
ATOM     16  H   UNL     1      34.883 -18.772 -21.350  0.00  0.00    +0.211 HD
ENDBRANCH   3  15
BRANCH   4  17
ATOM     17  O   UNL     1      34.736 -17.267 -25.669  0.00  0.00    -0.378 OA
ATOM     18  H   UNL     1      35.337 -16.907 -26.341  0.00  0.00    +0.211 HD
ENDBRANCH   4  17
BRANCH   5  19
ATOM     19  C   UNL     1      33.693 -15.135 -20.582  0.00  0.00    +0.169 C 
BRANCH  19  20
ATOM     20  O   UNL     1      34.971 -15.188 -19.975  0.00  0.00    -0.379 OA
ATOM     21  H   UNL     1      34.962 -15.841 -19.257  0.00  0.00    +0.211 HD
ENDBRANCH  19  20
ENDBRANCH   5  19
TORSDOF 7
ENDMDL
MODEL 7
REMARK VINA RESULT:      -6.7     10.646     12.951
REMARK  Name = 445722
REMARK  7 active torsions:
REMARK  status: ('A' for Active; 'I' for Inactive)
REMARK    1  A    between atoms: C_2  and  O_13
REMARK    2  A    between atoms: C_3  and  O_15
REMARK    3  A    between atoms: C_4  and  O_17
REMARK    4  A    between atoms: C_5  and  C_19
REMARK    5  A    between atoms: C_6  and  N_8
REMARK    6  A    between atoms: C_9  and  O_11
REMARK    7  A    between atoms: C_19  and  O_20
REMARK                            x       y       z     vdW  Elec       q    Type
REMARK                         _______ _______ _______ _____ _____    ______ ____
ROOT
ATOM      1  O   UNL     1      33.739 -15.546 -23.665  0.00  0.00    -0.333 OA
ATOM      2  C   UNL     1      35.326 -16.902 -21.698  0.00  0.00    +0.171 C 
ATOM      3  C   UNL     1      34.994 -17.531 -23.051  0.00  0.00    +0.169 C 
ATOM      4  C   UNL     1      34.315 -15.819 -21.318  0.00  0.00    +0.187 C 
ATOM      5  C   UNL     1      34.761 -16.444 -24.106  0.00  0.00    +0.175 C 
ATOM      6  C   UNL     1      34.098 -14.847 -22.478  0.00  0.00    +0.224 C 
ENDROOT
BRANCH   6   8
ATOM      7  O   UNL     1      33.503 -12.341 -23.823  0.00  0.00    -0.226 OA
ATOM      8  N   UNL     1      33.034 -13.917 -22.185  0.00  0.00    -0.247 N 
ATOM      9  C   UNL     1      32.827 -12.744 -22.882  0.00  0.00    +0.403 C 
ATOM     10  H   UNL     1      32.422 -14.132 -21.445  0.00  0.00    +0.155 HD
BRANCH   9  11
ATOM     11  O   UNL     1      31.746 -12.085 -22.366  0.00  0.00    -0.431 OA
ATOM     12  C   UNL     1      31.649 -12.066 -20.937  0.00  0.00    +0.257 C 
ENDBRANCH   9  11
ENDBRANCH   6   8
BRANCH   2  13
ATOM     13  O   UNL     1      35.327 -17.916 -20.691  0.00  0.00    -0.379 OA
ATOM     14  H   UNL     1      35.861 -17.622 -19.936  0.00  0.00    +0.211 HD
ENDBRANCH   2  13
BRANCH   3  15
ATOM     15  O   UNL     1      36.085 -18.367 -23.430  0.00  0.00    -0.379 OA
ATOM     16  H   UNL     1      36.890 -18.072 -22.977  0.00  0.00    +0.211 HD
ENDBRANCH   3  15
BRANCH   4  17
ATOM     17  O   UNL     1      34.810 -15.094 -20.193  0.00  0.00    -0.378 OA
ATOM     18  H   UNL     1      35.556 -15.576 -19.802  0.00  0.00    +0.211 HD
ENDBRANCH   4  17
BRANCH   5  19
ATOM     19  C   UNL     1      34.306 -17.024 -25.441  0.00  0.00    +0.169 C 
BRANCH  19  20
ATOM     20  O   UNL     1      33.787 -15.973 -26.236  0.00  0.00    -0.379 OA
ATOM     21  H   UNL     1      33.018 -15.582 -25.793  0.00  0.00    +0.211 HD
ENDBRANCH  19  20
ENDBRANCH   5  19
TORSDOF 7
ENDMDL
MODEL 8
REMARK VINA RESULT:      -6.6      8.678     12.119
REMARK  Name = 445722
REMARK  7 active torsions:
REMARK  status: ('A' for Active; 'I' for Inactive)
REMARK    1  A    between atoms: C_2  and  O_13
REMARK    2  A    between atoms: C_3  and  O_15
REMARK    3  A    between atoms: C_4  and  O_17
REMARK    4  A    between atoms: C_5  and  C_19
REMARK    5  A    between atoms: C_6  and  N_8
REMARK    6  A    between atoms: C_9  and  O_11
REMARK    7  A    between atoms: C_19  and  O_20
REMARK                            x       y       z     vdW  Elec       q    Type
REMARK                         _______ _______ _______ _____ _____    ______ ____
ROOT
ATOM      1  O   UNL     1      33.965 -16.444 -21.158  0.00  0.00    -0.333 OA
ATOM      2  C   UNL     1      34.895 -16.193 -23.860  0.00  0.00    +0.171 C 
ATOM      3  C   UNL     1      33.881 -15.223 -23.254  0.00  0.00    +0.169 C 
ATOM      4  C   UNL     1      34.903 -17.533 -23.121  0.00  0.00    +0.187 C 
ATOM      5  C   UNL     1      34.059 -15.139 -21.734  0.00  0.00    +0.175 C 
ATOM      6  C   UNL     1      34.994 -17.319 -21.610  0.00  0.00    +0.224 C 
ENDROOT
BRANCH   6   8
ATOM      7  O   UNL     1      37.076 -19.206 -20.871  0.00  0.00    -0.226 OA
ATOM      8  N   UNL     1      34.845 -18.565 -20.899  0.00  0.00    -0.247 N 
ATOM      9  C   UNL     1      35.898 -19.403 -20.590  0.00  0.00    +0.403 C 
ATOM     10  H   UNL     1      33.941 -18.834 -20.620  0.00  0.00    +0.155 HD
BRANCH   9  11
ATOM     11  O   UNL     1      35.434 -20.499 -19.917  0.00  0.00    -0.431 OA
ATOM     12  C   UNL     1      36.427 -21.300 -19.268  0.00  0.00    +0.257 C 
ENDBRANCH   9  11
ENDBRANCH   6   8
BRANCH   2  13
ATOM     13  O   UNL     1      34.573 -16.418 -25.235  0.00  0.00    -0.379 OA
ATOM     14  H   UNL     1      34.097 -17.258 -25.322  0.00  0.00    +0.211 HD
ENDBRANCH   2  13
BRANCH   3  15
ATOM     15  O   UNL     1      34.081 -13.943 -23.850  0.00  0.00    -0.379 OA
ATOM     16  H   UNL     1      34.698 -14.027 -24.594  0.00  0.00    +0.211 HD
ENDBRANCH   3  15
BRANCH   4  17
ATOM     17  O   UNL     1      36.030 -18.294 -23.550  0.00  0.00    -0.378 OA
ATOM     18  H   UNL     1      36.835 -17.760 -23.452  0.00  0.00    +0.211 HD
ENDBRANCH   4  17
BRANCH   5  19
ATOM     19  C   UNL     1      32.988 -14.277 -21.074  0.00  0.00    +0.169 C 
BRANCH  19  20
ATOM     20  O   UNL     1      31.940 -14.069 -22.003  0.00  0.00    -0.379 OA
ATOM     21  H   UNL     1      32.308 -13.725 -22.833  0.00  0.00    +0.211 HD
ENDBRANCH  19  20
ENDBRANCH   5  19
TORSDOF 7
ENDMDL
MODEL 9
REMARK VINA RESULT:      -6.6      8.392     11.585
REMARK  Name = 445722
REMARK  7 active torsions:
REMARK  status: ('A' for Active; 'I' for Inactive)
REMARK    1  A    between atoms: C_2  and  O_13
REMARK    2  A    between atoms: C_3  and  O_15
REMARK    3  A    between atoms: C_4  and  O_17
REMARK    4  A    between atoms: C_5  and  C_19
REMARK    5  A    between atoms: C_6  and  N_8
REMARK    6  A    between atoms: C_9  and  O_11
REMARK    7  A    between atoms: C_19  and  O_20
REMARK                            x       y       z     vdW  Elec       q    Type
REMARK                         _______ _______ _______ _____ _____    ______ ____
ROOT
ATOM      1  O   UNL     1      35.101 -18.141 -22.907  0.00  0.00    -0.333 OA
ATOM      2  C   UNL     1      34.340 -15.448 -22.276  0.00  0.00    +0.171 C 
ATOM      3  C   UNL     1      34.448 -15.947 -23.717  0.00  0.00    +0.169 C 
ATOM      4  C   UNL     1      35.180 -16.298 -21.321  0.00  0.00    +0.187 C 
ATOM      5  C   UNL     1      34.199 -17.459 -23.783  0.00  0.00    +0.175 C 
ATOM      6  C   UNL     1      34.912 -17.787 -21.540  0.00  0.00    +0.224 C 
ENDROOT
BRANCH   6   8
ATOM      7  O   UNL     1      34.515 -20.519 -20.636  0.00  0.00    -0.226 OA
ATOM      8  N   UNL     1      35.811 -18.597 -20.756  0.00  0.00    -0.247 N 
ATOM      9  C   UNL     1      35.537 -19.894 -20.370  0.00  0.00    +0.403 C 
ATOM     10  H   UNL     1      36.669 -18.203 -20.479  0.00  0.00    +0.155 HD
BRANCH   9  11
ATOM     11  O   UNL     1      36.580 -20.389 -19.639  0.00  0.00    -0.431 OA
ATOM     12  C   UNL     1      36.295 -21.549 -18.849  0.00  0.00    +0.257 C 
ENDBRANCH   9  11
ENDBRANCH   6   8
BRANCH   2  13
ATOM     13  O   UNL     1      34.784 -14.091 -22.210  0.00  0.00    -0.379 OA
ATOM     14  H   UNL     1      35.740 -14.055 -22.370  0.00  0.00    +0.211 HD
ENDBRANCH   2  13
BRANCH   3  15
ATOM     15  O   UNL     1      33.484 -15.250 -24.502  0.00  0.00    -0.379 OA
ATOM     16  H   UNL     1      32.660 -15.162 -23.998  0.00  0.00    +0.211 HD
ENDBRANCH   3  15
BRANCH   4  17
ATOM     17  O   UNL     1      34.842 -15.959 -19.978  0.00  0.00    -0.378 OA
ATOM     18  H   UNL     1      34.402 -15.095 -19.964  0.00  0.00    +0.211 HD
ENDBRANCH   4  17
BRANCH   5  19
ATOM     19  C   UNL     1      34.419 -18.020 -25.183  0.00  0.00    +0.169 C 
BRANCH  19  20
ATOM     20  O   UNL     1      34.914 -16.984 -26.012  0.00  0.00    -0.379 OA
ATOM     21  H   UNL     1      34.314 -16.857 -26.764  0.00  0.00    +0.211 HD
ENDBRANCH  19  20
ENDBRANCH   5  19
TORSDOF 7
ENDMDL
