MODEL 1
REMARK VINA RESULT:      -9.0      0.000      0.000
REMARK  Name = 178518
REMARK  3 active torsions:
REMARK  status: ('A' for Active; 'I' for Inactive)
REMARK    1  A    between atoms: C_1  and  C_8
REMARK    2  A    between atoms: C_2  and  O_14
REMARK    3  A    between atoms: C_4  and  O_16
REMARK                            x       y       z     vdW  Elec       q    Type
REMARK                         _______ _______ _______ _____ _____    ______ ____
ROOT
ATOM      1  C   UNL     1      34.619 -18.079 -21.988  0.00  0.00    +0.038 C 
ATOM      2  C   UNL     1      34.731 -18.197 -23.374  0.00  0.00    +0.167 C 
ATOM      3  C   UNL     1      34.571 -16.817 -21.397  0.00  0.00    +0.003 C 
ATOM      4  C   UNL     1      34.794 -17.051 -24.168  0.00  0.00    +0.167 C 
ATOM      5  C   UNL     1      34.636 -15.672 -22.191  0.00  0.00    +0.003 C 
ATOM      6  C   UNL     1      34.747 -15.789 -23.577  0.00  0.00    +0.040 C 
ENDROOT
BRANCH   1   8
ATOM      7 CL   UNL     1      37.283 -19.277 -20.995  0.00  0.00    -0.082 Cl
ATOM      8  C   UNL     1      34.550 -19.255 -21.144  0.00  0.00    +0.014 C 
ATOM      9  C   UNL     1      35.697 -19.871 -20.643  0.00  0.00    +0.058 C 
ATOM     10  C   UNL     1      33.290 -19.770 -20.833  0.00  0.00    +0.001 C 
ATOM     11  C   UNL     1      35.586 -21.001 -19.832  0.00  0.00    +0.011 C 
ATOM     12  C   UNL     1      33.180 -20.901 -20.022  0.00  0.00    +0.000 C 
ATOM     13  C   UNL     1      34.327 -21.515 -19.522  0.00  0.00    +0.001 C 
ENDBRANCH   1   8
BRANCH   2  14
ATOM     14  O   UNL     1      34.777 -19.425 -23.967  0.00  0.00    -0.503 OA
ATOM     15  H   UNL     1      34.199 -20.105 -23.682  0.00  0.00    +0.292 HD
ENDBRANCH   2  14
BRANCH   4  16
ATOM     16  O   UNL     1      34.903 -17.151 -25.523  0.00  0.00    -0.503 OA
ATOM     17  H   UNL     1      34.221 -17.559 -26.019  0.00  0.00    +0.292 HD
ENDBRANCH   4  16
TORSDOF 3
ENDMDL
MODEL 2
REMARK VINA RESULT:      -9.0      2.077      2.756
REMARK  Name = 178518
REMARK  3 active torsions:
REMARK  status: ('A' for Active; 'I' for Inactive)
REMARK    1  A    between atoms: C_1  and  C_8
REMARK    2  A    between atoms: C_2  and  O_14
REMARK    3  A    between atoms: C_4  and  O_16
REMARK                            x       y       z     vdW  Elec       q    Type
REMARK                         _______ _______ _______ _____ _____    ______ ____
ROOT
ATOM      1  C   UNL     1      35.063 -18.719 -22.072  0.00  0.00    +0.038 C 
ATOM      2  C   UNL     1      35.092 -17.360 -21.758  0.00  0.00    +0.167 C 
ATOM      3  C   UNL     1      34.911 -19.127 -23.397  0.00  0.00    +0.003 C 
ATOM      4  C   UNL     1      34.970 -16.409 -22.771  0.00  0.00    +0.167 C 
ATOM      5  C   UNL     1      34.787 -18.175 -24.409  0.00  0.00    +0.003 C 
ATOM      6  C   UNL     1      34.816 -16.816 -24.096  0.00  0.00    +0.040 C 
ENDROOT
BRANCH   1   8
ATOM      7 CL   UNL     1      32.462 -19.903 -20.909  0.00  0.00    -0.082 Cl
ATOM      8  C   UNL     1      35.190 -19.726 -21.036  0.00  0.00    +0.014 C 
ATOM      9  C   UNL     1      34.075 -20.323 -20.447  0.00  0.00    +0.058 C 
ATOM     10  C   UNL     1      36.474 -20.096 -20.631  0.00  0.00    +0.001 C 
ATOM     11  C   UNL     1      34.242 -21.288 -19.454  0.00  0.00    +0.011 C 
ATOM     12  C   UNL     1      36.640 -21.063 -19.638  0.00  0.00    +0.000 C 
ATOM     13  C   UNL     1      35.525 -21.657 -19.050  0.00  0.00    +0.001 C 
ENDBRANCH   1   8
BRANCH   2  14
ATOM     14  O   UNL     1      35.242 -16.946 -20.467  0.00  0.00    -0.503 OA
ATOM     15  H   UNL     1      35.589 -17.533 -19.824  0.00  0.00    +0.292 HD
ENDBRANCH   2  14
BRANCH   4  16
ATOM     16  O   UNL     1      34.997 -15.078 -22.480  0.00  0.00    -0.503 OA
ATOM     17  H   UNL     1      35.817 -14.637 -22.376  0.00  0.00    +0.292 HD
ENDBRANCH   4  16
TORSDOF 3
ENDMDL
MODEL 3
REMARK VINA RESULT:      -8.9      1.508      1.974
REMARK  Name = 178518
REMARK  3 active torsions:
REMARK  status: ('A' for Active; 'I' for Inactive)
REMARK    1  A    between atoms: C_1  and  C_8
REMARK    2  A    between atoms: C_2  and  O_14
REMARK    3  A    between atoms: C_4  and  O_16
REMARK                            x       y       z     vdW  Elec       q    Type
REMARK                         _______ _______ _______ _____ _____    ______ ____
ROOT
ATOM      1  C   UNL     1      34.660 -18.448 -22.396  0.00  0.00    +0.038 C 
ATOM      2  C   UNL     1      34.757 -17.095 -22.070  0.00  0.00    +0.167 C 
ATOM      3  C   UNL     1      34.623 -18.844 -23.733  0.00  0.00    +0.003 C 
ATOM      4  C   UNL     1      34.817 -16.137 -23.083  0.00  0.00    +0.167 C 
ATOM      5  C   UNL     1      34.681 -17.886 -24.745  0.00  0.00    +0.003 C 
ATOM      6  C   UNL     1      34.779 -16.532 -24.420  0.00  0.00    +0.040 C 
ENDROOT
BRANCH   1   8
ATOM      7 CL   UNL     1      37.322 -19.340 -21.117  0.00  0.00    -0.082 Cl
ATOM      8  C   UNL     1      34.599 -19.461 -21.360  0.00  0.00    +0.014 C 
ATOM      9  C   UNL     1      35.746 -19.931 -20.720  0.00  0.00    +0.058 C 
ATOM     10  C   UNL     1      33.347 -19.967 -21.006  0.00  0.00    +0.001 C 
ATOM     11  C   UNL     1      35.642 -20.905 -19.727  0.00  0.00    +0.011 C 
ATOM     12  C   UNL     1      33.244 -20.941 -20.013  0.00  0.00    +0.000 C 
ATOM     13  C   UNL     1      34.391 -21.410 -19.374  0.00  0.00    +0.001 C 
ENDBRANCH   1   8
BRANCH   2  14
ATOM     14  O   UNL     1      34.796 -16.694 -20.767  0.00  0.00    -0.503 OA
ATOM     15  H   UNL     1      35.594 -16.759 -20.280  0.00  0.00    +0.292 HD
ENDBRANCH   2  14
BRANCH   4  16
ATOM     16  O   UNL     1      34.912 -14.812 -22.780  0.00  0.00    -0.503 OA
ATOM     17  H   UNL     1      34.300 -14.422 -22.187  0.00  0.00    +0.292 HD
ENDBRANCH   4  16
TORSDOF 3
ENDMDL
MODEL 4
REMARK VINA RESULT:      -8.8      2.015      5.001
REMARK  Name = 178518
REMARK  3 active torsions:
REMARK  status: ('A' for Active; 'I' for Inactive)
REMARK    1  A    between atoms: C_1  and  C_8
REMARK    2  A    between atoms: C_2  and  O_14
REMARK    3  A    between atoms: C_4  and  O_16
REMARK                            x       y       z     vdW  Elec       q    Type
REMARK                         _______ _______ _______ _____ _____    ______ ____
ROOT
ATOM      1  C   UNL     1      34.519 -19.139 -21.064  0.00  0.00    +0.038 C 
ATOM      2  C   UNL     1      35.671 -19.770 -20.591  0.00  0.00    +0.167 C 
ATOM      3  C   UNL     1      33.265 -19.686 -20.799  0.00  0.00    +0.003 C 
ATOM      4  C   UNL     1      35.565 -20.948 -19.851  0.00  0.00    +0.167 C 
ATOM      5  C   UNL     1      33.160 -20.865 -20.061  0.00  0.00    +0.003 C 
ATOM      6  C   UNL     1      34.310 -21.496 -19.587  0.00  0.00    +0.040 C 
ENDROOT
BRANCH   1   8
ATOM      7 CL   UNL     1      34.899 -19.395 -24.115  0.00  0.00    -0.082 Cl
ATOM      8  C   UNL     1      34.605 -17.913 -21.833  0.00  0.00    +0.014 C 
ATOM      9  C   UNL     1      34.776 -17.922 -23.218  0.00  0.00    +0.058 C 
ATOM     10  C   UNL     1      34.509 -16.699 -21.150  0.00  0.00    +0.001 C 
ATOM     11  C   UNL     1      34.851 -16.719 -23.920  0.00  0.00    +0.011 C 
ATOM     12  C   UNL     1      34.585 -15.496 -21.854  0.00  0.00    +0.000 C 
ATOM     13  C   UNL     1      34.756 -15.506 -23.237  0.00  0.00    +0.001 C 
ENDBRANCH   1   8
BRANCH   2  14
ATOM     14  O   UNL     1      36.905 -19.246 -20.841  0.00  0.00    -0.503 OA
ATOM     15  H   UNL     1      37.258 -19.273 -21.709  0.00  0.00    +0.292 HD
ENDBRANCH   2  14
BRANCH   4  16
ATOM     16  O   UNL     1      36.680 -21.576 -19.383  0.00  0.00    -0.503 OA
ATOM     17  H   UNL     1      37.520 -21.170 -19.475  0.00  0.00    +0.292 HD
ENDBRANCH   4  16
TORSDOF 3
ENDMDL
MODEL 5
REMARK VINA RESULT:      -8.8      2.102      5.033
REMARK  Name = 178518
REMARK  3 active torsions:
REMARK  status: ('A' for Active; 'I' for Inactive)
REMARK    1  A    between atoms: C_1  and  C_8
REMARK    2  A    between atoms: C_2  and  O_14
REMARK    3  A    between atoms: C_4  and  O_16
REMARK                            x       y       z     vdW  Elec       q    Type
REMARK                         _______ _______ _______ _____ _____    ______ ____
ROOT
ATOM      1  C   UNL     1      35.017 -19.326 -20.918  0.00  0.00    +0.038 C 
ATOM      2  C   UNL     1      33.884 -20.048 -20.541  0.00  0.00    +0.167 C 
ATOM      3  C   UNL     1      36.287 -19.799 -20.588  0.00  0.00    +0.003 C 
ATOM      4  C   UNL     1      34.022 -21.243 -19.835  0.00  0.00    +0.167 C 
ATOM      5  C   UNL     1      36.424 -20.993 -19.881  0.00  0.00    +0.003 C 
ATOM      6  C   UNL     1      35.292 -21.715 -19.504  0.00  0.00    +0.040 C 
ENDROOT
BRANCH   1   8
ATOM      7 CL   UNL     1      34.945 -19.497 -23.997  0.00  0.00    -0.082 Cl
ATOM      8  C   UNL     1      34.898 -18.083 -21.654  0.00  0.00    +0.014 C 
ATOM      9  C   UNL     1      34.856 -18.053 -23.049  0.00  0.00    +0.058 C 
ATOM     10  C   UNL     1      34.822 -16.892 -20.929  0.00  0.00    +0.001 C 
ATOM     11  C   UNL     1      34.739 -16.835 -23.718  0.00  0.00    +0.011 C 
ATOM     12  C   UNL     1      34.705 -15.674 -21.600  0.00  0.00    +0.000 C 
ATOM     13  C   UNL     1      34.664 -15.646 -22.993  0.00  0.00    +0.001 C 
ENDBRANCH   1   8
BRANCH   2  14
ATOM     14  O   UNL     1      32.635 -19.598 -20.858  0.00  0.00    -0.503 OA
ATOM     15  H   UNL     1      32.519 -19.004 -21.573  0.00  0.00    +0.292 HD
ENDBRANCH   2  14
BRANCH   4  16
ATOM     16  O   UNL     1      32.924 -21.958 -19.460  0.00  0.00    -0.503 OA
ATOM     17  H   UNL     1      32.270 -22.179 -20.094  0.00  0.00    +0.292 HD
ENDBRANCH   4  16
TORSDOF 3
ENDMDL
MODEL 6
REMARK VINA RESULT:      -8.7      1.379      1.887
REMARK  Name = 178518
REMARK  3 active torsions:
REMARK  status: ('A' for Active; 'I' for Inactive)
REMARK    1  A    between atoms: C_1  and  C_8
REMARK    2  A    between atoms: C_2  and  O_14
REMARK    3  A    between atoms: C_4  and  O_16
REMARK                            x       y       z     vdW  Elec       q    Type
REMARK                         _______ _______ _______ _____ _____    ______ ____
ROOT
ATOM      1  C   UNL     1      34.987 -18.273 -21.903  0.00  0.00    +0.038 C 
ATOM      2  C   UNL     1      34.919 -18.432 -23.287  0.00  0.00    +0.167 C 
ATOM      3  C   UNL     1      34.878 -17.002 -21.340  0.00  0.00    +0.003 C 
ATOM      4  C   UNL     1      34.742 -17.319 -24.109  0.00  0.00    +0.167 C 
ATOM      5  C   UNL     1      34.702 -15.889 -22.162  0.00  0.00    +0.003 C 
ATOM      6  C   UNL     1      34.634 -16.047 -23.547  0.00  0.00    +0.040 C 
ENDROOT
BRANCH   1   8
ATOM      7 CL   UNL     1      32.455 -19.770 -20.972  0.00  0.00    -0.082 Cl
ATOM      8  C   UNL     1      35.169 -19.416 -21.030  0.00  0.00    +0.014 C 
ATOM      9  C   UNL     1      34.088 -20.160 -20.555  0.00  0.00    +0.058 C 
ATOM     10  C   UNL     1      36.470 -19.768 -20.667  0.00  0.00    +0.001 C 
ATOM     11  C   UNL     1      34.307 -21.254 -19.718  0.00  0.00    +0.011 C 
ATOM     12  C   UNL     1      36.688 -20.863 -19.829  0.00  0.00    +0.000 C 
ATOM     13  C   UNL     1      35.608 -21.605 -19.355  0.00  0.00    +0.001 C 
ENDBRANCH   1   8
BRANCH   2  14
ATOM     14  O   UNL     1      35.023 -19.670 -23.852  0.00  0.00    -0.503 OA
ATOM     15  H   UNL     1      34.615 -20.408 -23.442  0.00  0.00    +0.292 HD
ENDBRANCH   2  14
BRANCH   4  16
ATOM     16  O   UNL     1      34.674 -17.459 -25.463  0.00  0.00    -0.503 OA
ATOM     17  H   UNL     1      34.995 -18.240 -25.870  0.00  0.00    +0.292 HD
ENDBRANCH   4  16
TORSDOF 3
ENDMDL
MODEL 7
REMARK VINA RESULT:      -7.6      4.833      7.176
REMARK  Name = 178518
REMARK  3 active torsions:
REMARK  status: ('A' for Active; 'I' for Inactive)
REMARK    1  A    between atoms: C_1  and  C_8
REMARK    2  A    between atoms: C_2  and  O_14
REMARK    3  A    between atoms: C_4  and  O_16
REMARK                            x       y       z     vdW  Elec       q    Type
REMARK                         _______ _______ _______ _____ _____    ______ ____
ROOT
ATOM      1  C   UNL     1      33.417 -13.840 -24.024  0.00  0.00    +0.038 C 
ATOM      2  C   UNL     1      34.385 -14.610 -23.378  0.00  0.00    +0.167 C 
ATOM      3  C   UNL     1      32.891 -14.260 -25.245  0.00  0.00    +0.003 C 
ATOM      4  C   UNL     1      34.826 -15.801 -23.955  0.00  0.00    +0.167 C 
ATOM      5  C   UNL     1      33.333 -15.450 -25.822  0.00  0.00    +0.003 C 
ATOM      6  C   UNL     1      34.300 -16.222 -25.177  0.00  0.00    +0.040 C 
ENDROOT
BRANCH   1   8
ATOM      7 CL   UNL     1      34.520 -11.206 -25.194  0.00  0.00    -0.082 Cl
ATOM      8  C   UNL     1      32.943 -12.599 -23.443  0.00  0.00    +0.014 C 
ATOM      9  C   UNL     1      33.380 -11.355 -23.902  0.00  0.00    +0.058 C 
ATOM     10  C   UNL     1      32.021 -12.671 -22.398  0.00  0.00    +0.001 C 
ATOM     11  C   UNL     1      32.897 -10.186 -23.315  0.00  0.00    +0.011 C 
ATOM     12  C   UNL     1      31.538 -11.500 -21.812  0.00  0.00    +0.000 C 
ATOM     13  C   UNL     1      31.977 -10.258 -22.270  0.00  0.00    +0.001 C 
ENDBRANCH   1   8
BRANCH   2  14
ATOM     14  O   UNL     1      34.908 -14.212 -22.183  0.00  0.00    -0.503 OA
ATOM     15  H   UNL     1      35.009 -14.831 -21.486  0.00  0.00    +0.292 HD
ENDBRANCH   2  14
BRANCH   4  16
ATOM     16  O   UNL     1      35.770 -16.564 -23.336  0.00  0.00    -0.503 OA
ATOM     17  H   UNL     1      36.517 -16.157 -22.942  0.00  0.00    +0.292 HD
ENDBRANCH   4  16
TORSDOF 3
ENDMDL
MODEL 8
REMARK VINA RESULT:      -7.6      9.579     11.597
REMARK  Name = 178518
REMARK  3 active torsions:
REMARK  status: ('A' for Active; 'I' for Inactive)
REMARK    1  A    between atoms: C_1  and  C_8
REMARK    2  A    between atoms: C_2  and  O_14
REMARK    3  A    between atoms: C_4  and  O_16
REMARK                            x       y       z     vdW  Elec       q    Type
REMARK                         _______ _______ _______ _____ _____    ______ ____
ROOT
ATOM      1  C   UNL     1      32.215  -9.142 -21.962  0.00  0.00    +0.038 C 
ATOM      2  C   UNL     1      32.382  -8.986 -20.586  0.00  0.00    +0.167 C 
ATOM      3  C   UNL     1      31.461 -10.205 -22.458  0.00  0.00    +0.003 C 
ATOM      4  C   UNL     1      31.793  -9.893 -19.705  0.00  0.00    +0.167 C 
ATOM      5  C   UNL     1      30.874 -11.113 -21.577  0.00  0.00    +0.003 C 
ATOM      6  C   UNL     1      31.040 -10.957 -20.200  0.00  0.00    +0.040 C 
ENDROOT
BRANCH   1   8
ATOM      7 CL   UNL     1      30.587  -6.632 -22.715  0.00  0.00    -0.082 Cl
ATOM      8  C   UNL     1      32.817  -8.210 -22.896  0.00  0.00    +0.014 C 
ATOM      9  C   UNL     1      32.162  -7.045 -23.299  0.00  0.00    +0.058 C 
ATOM     10  C   UNL     1      34.088  -8.503 -23.393  0.00  0.00    +0.001 C 
ATOM     11  C   UNL     1      32.777  -6.174 -24.198  0.00  0.00    +0.011 C 
ATOM     12  C   UNL     1      34.702  -7.630 -24.293  0.00  0.00    +0.000 C 
ATOM     13  C   UNL     1      34.047  -6.467 -24.695  0.00  0.00    +0.001 C 
ENDBRANCH   1   8
BRANCH   2  14
ATOM     14  O   UNL     1      33.116  -7.949 -20.087  0.00  0.00    -0.503 OA
ATOM     15  H   UNL     1      33.741  -8.103 -19.405  0.00  0.00    +0.292 HD
ENDBRANCH   2  14
BRANCH   4  16
ATOM     16  O   UNL     1      31.947  -9.753 -18.358  0.00  0.00    -0.503 OA
ATOM     17  H   UNL     1      31.642  -8.977 -17.930  0.00  0.00    +0.292 HD
ENDBRANCH   4  16
TORSDOF 3
ENDMDL
MODEL 9
REMARK VINA RESULT:      -7.6      9.415     10.918
REMARK  Name = 178518
REMARK  3 active torsions:
REMARK  status: ('A' for Active; 'I' for Inactive)
REMARK    1  A    between atoms: C_1  and  C_8
REMARK    2  A    between atoms: C_2  and  O_14
REMARK    3  A    between atoms: C_4  and  O_16
REMARK                            x       y       z     vdW  Elec       q    Type
REMARK                         _______ _______ _______ _____ _____    ______ ____
ROOT
ATOM      1  C   UNL     1      32.779  -8.127 -22.822  0.00  0.00    +0.038 C 
ATOM      2  C   UNL     1      31.940  -7.193 -23.432  0.00  0.00    +0.167 C 
ATOM      3  C   UNL     1      34.130  -8.181 -23.164  0.00  0.00    +0.003 C 
ATOM      4  C   UNL     1      32.454  -6.313 -24.384  0.00  0.00    +0.167 C 
ATOM      5  C   UNL     1      34.643  -7.301 -24.116  0.00  0.00    +0.003 C 
ATOM      6  C   UNL     1      33.805  -6.367 -24.727  0.00  0.00    +0.040 C 
ENDROOT
BRANCH   1   8
ATOM      7 CL   UNL     1      32.735  -7.179 -19.886  0.00  0.00    -0.082 Cl
ATOM      8  C   UNL     1      32.267  -9.051 -21.828  0.00  0.00    +0.014 C 
ATOM      9  C   UNL     1      32.205  -8.717 -20.474  0.00  0.00    +0.058 C 
ATOM     10  C   UNL     1      31.828 -10.304 -22.257  0.00  0.00    +0.001 C 
ATOM     11  C   UNL     1      31.703  -9.635 -19.551  0.00  0.00    +0.011 C 
ATOM     12  C   UNL     1      31.326 -11.221 -21.333  0.00  0.00    +0.000 C 
ATOM     13  C   UNL     1      31.265 -10.887 -19.981  0.00  0.00    +0.001 C 
ENDBRANCH   1   8
BRANCH   2  14
ATOM     14  O   UNL     1      30.617  -7.129 -23.106  0.00  0.00    -0.503 OA
ATOM     15  H   UNL     1      30.354  -7.156 -22.207  0.00  0.00    +0.292 HD
ENDBRANCH   2  14
BRANCH   4  16
ATOM     16  O   UNL     1      31.647  -5.396 -24.988  0.00  0.00    -0.503 OA
ATOM     17  H   UNL     1      31.992  -4.836 -25.656  0.00  0.00    +0.292 HD
ENDBRANCH   4  16
TORSDOF 3
ENDMDL
