MODEL 1
REMARK VINA RESULT:      -9.2      0.000      0.000
REMARK  Name = 5911905
REMARK  5 active torsions:
REMARK  status: ('A' for Active; 'I' for Inactive)
REMARK    1  A    between atoms: N_3  and  C_20
REMARK    2  A    between atoms: C_4  and  N_8
REMARK    3  A    between atoms: C_7  and  C_16
REMARK    4  A    between atoms: C_16  and  O_17
REMARK    5  A    between atoms: O_17  and  C_18
REMARK                            x       y       z     vdW  Elec       q    Type
REMARK                         _______ _______ _______ _____ _____    ______ ____
ROOT
ATOM      1  S   UNL     1      35.114 -17.772 -23.205  0.00  0.00    -0.112 S 
ATOM      2  O   UNL     1      35.080 -15.964 -19.789  0.00  0.00    -0.276 OA
ATOM      3  N   UNL     1      34.393 -15.604 -22.001  0.00  0.00    -0.255 N 
ATOM      4  C   UNL     1      35.503 -17.668 -21.440  0.00  0.00    +0.076 C 
ATOM      5  C   UNL     1      34.980 -16.329 -20.959  0.00  0.00    +0.220 C 
ATOM      6  C   UNL     1      34.380 -16.207 -23.243  0.00  0.00    +0.085 C 
ATOM      7  C   UNL     1      33.873 -15.692 -24.368  0.00  0.00    +0.103 C 
ENDROOT
BRANCH   4   8
ATOM      8  N   UNL     1      34.847 -18.716 -20.659  0.00  0.00    +0.400 N 
ATOM      9  C   UNL     1      35.683 -19.925 -20.616  0.00  0.00    -0.075 C 
ATOM     10  C   UNL     1      33.516 -19.011 -21.210  0.00  0.00    -0.075 C 
ATOM     11  C   UNL     1      35.034 -21.015 -19.763  0.00  0.00    -0.023 C 
ATOM     12  C   UNL     1      32.796 -20.072 -20.376  0.00  0.00    -0.023 C 
ATOM     13  C   UNL     1      33.630 -21.343 -20.256  0.00  0.00    -0.004 C 
ATOM     14  H   UNL     1      34.725 -18.384 -19.703  0.00  0.00    -0.078 HD
ENDBRANCH   4   8
BRANCH   7  16
ATOM     15  O   UNL     1      34.368 -17.597 -25.741  0.00  0.00    -0.245 OA
ATOM     16  C   UNL     1      33.934 -16.462 -25.626  0.00  0.00    +0.343 C 
BRANCH  16  17
ATOM     17  O   UNL     1      33.420 -15.679 -26.612  0.00  0.00    -0.445 OA
BRANCH  17  18
ATOM     18  C   UNL     1      32.913 -14.409 -26.187  0.00  0.00    +0.209 C 
ATOM     19  C   UNL     1      33.275 -13.362 -27.220  0.00  0.00    +0.051 C 
ENDBRANCH  17  18
ENDBRANCH  16  17
ENDBRANCH   7  16
BRANCH   3  20
ATOM     20  C   UNL     1      33.825 -14.281 -21.787  0.00  0.00    +0.099 C 
ATOM     21  C   UNL     1      32.410 -14.365 -21.253  0.00  0.00    +0.024 C 
ENDBRANCH   3  20
TORSDOF 5
ENDMDL
MODEL 2
REMARK VINA RESULT:      -8.9      6.803      9.742
REMARK  Name = 5911905
REMARK  5 active torsions:
REMARK  status: ('A' for Active; 'I' for Inactive)
REMARK    1  A    between atoms: N_3  and  C_20
REMARK    2  A    between atoms: C_4  and  N_8
REMARK    3  A    between atoms: C_7  and  C_16
REMARK    4  A    between atoms: C_16  and  O_17
REMARK    5  A    between atoms: O_17  and  C_18
REMARK                            x       y       z     vdW  Elec       q    Type
REMARK                         _______ _______ _______ _____ _____    ______ ____
ROOT
ATOM      1  S   UNL     1      35.105 -23.046 -16.124  0.00  0.00    -0.112 S 
ATOM      2  O   UNL     1      33.544 -24.175 -12.774  0.00  0.00    -0.276 OA
ATOM      3  N   UNL     1      32.909 -23.810 -15.000  0.00  0.00    -0.255 N 
ATOM      4  C   UNL     1      35.196 -23.411 -14.353  0.00  0.00    +0.076 C 
ATOM      5  C   UNL     1      33.807 -23.844 -13.928  0.00  0.00    +0.220 C 
ATOM      6  C   UNL     1      33.419 -23.413 -16.220  0.00  0.00    +0.085 C 
ATOM      7  C   UNL     1      32.737 -23.309 -17.367  0.00  0.00    +0.103 C 
ENDROOT
BRANCH   4   8
ATOM      8  N   UNL     1      36.121 -24.504 -14.054  0.00  0.00    +0.400 N 
ATOM      9  C   UNL     1      37.448 -23.974 -13.709  0.00  0.00    -0.075 C 
ATOM     10  C   UNL     1      36.200 -25.436 -15.188  0.00  0.00    -0.075 C 
ATOM     11  C   UNL     1      38.415 -25.102 -13.345  0.00  0.00    -0.023 C 
ATOM     12  C   UNL     1      37.127 -26.611 -14.873  0.00  0.00    -0.023 C 
ATOM     13  C   UNL     1      38.515 -26.130 -14.466  0.00  0.00    -0.004 C 
ATOM     14  H   UNL     1      35.769 -25.019 -13.248  0.00  0.00    -0.078 HD
ENDBRANCH   4   8
BRANCH   7  16
ATOM     15  O   UNL     1      34.175 -23.554 -19.273  0.00  0.00    -0.245 OA
ATOM     16  C   UNL     1      33.425 -22.868 -18.597  0.00  0.00    +0.343 C 
BRANCH  16  17
ATOM     17  O   UNL     1      33.065 -21.576 -18.827  0.00  0.00    -0.445 OA
BRANCH  17  18
ATOM     18  C   UNL     1      33.776 -20.919 -19.882  0.00  0.00    +0.209 C 
ATOM     19  C   UNL     1      32.824 -20.001 -20.620  0.00  0.00    +0.051 C 
ENDBRANCH  17  18
ENDBRANCH  16  17
ENDBRANCH   7  16
BRANCH   3  20
ATOM     20  C   UNL     1      31.510 -24.175 -14.838  0.00  0.00    +0.099 C 
ATOM     21  C   UNL     1      30.666 -22.977 -14.455  0.00  0.00    +0.024 C 
ENDBRANCH   3  20
TORSDOF 5
ENDMDL
MODEL 3
REMARK VINA RESULT:      -8.0      3.446      6.847
REMARK  Name = 5911905
REMARK  5 active torsions:
REMARK  status: ('A' for Active; 'I' for Inactive)
REMARK    1  A    between atoms: N_3  and  C_20
REMARK    2  A    between atoms: C_4  and  N_8
REMARK    3  A    between atoms: C_7  and  C_16
REMARK    4  A    between atoms: C_16  and  O_17
REMARK    5  A    between atoms: O_17  and  C_18
REMARK                            x       y       z     vdW  Elec       q    Type
REMARK                         _______ _______ _______ _____ _____    ______ ____
ROOT
ATOM      1  S   UNL     1      33.056 -13.410 -24.754  0.00  0.00    -0.112 S 
ATOM      2  O   UNL     1      32.085 -12.562 -21.112  0.00  0.00    -0.276 OA
ATOM      3  N   UNL     1      32.916 -14.363 -22.358  0.00  0.00    -0.255 N 
ATOM      4  C   UNL     1      32.423 -12.289 -23.481  0.00  0.00    +0.076 C 
ATOM      5  C   UNL     1      32.445 -13.059 -22.176  0.00  0.00    +0.220 C 
ATOM      6  C   UNL     1      33.277 -14.716 -23.644  0.00  0.00    +0.085 C 
ATOM      7  C   UNL     1      33.747 -15.906 -24.036  0.00  0.00    +0.103 C 
ENDROOT
BRANCH   4   8
ATOM      8  N   UNL     1      33.259 -11.099 -23.318  0.00  0.00    +0.400 N 
ATOM      9  C   UNL     1      32.424  -9.918 -23.052  0.00  0.00    -0.075 C 
ATOM     10  C   UNL     1      34.102 -10.896 -24.505  0.00  0.00    -0.075 C 
ATOM     11  C   UNL     1      33.285  -8.674 -22.829  0.00  0.00    -0.023 C 
ATOM     12  C   UNL     1      35.017  -9.683 -24.330  0.00  0.00    -0.023 C 
ATOM     13  C   UNL     1      34.216  -8.426 -24.010  0.00  0.00    -0.004 C 
ATOM     14  H   UNL     1      33.873 -11.238 -22.516  0.00  0.00    -0.078 HD
ENDBRANCH   4   8
BRANCH   7  16
ATOM     15  O   UNL     1      33.705 -15.455 -26.393  0.00  0.00    -0.245 OA
ATOM     16  C   UNL     1      34.091 -16.132 -25.454  0.00  0.00    +0.343 C 
BRANCH  16  17
ATOM     17  O   UNL     1      34.908 -17.219 -25.509  0.00  0.00    -0.445 OA
BRANCH  17  18
ATOM     18  C   UNL     1      35.039 -17.952 -24.286  0.00  0.00    +0.209 C 
ATOM     19  C   UNL     1      34.743 -19.413 -24.552  0.00  0.00    +0.051 C 
ENDBRANCH  17  18
ENDBRANCH  16  17
ENDBRANCH   7  16
BRANCH   3  20
ATOM     20  C   UNL     1      33.021 -15.301 -21.250  0.00  0.00    +0.099 C 
ATOM     21  C   UNL     1      34.367 -15.202 -20.565  0.00  0.00    +0.024 C 
ENDBRANCH   3  20
TORSDOF 5
ENDMDL
MODEL 4
REMARK VINA RESULT:      -8.0      2.055      3.873
REMARK  Name = 5911905
REMARK  5 active torsions:
REMARK  status: ('A' for Active; 'I' for Inactive)
REMARK    1  A    between atoms: N_3  and  C_20
REMARK    2  A    between atoms: C_4  and  N_8
REMARK    3  A    between atoms: C_7  and  C_16
REMARK    4  A    between atoms: C_16  and  O_17
REMARK    5  A    between atoms: O_17  and  C_18
REMARK                            x       y       z     vdW  Elec       q    Type
REMARK                         _______ _______ _______ _____ _____    ______ ____
ROOT
ATOM      1  S   UNL     1      33.896 -17.619 -21.024  0.00  0.00    -0.112 S 
ATOM      2  O   UNL     1      34.745 -19.747 -24.135  0.00  0.00    -0.276 OA
ATOM      3  N   UNL     1      34.700 -17.499 -23.475  0.00  0.00    -0.255 N 
ATOM      4  C   UNL     1      34.040 -19.197 -21.898  0.00  0.00    +0.076 C 
ATOM      5  C   UNL     1      34.532 -18.876 -23.295  0.00  0.00    +0.220 C 
ATOM      6  C   UNL     1      34.409 -16.694 -22.392  0.00  0.00    +0.085 C 
ATOM      7  C   UNL     1      34.498 -15.360 -22.350  0.00  0.00    +0.103 C 
ENDROOT
BRANCH   4   8
ATOM      8  N   UNL     1      35.010 -20.097 -21.273  0.00  0.00    +0.400 N 
ATOM      9  C   UNL     1      34.373 -20.874 -20.200  0.00  0.00    -0.075 C 
ATOM     10  C   UNL     1      36.163 -19.338 -20.767  0.00  0.00    -0.075 C 
ATOM     11  C   UNL     1      35.362 -21.855 -19.568  0.00  0.00    -0.023 C 
ATOM     12  C   UNL     1      37.209 -20.268 -20.153  0.00  0.00    -0.023 C 
ATOM     13  C   UNL     1      36.604 -21.137 -19.055  0.00  0.00    -0.004 C 
ATOM     14  H   UNL     1      35.349 -20.751 -21.977  0.00  0.00    -0.078 HD
ENDBRANCH   4   8
BRANCH   7  16
ATOM     15  O   UNL     1      34.921 -14.388 -20.197  0.00  0.00    -0.245 OA
ATOM     16  C   UNL     1      34.151 -14.635 -21.111  0.00  0.00    +0.343 C 
BRANCH  16  17
ATOM     17  O   UNL     1      32.834 -14.302 -21.187  0.00  0.00    -0.445 OA
BRANCH  17  18
ATOM     18  C   UNL     1      32.470 -13.484 -22.303  0.00  0.00    +0.209 C 
ATOM     19  C   UNL     1      31.815 -12.217 -21.795  0.00  0.00    +0.051 C 
ENDBRANCH  17  18
ENDBRANCH  16  17
ENDBRANCH   7  16
BRANCH   3  20
ATOM     20  C   UNL     1      35.156 -16.943 -24.740  0.00  0.00    +0.099 C 
ATOM     21  C   UNL     1      33.996 -16.450 -25.580  0.00  0.00    +0.024 C 
ENDBRANCH   3  20
TORSDOF 5
ENDMDL
MODEL 5
REMARK VINA RESULT:      -7.7      6.374      9.327
REMARK  Name = 5911905
REMARK  5 active torsions:
REMARK  status: ('A' for Active; 'I' for Inactive)
REMARK    1  A    between atoms: N_3  and  C_20
REMARK    2  A    between atoms: C_4  and  N_8
REMARK    3  A    between atoms: C_7  and  C_16
REMARK    4  A    between atoms: C_16  and  O_17
REMARK    5  A    between atoms: O_17  and  C_18
REMARK                            x       y       z     vdW  Elec       q    Type
REMARK                         _______ _______ _______ _____ _____    ______ ____
ROOT
ATOM      1  S   UNL     1      36.233 -22.411 -16.159  0.00  0.00    -0.112 S 
ATOM      2  O   UNL     1      33.741 -24.305 -13.893  0.00  0.00    -0.276 OA
ATOM      3  N   UNL     1      33.870 -23.449 -16.071  0.00  0.00    -0.255 N 
ATOM      4  C   UNL     1      35.750 -23.172 -14.589  0.00  0.00    +0.076 C 
ATOM      5  C   UNL     1      34.347 -23.713 -14.783  0.00  0.00    +0.220 C 
ATOM      6  C   UNL     1      34.724 -22.773 -16.920  0.00  0.00    +0.085 C 
ATOM      7  C   UNL     1      34.467 -22.420 -18.185  0.00  0.00    +0.103 C 
ENDROOT
BRANCH   4   8
ATOM      8  N   UNL     1      36.618 -24.289 -14.218  0.00  0.00    +0.400 N 
ATOM      9  C   UNL     1      36.985 -24.204 -12.797  0.00  0.00    -0.075 C 
ATOM     10  C   UNL     1      37.813 -24.318 -15.074  0.00  0.00    -0.075 C 
ATOM     11  C   UNL     1      37.854 -25.392 -12.380  0.00  0.00    -0.023 C 
ATOM     12  C   UNL     1      38.709 -25.509 -14.731  0.00  0.00    -0.023 C 
ATOM     13  C   UNL     1      39.095 -25.506 -13.256  0.00  0.00    -0.004 C 
ATOM     14  H   UNL     1      36.109 -25.160 -14.360  0.00  0.00    -0.078 HD
ENDBRANCH   4   8
BRANCH   7  16
ATOM     15  O   UNL     1      36.693 -21.867 -18.892  0.00  0.00    -0.245 OA
ATOM     16  C   UNL     1      35.487 -21.698 -18.971  0.00  0.00    +0.343 C 
BRANCH  16  17
ATOM     17  O   UNL     1      34.834 -20.825 -19.786  0.00  0.00    -0.445 OA
BRANCH  17  18
ATOM     18  C   UNL     1      33.414 -20.992 -19.853  0.00  0.00    +0.209 C 
ATOM     19  C   UNL     1      32.827 -19.890 -20.710  0.00  0.00    +0.051 C 
ENDBRANCH  17  18
ENDBRANCH  16  17
ENDBRANCH   7  16
BRANCH   3  20
ATOM     20  C   UNL     1      32.541 -23.864 -16.494  0.00  0.00    +0.099 C 
ATOM     21  C   UNL     1      31.477 -22.911 -15.992  0.00  0.00    +0.024 C 
ENDBRANCH   3  20
TORSDOF 5
ENDMDL
MODEL 6
REMARK VINA RESULT:      -7.7      2.224      6.462
REMARK  Name = 5911905
REMARK  5 active torsions:
REMARK  status: ('A' for Active; 'I' for Inactive)
REMARK    1  A    between atoms: N_3  and  C_20
REMARK    2  A    between atoms: C_4  and  N_8
REMARK    3  A    between atoms: C_7  and  C_16
REMARK    4  A    between atoms: C_16  and  O_17
REMARK    5  A    between atoms: O_17  and  C_18
REMARK                            x       y       z     vdW  Elec       q    Type
REMARK                         _______ _______ _______ _____ _____    ______ ____
ROOT
ATOM      1  S   UNL     1      35.120 -16.751 -22.135  0.00  0.00    -0.112 S 
ATOM      2  O   UNL     1      34.179 -16.291 -25.854  0.00  0.00    -0.276 OA
ATOM      3  N   UNL     1      34.455 -18.012 -24.288  0.00  0.00    -0.255 N 
ATOM      4  C   UNL     1      34.834 -15.733 -23.604  0.00  0.00    +0.076 C 
ATOM      5  C   UNL     1      34.452 -16.683 -24.722  0.00  0.00    +0.220 C 
ATOM      6  C   UNL     1      34.786 -18.230 -22.965  0.00  0.00    +0.085 C 
ATOM      7  C   UNL     1      34.851 -19.416 -22.350  0.00  0.00    +0.103 C 
ENDROOT
BRANCH   4   8
ATOM      8  N   UNL     1      33.736 -14.783 -23.422  0.00  0.00    +0.400 N 
ATOM      9  C   UNL     1      34.112 -13.458 -23.937  0.00  0.00    -0.075 C 
ATOM     10  C   UNL     1      33.347 -14.712 -22.006  0.00  0.00    -0.075 C 
ATOM     11  C   UNL     1      32.957 -12.465 -23.799  0.00  0.00    -0.023 C 
ATOM     12  C   UNL     1      32.168 -13.759 -21.805  0.00  0.00    -0.023 C 
ATOM     13  C   UNL     1      32.476 -12.371 -22.356  0.00  0.00    -0.004 C 
ATOM     14  H   UNL     1      32.930 -15.110 -23.953  0.00  0.00    -0.078 HD
ENDBRANCH   4   8
BRANCH   7  16
ATOM     15  O   UNL     1      36.358 -19.579 -20.489  0.00  0.00    -0.245 OA
ATOM     16  C   UNL     1      35.221 -19.488 -20.922  0.00  0.00    +0.343 C 
BRANCH  16  17
ATOM     17  O   UNL     1      34.070 -19.431 -20.198  0.00  0.00    -0.445 OA
BRANCH  17  18
ATOM     18  C   UNL     1      33.180 -20.539 -20.371  0.00  0.00    +0.209 C 
ATOM     19  C   UNL     1      33.582 -21.648 -19.422  0.00  0.00    +0.051 C 
ENDBRANCH  17  18
ENDBRANCH  16  17
ENDBRANCH   7  16
BRANCH   3  20
ATOM     20  C   UNL     1      34.129 -19.111 -25.185  0.00  0.00    +0.099 C 
ATOM     21  C   UNL     1      35.155 -20.221 -25.097  0.00  0.00    +0.024 C 
ENDBRANCH   3  20
TORSDOF 5
ENDMDL
MODEL 7
REMARK VINA RESULT:      -7.7      7.346     11.534
REMARK  Name = 5911905
REMARK  5 active torsions:
REMARK  status: ('A' for Active; 'I' for Inactive)
REMARK    1  A    between atoms: N_3  and  C_20
REMARK    2  A    between atoms: C_4  and  N_8
REMARK    3  A    between atoms: C_7  and  C_16
REMARK    4  A    between atoms: C_16  and  O_17
REMARK    5  A    between atoms: O_17  and  C_18
REMARK                            x       y       z     vdW  Elec       q    Type
REMARK                         _______ _______ _______ _____ _____    ______ ____
ROOT
ATOM      1  S   UNL     1      35.523 -23.930 -15.309  0.00  0.00    -0.112 S 
ATOM      2  O   UNL     1      31.989 -23.170 -16.677  0.00  0.00    -0.276 OA
ATOM      3  N   UNL     1      33.078 -23.459 -14.622  0.00  0.00    -0.255 N 
ATOM      4  C   UNL     1      34.347 -23.667 -16.660  0.00  0.00    +0.076 C 
ATOM      5  C   UNL     1      33.000 -23.403 -16.017  0.00  0.00    +0.220 C 
ATOM      6  C   UNL     1      34.321 -23.728 -14.083  0.00  0.00    +0.085 C 
ATOM      7  C   UNL     1      34.614 -23.828 -12.782  0.00  0.00    +0.103 C 
ENDROOT
BRANCH   4   8
ATOM      8  N   UNL     1      34.690 -22.508 -17.483  0.00  0.00    +0.400 N 
ATOM      9  C   UNL     1      34.083 -22.627 -18.817  0.00  0.00    -0.075 C 
ATOM     10  C   UNL     1      36.150 -22.358 -17.576  0.00  0.00    -0.075 C 
ATOM     11  C   UNL     1      34.392 -21.399 -19.675  0.00  0.00    -0.023 C 
ATOM     12  C   UNL     1      36.526 -21.122 -18.394  0.00  0.00    -0.023 C 
ATOM     13  C   UNL     1      35.893 -21.160 -19.781  0.00  0.00    -0.004 C 
ATOM     14  H   UNL     1      34.316 -21.670 -17.041  0.00  0.00    -0.078 HD
ENDBRANCH   4   8
BRANCH   7  16
ATOM     15  O   UNL     1      36.868 -23.289 -12.156  0.00  0.00    -0.245 OA
ATOM     16  C   UNL     1      35.998 -24.122 -12.358  0.00  0.00    +0.343 C 
BRANCH  16  17
ATOM     17  O   UNL     1      36.112 -25.472 -12.236  0.00  0.00    -0.445 OA
BRANCH  17  18
ATOM     18  C   UNL     1      37.392 -26.014 -12.575  0.00  0.00    +0.209 C 
ATOM     19  C   UNL     1      37.272 -26.790 -13.870  0.00  0.00    +0.051 C 
ENDBRANCH  17  18
ENDBRANCH  16  17
ENDBRANCH   7  16
BRANCH   3  20
ATOM     20  C   UNL     1      31.910 -23.247 -13.780  0.00  0.00    +0.099 C 
ATOM     21  C   UNL     1      31.091 -24.513 -13.640  0.00  0.00    +0.024 C 
ENDBRANCH   3  20
TORSDOF 5
ENDMDL
MODEL 8
REMARK VINA RESULT:      -7.6      6.184      8.196
REMARK  Name = 5911905
REMARK  5 active torsions:
REMARK  status: ('A' for Active; 'I' for Inactive)
REMARK    1  A    between atoms: N_3  and  C_20
REMARK    2  A    between atoms: C_4  and  N_8
REMARK    3  A    between atoms: C_7  and  C_16
REMARK    4  A    between atoms: C_16  and  O_17
REMARK    5  A    between atoms: O_17  and  C_18
REMARK                            x       y       z     vdW  Elec       q    Type
REMARK                         _______ _______ _______ _____ _____    ______ ____
ROOT
ATOM      1  S   UNL     1      31.812  -9.967 -21.938  0.00  0.00    -0.112 S 
ATOM      2  O   UNL     1      34.184 -11.080 -24.778  0.00  0.00    -0.276 OA
ATOM      3  N   UNL     1      33.822  -9.233 -23.383  0.00  0.00    -0.255 N 
ATOM      4  C   UNL     1      32.384 -11.155 -23.179  0.00  0.00    +0.076 C 
ATOM      5  C   UNL     1      33.562 -10.512 -23.883  0.00  0.00    +0.220 C 
ATOM      6  C   UNL     1      33.001  -8.788 -22.366  0.00  0.00    +0.085 C 
ATOM      7  C   UNL     1      33.075  -7.602 -21.750  0.00  0.00    +0.103 C 
ENDROOT
BRANCH   4   8
ATOM      8  N   UNL     1      32.843 -12.409 -22.583  0.00  0.00    +0.400 N 
ATOM      9  C   UNL     1      32.647 -13.525 -23.520  0.00  0.00    -0.075 C 
ATOM     10  C   UNL     1      32.150 -12.658 -21.310  0.00  0.00    -0.075 C 
ATOM     11  C   UNL     1      33.167 -14.838 -22.931  0.00  0.00    -0.023 C 
ATOM     12  C   UNL     1      32.653 -13.942 -20.649  0.00  0.00    -0.023 C 
ATOM     13  C   UNL     1      32.517 -15.138 -21.586  0.00  0.00    -0.004 C 
ATOM     14  H   UNL     1      33.840 -12.333 -22.388  0.00  0.00    -0.078 HD
ENDBRANCH   4   8
BRANCH   7  16
ATOM     15  O   UNL     1      32.136  -7.735 -19.545  0.00  0.00    -0.245 OA
ATOM     16  C   UNL     1      32.121  -7.269 -20.673  0.00  0.00    +0.343 C 
BRANCH  16  17
ATOM     17  O   UNL     1      31.241  -6.359 -21.172  0.00  0.00    -0.445 OA
BRANCH  17  18
ATOM     18  C   UNL     1      31.802  -5.380 -22.052  0.00  0.00    +0.209 C 
ATOM     19  C   UNL     1      30.903  -5.229 -23.261  0.00  0.00    +0.051 C 
ENDBRANCH  17  18
ENDBRANCH  16  17
ENDBRANCH   7  16
BRANCH   3  20
ATOM     20  C   UNL     1      34.903  -8.411 -23.908  0.00  0.00    +0.099 C 
ATOM     21  C   UNL     1      34.374  -7.146 -24.551  0.00  0.00    +0.024 C 
ENDBRANCH   3  20
TORSDOF 5
ENDMDL
MODEL 9
REMARK VINA RESULT:      -7.6      5.310      7.609
REMARK  Name = 5911905
REMARK  5 active torsions:
REMARK  status: ('A' for Active; 'I' for Inactive)
REMARK    1  A    between atoms: N_3  and  C_20
REMARK    2  A    between atoms: C_4  and  N_8
REMARK    3  A    between atoms: C_7  and  C_16
REMARK    4  A    between atoms: C_16  and  O_17
REMARK    5  A    between atoms: O_17  and  C_18
REMARK                            x       y       z     vdW  Elec       q    Type
REMARK                         _______ _______ _______ _____ _____    ______ ____
ROOT
ATOM      1  S   UNL     1      33.589 -10.506 -23.771  0.00  0.00    -0.112 S 
ATOM      2  O   UNL     1      32.029 -13.602 -22.062  0.00  0.00    -0.276 OA
ATOM      3  N   UNL     1      31.843 -11.266 -22.026  0.00  0.00    -0.255 N 
ATOM      4  C   UNL     1      33.451 -12.291 -23.499  0.00  0.00    +0.076 C 
ATOM      5  C   UNL     1      32.370 -12.488 -22.455  0.00  0.00    +0.220 C 
ATOM      6  C   UNL     1      32.368 -10.129 -22.607  0.00  0.00    +0.085 C 
ATOM      7  C   UNL     1      32.011  -8.867 -22.341  0.00  0.00    +0.103 C 
ENDROOT
BRANCH   4   8
ATOM      8  N   UNL     1      33.049 -13.012 -24.707  0.00  0.00    +0.400 N 
ATOM      9  C   UNL     1      33.570 -14.386 -24.683  0.00  0.00    -0.075 C 
ATOM     10  C   UNL     1      33.501 -12.294 -25.908  0.00  0.00    -0.075 C 
ATOM     11  C   UNL     1      33.118 -15.170 -25.916  0.00  0.00    -0.023 C 
ATOM     12  C   UNL     1      33.048 -13.010 -27.181  0.00  0.00    -0.023 C 
ATOM     13  C   UNL     1      33.521 -14.459 -27.202  0.00  0.00    -0.004 C 
ATOM     14  H   UNL     1      32.032 -13.061 -24.735  0.00  0.00    -0.078 HD
ENDBRANCH   4   8
BRANCH   7  16
ATOM     15  O   UNL     1      33.728  -7.236 -22.731  0.00  0.00    -0.245 OA
ATOM     16  C   UNL     1      32.667  -7.749 -23.049  0.00  0.00    +0.343 C 
BRANCH  16  17
ATOM     17  O   UNL     1      31.877  -7.412 -24.104  0.00  0.00    -0.445 OA
BRANCH  17  18
ATOM     18  C   UNL     1      31.219  -6.146 -23.999  0.00  0.00    +0.209 C 
ATOM     19  C   UNL     1      31.897  -5.158 -24.926  0.00  0.00    +0.051 C 
ENDBRANCH  17  18
ENDBRANCH  16  17
ENDBRANCH   7  16
BRANCH   3  20
ATOM     20  C   UNL     1      30.796 -11.196 -21.017  0.00  0.00    +0.099 C 
ATOM     21  C   UNL     1      31.376 -11.150 -19.619  0.00  0.00    +0.024 C 
ENDBRANCH   3  20
TORSDOF 5
ENDMDL
