MODEL 1
REMARK VINA RESULT:      -8.5      0.000      0.000
REMARK  Name = 34521
REMARK  3 active torsions:
REMARK  status: ('A' for Active; 'I' for Inactive)
REMARK    1  A    between atoms: N_3  and  C_7
REMARK    2  A    between atoms: C_4  and  C_14
REMARK    3  A    between atoms: C_14  and  O_15
REMARK                            x       y       z     vdW  Elec       q    Type
REMARK                         _______ _______ _______ _____ _____    ______ ____
ROOT
ATOM      1  O   UNL     1      35.354 -15.843 -22.892  0.00  0.00    -0.434 OA
ATOM      2  O   UNL     1      34.943 -16.087 -20.675  0.00  0.00    -0.226 OA
ATOM      3  N   UNL     1      34.904 -17.929 -22.160  0.00  0.00    -0.221 N 
ATOM      4  C   UNL     1      35.200 -16.652 -24.067  0.00  0.00    +0.220 C 
ATOM      5  C   UNL     1      35.243 -18.075 -23.551  0.00  0.00    +0.148 C 
ATOM      6  C   UNL     1      35.040 -16.596 -21.783  0.00  0.00    +0.409 C 
ENDROOT
BRANCH   3   7
ATOM      7  C   UNL     1      34.590 -19.038 -21.323  0.00  0.00    +0.057 C 
ATOM      8  C   UNL     1      35.611 -19.769 -20.707  0.00  0.00    +0.011 C 
ATOM      9  C   UNL     1      33.257 -19.403 -21.110  0.00  0.00    +0.015 C 
ATOM     10  C   UNL     1      35.303 -20.854 -19.887  0.00  0.00    -0.021 C 
ATOM     11  C   UNL     1      32.949 -20.488 -20.290  0.00  0.00    +0.001 C 
ATOM     12  C   UNL     1      33.971 -21.214 -19.678  0.00  0.00    -0.004 C 
ATOM     13  C   UNL     1      36.396 -21.629 -19.233  0.00  0.00    +0.031 C 
ENDBRANCH   3   7
BRANCH   4  14
ATOM     14  C   UNL     1      33.881 -16.298 -24.740  0.00  0.00    +0.183 C 
BRANCH  14  15
ATOM     15  O   UNL     1      34.131 -16.007 -26.103  0.00  0.00    -0.378 OA
ATOM     16  H   UNL     1      34.826 -16.594 -26.437  0.00  0.00    +0.211 HD
ENDBRANCH  14  15
ENDBRANCH   4  14
TORSDOF 3
ENDMDL
MODEL 2
REMARK VINA RESULT:      -7.8      1.253      2.094
REMARK  Name = 34521
REMARK  3 active torsions:
REMARK  status: ('A' for Active; 'I' for Inactive)
REMARK    1  A    between atoms: N_3  and  C_7
REMARK    2  A    between atoms: C_4  and  C_14
REMARK    3  A    between atoms: C_14  and  O_15
REMARK                            x       y       z     vdW  Elec       q    Type
REMARK                         _______ _______ _______ _____ _____    ______ ____
ROOT
ATOM      1  O   UNL     1      34.800 -14.548 -22.236  0.00  0.00    -0.434 OA
ATOM      2  O   UNL     1      34.792 -15.345 -20.113  0.00  0.00    -0.226 OA
ATOM      3  N   UNL     1      34.996 -16.782 -21.982  0.00  0.00    -0.221 N 
ATOM      4  C   UNL     1      34.683 -15.110 -23.551  0.00  0.00    +0.220 C 
ATOM      5  C   UNL     1      35.153 -16.540 -23.391  0.00  0.00    +0.148 C 
ATOM      6  C   UNL     1      34.849 -15.569 -21.314  0.00  0.00    +0.409 C 
ENDROOT
BRANCH   3   7
ATOM      7  C   UNL     1      35.093 -18.081 -21.406  0.00  0.00    +0.057 C 
ATOM      8  C   UNL     1      33.935 -18.788 -21.064  0.00  0.00    +0.011 C 
ATOM      9  C   UNL     1      36.345 -18.659 -21.180  0.00  0.00    +0.015 C 
ATOM     10  C   UNL     1      34.031 -20.061 -20.501  0.00  0.00    -0.021 C 
ATOM     11  C   UNL     1      36.440 -19.931 -20.617  0.00  0.00    +0.001 C 
ATOM     12  C   UNL     1      35.283 -20.632 -20.276  0.00  0.00    -0.004 C 
ATOM     13  C   UNL     1      32.793 -20.810 -20.137  0.00  0.00    +0.031 C 
ENDBRANCH   3   7
BRANCH   4  14
ATOM     14  C   UNL     1      33.233 -15.002 -24.004  0.00  0.00    +0.183 C 
BRANCH  14  15
ATOM     15  O   UNL     1      33.193 -14.302 -25.235  0.00  0.00    -0.378 OA
ATOM     16  H   UNL     1      32.312 -13.918 -25.361  0.00  0.00    +0.211 HD
ENDBRANCH  14  15
ENDBRANCH   4  14
TORSDOF 3
ENDMDL
MODEL 3
REMARK VINA RESULT:      -7.7      2.835      4.446
REMARK  Name = 34521
REMARK  3 active torsions:
REMARK  status: ('A' for Active; 'I' for Inactive)
REMARK    1  A    between atoms: N_3  and  C_7
REMARK    2  A    between atoms: C_4  and  C_14
REMARK    3  A    between atoms: C_14  and  O_15
REMARK                            x       y       z     vdW  Elec       q    Type
REMARK                         _______ _______ _______ _____ _____    ______ ____
ROOT
ATOM      1  O   UNL     1      33.348 -15.379 -26.760  0.00  0.00    -0.434 OA
ATOM      2  O   UNL     1      34.672 -16.939 -25.783  0.00  0.00    -0.226 OA
ATOM      3  N   UNL     1      33.604 -15.245 -24.522  0.00  0.00    -0.221 N 
ATOM      4  C   UNL     1      32.754 -14.134 -26.365  0.00  0.00    +0.220 C 
ATOM      5  C   UNL     1      32.637 -14.235 -24.858  0.00  0.00    +0.148 C 
ATOM      6  C   UNL     1      33.962 -15.950 -25.668  0.00  0.00    +0.409 C 
ENDROOT
BRANCH   3   7
ATOM      7  C   UNL     1      34.013 -15.505 -23.182  0.00  0.00    +0.057 C 
ATOM      8  C   UNL     1      34.617 -16.724 -22.854  0.00  0.00    +0.011 C 
ATOM      9  C   UNL     1      33.815 -14.544 -22.187  0.00  0.00    +0.015 C 
ATOM     10  C   UNL     1      35.018 -16.978 -21.542  0.00  0.00    -0.021 C 
ATOM     11  C   UNL     1      34.216 -14.799 -20.875  0.00  0.00    +0.001 C 
ATOM     12  C   UNL     1      34.816 -16.016 -20.552  0.00  0.00    -0.004 C 
ATOM     13  C   UNL     1      35.660 -18.279 -21.198  0.00  0.00    +0.031 C 
ENDBRANCH   3   7
BRANCH   4  14
ATOM     14  C   UNL     1      33.653 -12.993 -26.822  0.00  0.00    +0.183 C 
BRANCH  14  15
ATOM     15  O   UNL     1      34.291 -13.374 -28.028  0.00  0.00    -0.378 OA
ATOM     16  H   UNL     1      34.746 -14.220 -27.901  0.00  0.00    +0.211 HD
ENDBRANCH  14  15
ENDBRANCH   4  14
TORSDOF 3
ENDMDL
MODEL 4
REMARK VINA RESULT:      -7.4      3.038      5.827
REMARK  Name = 34521
REMARK  3 active torsions:
REMARK  status: ('A' for Active; 'I' for Inactive)
REMARK    1  A    between atoms: N_3  and  C_7
REMARK    2  A    between atoms: C_4  and  C_14
REMARK    3  A    between atoms: C_14  and  O_15
REMARK                            x       y       z     vdW  Elec       q    Type
REMARK                         _______ _______ _______ _____ _____    ______ ____
ROOT
ATOM      1  O   UNL     1      34.001 -21.862 -19.404  0.00  0.00    -0.434 OA
ATOM      2  O   UNL     1      32.500 -20.262 -19.979  0.00  0.00    -0.226 OA
ATOM      3  N   UNL     1      34.738 -20.203 -20.744  0.00  0.00    -0.221 N 
ATOM      4  C   UNL     1      35.424 -22.022 -19.488  0.00  0.00    +0.220 C 
ATOM      5  C   UNL     1      35.834 -21.129 -20.640  0.00  0.00    +0.148 C 
ATOM      6  C   UNL     1      33.640 -20.699 -20.047  0.00  0.00    +0.409 C 
ENDROOT
BRANCH   3   7
ATOM      7  C   UNL     1      34.796 -19.025 -21.544  0.00  0.00    +0.057 C 
ATOM      8  C   UNL     1      34.633 -17.766 -20.957  0.00  0.00    +0.011 C 
ATOM      9  C   UNL     1      35.016 -19.120 -22.921  0.00  0.00    +0.015 C 
ATOM     10  C   UNL     1      34.690 -16.614 -21.740  0.00  0.00    -0.021 C 
ATOM     11  C   UNL     1      35.073 -17.968 -23.704  0.00  0.00    +0.001 C 
ATOM     12  C   UNL     1      34.910 -16.714 -23.114  0.00  0.00    -0.004 C 
ATOM     13  C   UNL     1      34.515 -15.274 -21.109  0.00  0.00    +0.031 C 
ENDBRANCH   3   7
BRANCH   4  14
ATOM     14  C   UNL     1      36.045 -21.610 -18.160  0.00  0.00    +0.183 C 
BRANCH  14  15
ATOM     15  O   UNL     1      35.794 -22.628 -17.207  0.00  0.00    -0.378 OA
ATOM     16  H   UNL     1      36.558 -22.713 -16.616  0.00  0.00    +0.211 HD
ENDBRANCH  14  15
ENDBRANCH   4  14
TORSDOF 3
ENDMDL
MODEL 5
REMARK VINA RESULT:      -7.3      8.699     10.379
REMARK  Name = 34521
REMARK  3 active torsions:
REMARK  status: ('A' for Active; 'I' for Inactive)
REMARK    1  A    between atoms: N_3  and  C_7
REMARK    2  A    between atoms: C_4  and  C_14
REMARK    3  A    between atoms: C_14  and  O_15
REMARK                            x       y       z     vdW  Elec       q    Type
REMARK                         _______ _______ _______ _____ _____    ______ ____
ROOT
ATOM      1  O   UNL     1      37.713 -25.355 -14.582  0.00  0.00    -0.434 OA
ATOM      2  O   UNL     1      36.003 -26.492 -15.544  0.00  0.00    -0.226 OA
ATOM      3  N   UNL     1      35.794 -24.218 -14.923  0.00  0.00    -0.221 N 
ATOM      4  C   UNL     1      37.867 -24.101 -13.901  0.00  0.00    +0.220 C 
ATOM      5  C   UNL     1      36.732 -23.247 -14.426  0.00  0.00    +0.148 C 
ATOM      6  C   UNL     1      36.426 -25.451 -15.062  0.00  0.00    +0.409 C 
ENDROOT
BRANCH   3   7
ATOM      7  C   UNL     1      34.461 -23.882 -15.298  0.00  0.00    +0.057 C 
ATOM      8  C   UNL     1      33.433 -23.911 -14.350  0.00  0.00    +0.011 C 
ATOM      9  C   UNL     1      34.172 -23.520 -16.617  0.00  0.00    +0.015 C 
ATOM     10  C   UNL     1      32.129 -23.581 -14.718  0.00  0.00    -0.021 C 
ATOM     11  C   UNL     1      32.868 -23.190 -16.985  0.00  0.00    +0.001 C 
ATOM     12  C   UNL     1      31.846 -23.221 -16.036  0.00  0.00    -0.004 C 
ATOM     13  C   UNL     1      31.037 -23.615 -13.703  0.00  0.00    +0.031 C 
ENDBRANCH   3   7
BRANCH   4  14
ATOM     14  C   UNL     1      37.789 -24.344 -12.399  0.00  0.00    +0.183 C 
BRANCH  14  15
ATOM     15  O   UNL     1      38.487 -23.305 -11.735  0.00  0.00    -0.378 OA
ATOM     16  H   UNL     1      38.063 -22.455 -11.929  0.00  0.00    +0.211 HD
ENDBRANCH  14  15
ENDBRANCH   4  14
TORSDOF 3
ENDMDL
MODEL 6
REMARK VINA RESULT:      -7.3      4.116      5.796
REMARK  Name = 34521
REMARK  3 active torsions:
REMARK  status: ('A' for Active; 'I' for Inactive)
REMARK    1  A    between atoms: N_3  and  C_7
REMARK    2  A    between atoms: C_4  and  C_14
REMARK    3  A    between atoms: C_14  and  O_15
REMARK                            x       y       z     vdW  Elec       q    Type
REMARK                         _______ _______ _______ _____ _____    ______ ____
ROOT
ATOM      1  O   UNL     1      34.200 -16.135 -26.013  0.00  0.00    -0.434 OA
ATOM      2  O   UNL     1      32.585 -14.563 -25.760  0.00  0.00    -0.226 OA
ATOM      3  N   UNL     1      33.794 -15.416 -23.913  0.00  0.00    -0.221 N 
ATOM      4  C   UNL     1      34.942 -17.003 -25.144  0.00  0.00    +0.220 C 
ATOM      5  C   UNL     1      34.925 -16.298 -23.804  0.00  0.00    +0.148 C 
ATOM      6  C   UNL     1      33.424 -15.291 -25.249  0.00  0.00    +0.409 C 
ENDROOT
BRANCH   3   7
ATOM      7  C   UNL     1      33.247 -14.721 -22.795  0.00  0.00    +0.057 C 
ATOM      8  C   UNL     1      32.652 -13.467 -22.968  0.00  0.00    +0.011 C 
ATOM      9  C   UNL     1      33.302 -15.288 -21.519  0.00  0.00    +0.015 C 
ATOM     10  C   UNL     1      32.116 -12.788 -21.874  0.00  0.00    -0.021 C 
ATOM     11  C   UNL     1      32.766 -14.609 -20.425  0.00  0.00    +0.001 C 
ATOM     12  C   UNL     1      32.174 -13.358 -20.602  0.00  0.00    -0.004 C 
ATOM     13  C   UNL     1      31.483 -11.451 -22.063  0.00  0.00    +0.031 C 
ENDBRANCH   3   7
BRANCH   4  14
ATOM     14  C   UNL     1      34.262 -18.366 -25.114  0.00  0.00    +0.183 C 
BRANCH  14  15
ATOM     15  O   UNL     1      34.624 -19.026 -23.914  0.00  0.00    -0.378 OA
ATOM     16  H   UNL     1      34.654 -19.983 -24.068  0.00  0.00    +0.211 HD
ENDBRANCH  14  15
ENDBRANCH   4  14
TORSDOF 3
ENDMDL
MODEL 7
REMARK VINA RESULT:      -7.3      7.773     10.395
REMARK  Name = 34521
REMARK  3 active torsions:
REMARK  status: ('A' for Active; 'I' for Inactive)
REMARK    1  A    between atoms: N_3  and  C_7
REMARK    2  A    between atoms: C_4  and  C_14
REMARK    3  A    between atoms: C_14  and  O_15
REMARK                            x       y       z     vdW  Elec       q    Type
REMARK                         _______ _______ _______ _____ _____    ______ ____
ROOT
ATOM      1  O   UNL     1      37.394 -25.583 -14.192  0.00  0.00    -0.434 OA
ATOM      2  O   UNL     1      36.045 -26.460 -15.791  0.00  0.00    -0.226 OA
ATOM      3  N   UNL     1      35.622 -24.340 -14.828  0.00  0.00    -0.221 N 
ATOM      4  C   UNL     1      37.324 -24.488 -13.268  0.00  0.00    +0.220 C 
ATOM      5  C   UNL     1      36.363 -23.512 -13.914  0.00  0.00    +0.148 C 
ATOM      6  C   UNL     1      36.295 -25.543 -15.020  0.00  0.00    +0.409 C 
ENDROOT
BRANCH   3   7
ATOM      7  C   UNL     1      34.439 -23.894 -15.487  0.00  0.00    +0.057 C 
ATOM      8  C   UNL     1      34.513 -23.344 -16.771  0.00  0.00    +0.011 C 
ATOM      9  C   UNL     1      33.198 -24.004 -14.855  0.00  0.00    +0.015 C 
ATOM     10  C   UNL     1      33.355 -22.908 -17.415  0.00  0.00    -0.021 C 
ATOM     11  C   UNL     1      32.040 -23.569 -15.499  0.00  0.00    +0.001 C 
ATOM     12  C   UNL     1      32.119 -23.020 -16.779  0.00  0.00    -0.004 C 
ATOM     13  C   UNL     1      33.440 -22.322 -18.784  0.00  0.00    +0.031 C 
ENDBRANCH   3   7
BRANCH   4  14
ATOM     14  C   UNL     1      36.836 -25.009 -11.923  0.00  0.00    +0.183 C 
BRANCH  14  15
ATOM     15  O   UNL     1      36.863 -26.425 -11.949  0.00  0.00    -0.378 OA
ATOM     16  H   UNL     1      36.768 -26.767 -11.046  0.00  0.00    +0.211 HD
ENDBRANCH  14  15
ENDBRANCH   4  14
TORSDOF 3
ENDMDL
MODEL 8
REMARK VINA RESULT:      -7.2      8.563     10.728
REMARK  Name = 34521
REMARK  3 active torsions:
REMARK  status: ('A' for Active; 'I' for Inactive)
REMARK    1  A    between atoms: N_3  and  C_7
REMARK    2  A    between atoms: C_4  and  C_14
REMARK    3  A    between atoms: C_14  and  O_15
REMARK                            x       y       z     vdW  Elec       q    Type
REMARK                         _______ _______ _______ _____ _____    ______ ____
ROOT
ATOM      1  O   UNL     1      38.974 -24.540 -12.907  0.00  0.00    -0.434 OA
ATOM      2  O   UNL     1      37.618 -22.772 -12.488  0.00  0.00    -0.226 OA
ATOM      3  N   UNL     1      36.921 -24.583 -13.843  0.00  0.00    -0.221 N 
ATOM      4  C   UNL     1      38.974 -25.649 -13.817  0.00  0.00    +0.220 C 
ATOM      5  C   UNL     1      37.513 -25.855 -14.160  0.00  0.00    +0.148 C 
ATOM      6  C   UNL     1      37.792 -23.847 -13.044  0.00  0.00    +0.409 C 
ENDROOT
BRANCH   3   7
ATOM      7  C   UNL     1      35.595 -24.232 -14.229  0.00  0.00    +0.057 C 
ATOM      8  C   UNL     1      35.324 -23.843 -15.545  0.00  0.00    +0.011 C 
ATOM      9  C   UNL     1      34.556 -24.274 -13.295  0.00  0.00    +0.015 C 
ATOM     10  C   UNL     1      34.026 -23.500 -15.922  0.00  0.00    -0.021 C 
ATOM     11  C   UNL     1      33.258 -23.931 -13.673  0.00  0.00    +0.001 C 
ATOM     12  C   UNL     1      32.992 -23.543 -14.986  0.00  0.00    -0.004 C 
ATOM     13  C   UNL     1      33.743 -23.085 -17.327  0.00  0.00    +0.031 C 
ENDBRANCH   3   7
BRANCH   4  14
ATOM     14  C   UNL     1      39.829 -25.293 -15.027  0.00  0.00    +0.183 C 
BRANCH  14  15
ATOM     15  O   UNL     1      40.900 -26.216 -15.113  0.00  0.00    -0.378 OA
ATOM     16  H   UNL     1      41.037 -26.467 -16.039  0.00  0.00    +0.211 HD
ENDBRANCH  14  15
ENDBRANCH   4  14
TORSDOF 3
ENDMDL
MODEL 9
REMARK VINA RESULT:      -7.2      2.761      6.023
REMARK  Name = 34521
REMARK  3 active torsions:
REMARK  status: ('A' for Active; 'I' for Inactive)
REMARK    1  A    between atoms: N_3  and  C_7
REMARK    2  A    between atoms: C_4  and  C_14
REMARK    3  A    between atoms: C_14  and  O_15
REMARK                            x       y       z     vdW  Elec       q    Type
REMARK                         _______ _______ _______ _____ _____    ______ ____
ROOT
ATOM      1  O   UNL     1      35.263 -18.187 -24.256  0.00  0.00    -0.434 OA
ATOM      2  O   UNL     1      34.051 -16.798 -25.577  0.00  0.00    -0.226 OA
ATOM      3  N   UNL     1      34.474 -16.300 -23.303  0.00  0.00    -0.221 N 
ATOM      4  C   UNL     1      35.515 -18.316 -22.849  0.00  0.00    +0.220 C 
ATOM      5  C   UNL     1      35.295 -16.923 -22.299  0.00  0.00    +0.148 C 
ATOM      6  C   UNL     1      34.525 -17.045 -24.477  0.00  0.00    +0.409 C 
ENDROOT
BRANCH   3   7
ATOM      7  C   UNL     1      33.818 -15.051 -23.097  0.00  0.00    +0.057 C 
ATOM      8  C   UNL     1      34.117 -13.956 -23.914  0.00  0.00    +0.011 C 
ATOM      9  C   UNL     1      32.870 -14.914 -22.079  0.00  0.00    +0.015 C 
ATOM     10  C   UNL     1      33.475 -12.734 -23.713  0.00  0.00    -0.021 C 
ATOM     11  C   UNL     1      32.228 -13.692 -21.879  0.00  0.00    +0.001 C 
ATOM     12  C   UNL     1      32.531 -12.602 -22.695  0.00  0.00    -0.004 C 
ATOM     13  C   UNL     1      33.799 -11.569 -24.586  0.00  0.00    +0.031 C 
ENDBRANCH   3   7
BRANCH   4  14
ATOM     14  C   UNL     1      34.557 -19.348 -22.271  0.00  0.00    +0.183 C 
BRANCH  14  15
ATOM     15  O   UNL     1      34.098 -18.886 -21.012  0.00  0.00    -0.378 OA
ATOM     16  H   UNL     1      33.355 -19.435 -20.718  0.00  0.00    +0.211 HD
ENDBRANCH  14  15
ENDBRANCH   4  14
TORSDOF 3
ENDMDL
