MODEL 1
REMARK VINA RESULT:     -11.3      0.000      0.000
REMARK  Name = 10401956
REMARK  3 active torsions:
REMARK  status: ('A' for Active; 'I' for Inactive)
REMARK    1  A    between atoms: N_1  and  C_13
REMARK    2  A    between atoms: C_8  and  N_20
REMARK    3  A    between atoms: C_21  and  C_23
REMARK                            x       y       z     vdW  Elec       q    Type
REMARK                         _______ _______ _______ _____ _____    ______ ____
ROOT
ATOM      1  N   UNL     1      32.872 -22.284 -18.395  0.00  0.00    -0.301 N 
ATOM      2  N   UNL     1      33.651 -24.293 -14.861  0.00  0.00    -0.248 NA
ATOM      3  N   UNL     1      34.376 -23.420 -16.988  0.00  0.00    -0.233 NA
ATOM      4  C   UNL     1      32.085 -23.140 -16.267  0.00  0.00    +0.117 C 
ATOM      5  C   UNL     1      32.409 -23.830 -15.086  0.00  0.00    +0.067 C 
ATOM      6  C   UNL     1      33.122 -22.969 -17.180  0.00  0.00    +0.115 C 
ATOM      7  C   UNL     1      30.784 -22.660 -16.490  0.00  0.00    +0.001 C 
ATOM      8  C   UNL     1      29.793 -22.865 -15.536  0.00  0.00    +0.047 C 
ATOM      9  C   UNL     1      31.398 -24.020 -14.147  0.00  0.00    +0.016 C 
ATOM     10  C   UNL     1      30.100 -23.545 -14.363  0.00  0.00    +0.016 C 
ATOM     11  C   UNL     1      34.567 -24.063 -15.825  0.00  0.00    +0.251 C 
ATOM     12  H   UNL     1      31.934 -22.268 -18.695  0.00  0.00    +0.153 HD
ENDROOT
BRANCH   1  13
ATOM     13  C   UNL     1      33.778 -21.633 -19.212  0.00  0.00    +0.049 C 
ATOM     14  C   UNL     1      35.148 -21.961 -19.182  0.00  0.00    +0.015 C 
ATOM     15  C   UNL     1      33.358 -20.622 -20.099  0.00  0.00    +0.015 C 
ATOM     16  C   UNL     1      36.062 -21.304 -20.006  0.00  0.00    +0.001 C 
ATOM     17  C   UNL     1      34.273 -19.965 -20.922  0.00  0.00    +0.001 C 
ATOM     18  C   UNL     1      35.625 -20.306 -20.875  0.00  0.00    +0.000 C 
ENDBRANCH   1  13
BRANCH   8  20
ATOM     19  O   UNL     1      27.821 -23.517 -17.705  0.00  0.00    -0.270 OA
ATOM     20  N   UNL     1      28.499 -22.390 -15.752  0.00  0.00    -0.281 N 
ATOM     21  C   UNL     1      27.616 -22.731 -16.788  0.00  0.00    +0.250 C 
ATOM     22  H   UNL     1      28.165 -21.735 -15.098  0.00  0.00    +0.155 HD
BRANCH  21  23
ATOM     23  C   UNL     1      26.320 -22.001 -16.667  0.00  0.00    +0.058 C 
ATOM     24  C   UNL     1      25.943 -21.127 -17.605  0.00  0.00    +0.005 C 
ENDBRANCH  21  23
ENDBRANCH   8  20
TORSDOF 3
ENDMDL
MODEL 2
REMARK VINA RESULT:     -11.3      6.854     10.245
REMARK  Name = 10401956
REMARK  3 active torsions:
REMARK  status: ('A' for Active; 'I' for Inactive)
REMARK    1  A    between atoms: N_1  and  C_13
REMARK    2  A    between atoms: C_8  and  N_20
REMARK    3  A    between atoms: C_21  and  C_23
REMARK                            x       y       z     vdW  Elec       q    Type
REMARK                         _______ _______ _______ _____ _____    ______ ____
ROOT
ATOM      1  N   UNL     1      34.614 -17.296 -21.702  0.00  0.00    -0.301 N 
ATOM      2  N   UNL     1      34.314 -16.340 -25.717  0.00  0.00    -0.248 NA
ATOM      3  N   UNL     1      35.084 -17.790 -23.954  0.00  0.00    -0.233 NA
ATOM      4  C   UNL     1      33.813 -15.800 -23.434  0.00  0.00    +0.117 C 
ATOM      5  C   UNL     1      33.745 -15.526 -24.810  0.00  0.00    +0.067 C 
ATOM      6  C   UNL     1      34.502 -16.954 -23.072  0.00  0.00    +0.115 C 
ATOM      7  C   UNL     1      33.214 -14.943 -22.495  0.00  0.00    +0.001 C 
ATOM      8  C   UNL     1      32.540 -13.803 -22.924  0.00  0.00    +0.047 C 
ATOM      9  C   UNL     1      33.063 -14.379 -25.211  0.00  0.00    +0.016 C 
ATOM     10  C   UNL     1      32.465 -13.521 -24.283  0.00  0.00    +0.016 C 
ATOM     11  C   UNL     1      34.952 -17.427 -25.239  0.00  0.00    +0.251 C 
ATOM     12  H   UNL     1      34.516 -16.553 -21.063  0.00  0.00    +0.153 HD
ENDROOT
BRANCH   1  13
ATOM     13  C   UNL     1      34.844 -18.542 -21.147  0.00  0.00    +0.049 C 
ATOM     14  C   UNL     1      33.774 -19.400 -20.822  0.00  0.00    +0.015 C 
ATOM     15  C   UNL     1      36.155 -18.990 -20.891  0.00  0.00    +0.015 C 
ATOM     16  C   UNL     1      34.006 -20.655 -20.261  0.00  0.00    +0.001 C 
ATOM     17  C   UNL     1      36.385 -20.247 -20.329  0.00  0.00    +0.001 C 
ATOM     18  C   UNL     1      35.311 -21.079 -20.015  0.00  0.00    +0.000 C 
ENDBRANCH   1  13
BRANCH   8  20
ATOM     19  O   UNL     1      32.385 -10.805 -22.861  0.00  0.00    -0.270 OA
ATOM     20  N   UNL     1      31.944 -12.949 -21.996  0.00  0.00    -0.281 N 
ATOM     21  C   UNL     1      31.900 -11.547 -22.016  0.00  0.00    +0.250 C 
ATOM     22  H   UNL     1      31.498 -13.384 -21.234  0.00  0.00    +0.155 HD
BRANCH  21  23
ATOM     23  C   UNL     1      31.164 -11.004 -20.838  0.00  0.00    +0.058 C 
ATOM     24  C   UNL     1      31.533 -11.333 -19.595  0.00  0.00    +0.005 C 
ENDBRANCH  21  23
ENDBRANCH   8  20
TORSDOF 3
ENDMDL
MODEL 3
REMARK VINA RESULT:     -10.3      3.341      7.561
REMARK  Name = 10401956
REMARK  3 active torsions:
REMARK  status: ('A' for Active; 'I' for Inactive)
REMARK    1  A    between atoms: N_1  and  C_13
REMARK    2  A    between atoms: C_8  and  N_20
REMARK    3  A    between atoms: C_21  and  C_23
REMARK                            x       y       z     vdW  Elec       q    Type
REMARK                         _______ _______ _______ _____ _____    ______ ____
ROOT
ATOM      1  N   UNL     1      32.533 -23.724 -16.252  0.00  0.00    -0.301 N 
ATOM      2  N   UNL     1      34.812 -21.720 -19.065  0.00  0.00    -0.248 NA
ATOM      3  N   UNL     1      32.709 -22.639 -18.331  0.00  0.00    -0.233 NA
ATOM      4  C   UNL     1      34.676 -22.819 -16.937  0.00  0.00    +0.117 C 
ATOM      5  C   UNL     1      35.399 -22.135 -17.928  0.00  0.00    +0.067 C 
ATOM      6  C   UNL     1      33.327 -23.040 -17.204  0.00  0.00    +0.115 C 
ATOM      7  C   UNL     1      35.299 -23.247 -15.752  0.00  0.00    +0.001 C 
ATOM      8  C   UNL     1      36.652 -22.994 -15.547  0.00  0.00    +0.047 C 
ATOM      9  C   UNL     1      36.751 -21.895 -17.696  0.00  0.00    +0.016 C 
ATOM     10  C   UNL     1      37.379 -22.317 -16.520  0.00  0.00    +0.016 C 
ATOM     11  C   UNL     1      33.500 -21.995 -19.204  0.00  0.00    +0.251 C 
ATOM     12  H   UNL     1      33.019 -24.307 -15.624  0.00  0.00    +0.153 HD
ENDROOT
BRANCH   1  13
ATOM     13  C   UNL     1      31.160 -23.676 -16.090  0.00  0.00    +0.049 C 
ATOM     14  C   UNL     1      30.424 -22.538 -16.471  0.00  0.00    +0.015 C 
ATOM     15  C   UNL     1      30.458 -24.766 -15.538  0.00  0.00    +0.015 C 
ATOM     16  C   UNL     1      29.040 -22.490 -16.307  0.00  0.00    +0.001 C 
ATOM     17  C   UNL     1      29.073 -24.717 -15.374  0.00  0.00    +0.001 C 
ATOM     18  C   UNL     1      28.364 -23.579 -15.759  0.00  0.00    +0.000 C 
ENDBRANCH   1  13
BRANCH   8  20
ATOM     19  O   UNL     1      38.040 -25.578 -14.904  0.00  0.00    -0.270 OA
ATOM     20  N   UNL     1      37.275 -23.416 -14.373  0.00  0.00    -0.281 N 
ATOM     21  C   UNL     1      37.912 -24.641 -14.125  0.00  0.00    +0.250 C 
ATOM     22  H   UNL     1      37.267 -22.775 -13.625  0.00  0.00    +0.155 HD
BRANCH  21  23
ATOM     23  C   UNL     1      38.456 -24.707 -12.737  0.00  0.00    +0.058 C 
ATOM     24  C   UNL     1      38.075 -23.817 -11.816  0.00  0.00    +0.005 C 
ENDBRANCH  21  23
ENDBRANCH   8  20
TORSDOF 3
ENDMDL
MODEL 4
REMARK VINA RESULT:     -10.2      2.498      3.665
REMARK  Name = 10401956
REMARK  3 active torsions:
REMARK  status: ('A' for Active; 'I' for Inactive)
REMARK    1  A    between atoms: N_1  and  C_13
REMARK    2  A    between atoms: C_8  and  N_20
REMARK    3  A    between atoms: C_21  and  C_23
REMARK                            x       y       z     vdW  Elec       q    Type
REMARK                         _______ _______ _______ _____ _____    ______ ____
ROOT
ATOM      1  N   UNL     1      34.563 -22.279 -18.295  0.00  0.00    -0.301 N 
ATOM      2  N   UNL     1      37.432 -22.508 -15.321  0.00  0.00    -0.248 NA
ATOM      3  N   UNL     1      36.744 -21.837 -17.531  0.00  0.00    -0.233 NA
ATOM      4  C   UNL     1      35.199 -22.979 -16.062  0.00  0.00    +0.117 C 
ATOM      5  C   UNL     1      36.213 -23.027 -15.091  0.00  0.00    +0.067 C 
ATOM      6  C   UNL     1      35.534 -22.366 -17.267  0.00  0.00    +0.115 C 
ATOM      7  C   UNL     1      33.929 -23.523 -15.810  0.00  0.00    +0.001 C 
ATOM      8  C   UNL     1      33.660 -24.122 -14.583  0.00  0.00    +0.047 C 
ATOM      9  C   UNL     1      35.916 -23.632 -13.872  0.00  0.00    +0.016 C 
ATOM     10  C   UNL     1      34.654 -24.177 -13.613  0.00  0.00    +0.016 C 
ATOM     11  C   UNL     1      37.631 -21.942 -16.529  0.00  0.00    +0.251 C 
ATOM     12  H   UNL     1      33.835 -22.941 -18.257  0.00  0.00    +0.153 HD
ENDROOT
BRANCH   1  13
ATOM     13  C   UNL     1      34.509 -21.382 -19.346  0.00  0.00    +0.049 C 
ATOM     14  C   UNL     1      33.276 -20.882 -19.810  0.00  0.00    +0.015 C 
ATOM     15  C   UNL     1      35.685 -20.942 -19.985  0.00  0.00    +0.015 C 
ATOM     16  C   UNL     1      33.221 -19.978 -20.871  0.00  0.00    +0.001 C 
ATOM     17  C   UNL     1      35.629 -20.037 -21.046  0.00  0.00    +0.001 C 
ATOM     18  C   UNL     1      34.397 -19.556 -21.489  0.00  0.00    +0.000 C 
ENDBRANCH   1  13
BRANCH   8  20
ATOM     19  O   UNL     1      30.948 -22.833 -14.602  0.00  0.00    -0.270 OA
ATOM     20  N   UNL     1      32.400 -24.665 -14.327  0.00  0.00    -0.281 N 
ATOM     21  C   UNL     1      31.158 -24.013 -14.351  0.00  0.00    +0.250 C 
ATOM     22  H   UNL     1      32.381 -25.623 -14.102  0.00  0.00    +0.155 HD
BRANCH  21  23
ATOM     23  C   UNL     1      30.042 -24.946 -14.018  0.00  0.00    +0.058 C 
ATOM     24  C   UNL     1      28.969 -25.031 -14.810  0.00  0.00    +0.005 C 
ENDBRANCH  21  23
ENDBRANCH   8  20
TORSDOF 3
ENDMDL
MODEL 5
REMARK VINA RESULT:     -10.1      6.829     10.730
REMARK  Name = 10401956
REMARK  3 active torsions:
REMARK  status: ('A' for Active; 'I' for Inactive)
REMARK    1  A    between atoms: N_1  and  C_13
REMARK    2  A    between atoms: C_8  and  N_20
REMARK    3  A    between atoms: C_21  and  C_23
REMARK                            x       y       z     vdW  Elec       q    Type
REMARK                         _______ _______ _______ _____ _____    ______ ____
ROOT
ATOM      1  N   UNL     1      32.685 -14.410 -22.193  0.00  0.00    -0.301 N 
ATOM      2  N   UNL     1      33.694 -15.514 -26.051  0.00  0.00    -0.248 NA
ATOM      3  N   UNL     1      32.593 -14.024 -24.511  0.00  0.00    -0.233 NA
ATOM      4  C   UNL     1      33.813 -15.944 -23.694  0.00  0.00    +0.117 C 
ATOM      5  C   UNL     1      34.123 -16.270 -25.025  0.00  0.00    +0.067 C 
ATOM      6  C   UNL     1      33.040 -14.802 -23.507  0.00  0.00    +0.115 C 
ATOM      7  C   UNL     1      34.267 -16.741 -22.630  0.00  0.00    +0.001 C 
ATOM      8  C   UNL     1      35.037 -17.871 -22.886  0.00  0.00    +0.047 C 
ATOM      9  C   UNL     1      34.896 -17.407 -25.252  0.00  0.00    +0.016 C 
ATOM     10  C   UNL     1      35.352 -18.204 -24.198  0.00  0.00    +0.016 C 
ATOM     11  C   UNL     1      32.953 -14.433 -25.738  0.00  0.00    +0.251 C 
ATOM     12  H   UNL     1      32.695 -15.123 -21.513  0.00  0.00    +0.153 HD
ENDROOT
BRANCH   1  13
ATOM     13  C   UNL     1      32.328 -13.152 -21.742  0.00  0.00    +0.049 C 
ATOM     14  C   UNL     1      32.223 -12.065 -22.632  0.00  0.00    +0.015 C 
ATOM     15  C   UNL     1      32.061 -12.920 -20.378  0.00  0.00    +0.015 C 
ATOM     16  C   UNL     1      31.864 -10.797 -22.177  0.00  0.00    +0.001 C 
ATOM     17  C   UNL     1      31.703 -11.651 -19.924  0.00  0.00    +0.001 C 
ATOM     18  C   UNL     1      31.604 -10.589 -20.823  0.00  0.00    +0.000 C 
ENDBRANCH   1  13
BRANCH   8  20
ATOM     19  O   UNL     1      33.633 -20.018 -21.324  0.00  0.00    -0.270 OA
ATOM     20  N   UNL     1      35.491 -18.666 -21.833  0.00  0.00    -0.281 N 
ATOM     21  C   UNL     1      34.789 -19.660 -21.135  0.00  0.00    +0.250 C 
ATOM     22  H   UNL     1      36.419 -18.509 -21.543  0.00  0.00    +0.155 HD
BRANCH  21  23
ATOM     23  C   UNL     1      35.630 -20.283 -20.072  0.00  0.00    +0.058 C 
ATOM     24  C   UNL     1      35.385 -21.530 -19.656  0.00  0.00    +0.005 C 
ENDBRANCH  21  23
ENDBRANCH   8  20
TORSDOF 3
ENDMDL
MODEL 6
REMARK VINA RESULT:      -9.8     12.499     15.172
REMARK  Name = 10401956
REMARK  3 active torsions:
REMARK  status: ('A' for Active; 'I' for Inactive)
REMARK    1  A    between atoms: N_1  and  C_13
REMARK    2  A    between atoms: C_8  and  N_20
REMARK    3  A    between atoms: C_21  and  C_23
REMARK                            x       y       z     vdW  Elec       q    Type
REMARK                         _______ _______ _______ _____ _____    ______ ____
ROOT
ATOM      1  N   UNL     1      32.570  -7.756 -23.509  0.00  0.00    -0.301 N 
ATOM      2  N   UNL     1      31.910  -8.405 -19.475  0.00  0.00    -0.248 NA
ATOM      3  N   UNL     1      32.331  -6.918 -21.324  0.00  0.00    -0.233 NA
ATOM      4  C   UNL     1      32.147  -9.301 -21.688  0.00  0.00    +0.117 C 
ATOM      5  C   UNL     1      31.928  -9.460 -20.310  0.00  0.00    +0.067 C 
ATOM      6  C   UNL     1      32.343  -7.996 -22.131  0.00  0.00    +0.115 C 
ATOM      7  C   UNL     1      32.164 -10.411 -22.550  0.00  0.00    +0.001 C 
ATOM      8  C   UNL     1      31.962 -11.690 -22.042  0.00  0.00    +0.047 C 
ATOM      9  C   UNL     1      31.728 -10.752 -19.828  0.00  0.00    +0.016 C 
ATOM     10  C   UNL     1      31.743 -11.861 -20.680  0.00  0.00    +0.016 C 
ATOM     11  C   UNL     1      32.112  -7.192 -20.028  0.00  0.00    +0.251 C 
ATOM     12  H   UNL     1      32.922  -8.517 -24.026  0.00  0.00    +0.153 HD
ENDROOT
BRANCH   1  13
ATOM     13  C   UNL     1      32.359  -6.589 -24.221  0.00  0.00    +0.049 C 
ATOM     14  C   UNL     1      31.148  -5.878 -24.106  0.00  0.00    +0.015 C 
ATOM     15  C   UNL     1      33.349  -6.078 -25.083  0.00  0.00    +0.015 C 
ATOM     16  C   UNL     1      30.935  -4.702 -24.824  0.00  0.00    +0.001 C 
ATOM     17  C   UNL     1      33.134  -4.902 -25.802  0.00  0.00    +0.001 C 
ATOM     18  C   UNL     1      31.928  -4.214 -25.672  0.00  0.00    +0.000 C 
ENDBRANCH   1  13
BRANCH   8  20
ATOM     19  O   UNL     1      34.131 -12.729 -23.841  0.00  0.00    -0.270 OA
ATOM     20  N   UNL     1      31.977 -12.795 -22.894  0.00  0.00    -0.281 N 
ATOM     21  C   UNL     1      33.023 -13.237 -23.716  0.00  0.00    +0.250 C 
ATOM     22  H   UNL     1      31.151 -13.330 -22.921  0.00  0.00    +0.155 HD
BRANCH  21  23
ATOM     23  C   UNL     1      32.643 -14.463 -24.478  0.00  0.00    +0.058 C 
ATOM     24  C   UNL     1      32.970 -14.589 -25.768  0.00  0.00    +0.005 C 
ENDBRANCH  21  23
ENDBRANCH   8  20
TORSDOF 3
ENDMDL
MODEL 7
REMARK VINA RESULT:      -9.6      8.226     12.055
REMARK  Name = 10401956
REMARK  3 active torsions:
REMARK  status: ('A' for Active; 'I' for Inactive)
REMARK    1  A    between atoms: N_1  and  C_13
REMARK    2  A    between atoms: C_8  and  N_20
REMARK    3  A    between atoms: C_21  and  C_23
REMARK                            x       y       z     vdW  Elec       q    Type
REMARK                         _______ _______ _______ _____ _____    ______ ____
ROOT
ATOM      1  N   UNL     1      33.620 -12.734 -23.659  0.00  0.00    -0.301 N 
ATOM      2  N   UNL     1      33.078 -15.233 -26.913  0.00  0.00    -0.248 NA
ATOM      3  N   UNL     1      32.870 -13.075 -25.863  0.00  0.00    -0.233 NA
ATOM      4  C   UNL     1      33.856 -14.929 -24.664  0.00  0.00    +0.117 C 
ATOM      5  C   UNL     1      33.646 -15.729 -25.799  0.00  0.00    +0.067 C 
ATOM      6  C   UNL     1      33.442 -13.603 -24.764  0.00  0.00    +0.115 C 
ATOM      7  C   UNL     1      34.451 -15.457 -23.506  0.00  0.00    +0.001 C 
ATOM      8  C   UNL     1      34.842 -16.792 -23.472  0.00  0.00    +0.047 C 
ATOM      9  C   UNL     1      34.048 -17.061 -25.738  0.00  0.00    +0.016 C 
ATOM     10  C   UNL     1      34.640 -17.595 -24.589  0.00  0.00    +0.016 C 
ATOM     11  C   UNL     1      32.721 -13.933 -26.884  0.00  0.00    +0.251 C 
ATOM     12  H   UNL     1      33.697 -13.168 -22.778  0.00  0.00    +0.153 HD
ENDROOT
BRANCH   1  13
ATOM     13  C   UNL     1      33.699 -11.353 -23.661  0.00  0.00    +0.049 C 
ATOM     14  C   UNL     1      34.749 -10.688 -24.325  0.00  0.00    +0.015 C 
ATOM     15  C   UNL     1      32.733 -10.571 -22.998  0.00  0.00    +0.015 C 
ATOM     16  C   UNL     1      34.829  -9.296 -24.325  0.00  0.00    +0.001 C 
ATOM     17  C   UNL     1      32.815  -9.178 -22.998  0.00  0.00    +0.001 C 
ATOM     18  C   UNL     1      33.863  -8.541 -23.662  0.00  0.00    +0.000 C 
ENDBRANCH   1  13
BRANCH   8  20
ATOM     19  O   UNL     1      34.661 -19.545 -22.286  0.00  0.00    -0.270 OA
ATOM     20  N   UNL     1      35.433 -17.322 -22.325  0.00  0.00    -0.281 N 
ATOM     21  C   UNL     1      35.314 -18.623 -21.814  0.00  0.00    +0.250 C 
ATOM     22  H   UNL     1      36.004 -16.707 -21.811  0.00  0.00    +0.155 HD
BRANCH  21  23
ATOM     23  C   UNL     1      36.105 -18.795 -20.561  0.00  0.00    +0.058 C 
ATOM     24  C   UNL     1      36.787 -19.923 -20.338  0.00  0.00    +0.005 C 
ENDBRANCH  21  23
ENDBRANCH   8  20
TORSDOF 3
ENDMDL
MODEL 8
REMARK VINA RESULT:      -9.6     10.647     13.589
REMARK  Name = 10401956
REMARK  3 active torsions:
REMARK  status: ('A' for Active; 'I' for Inactive)
REMARK    1  A    between atoms: N_1  and  C_13
REMARK    2  A    between atoms: C_8  and  N_20
REMARK    3  A    between atoms: C_21  and  C_23
REMARK                            x       y       z     vdW  Elec       q    Type
REMARK                         _______ _______ _______ _____ _____    ______ ____
ROOT
ATOM      1  N   UNL     1      32.718  -9.492 -23.213  0.00  0.00    -0.301 N 
ATOM      2  N   UNL     1      31.630 -11.184 -19.596  0.00  0.00    -0.248 NA
ATOM      3  N   UNL     1      32.021  -9.250 -20.979  0.00  0.00    -0.233 NA
ATOM      4  C   UNL     1      32.340 -11.475 -21.869  0.00  0.00    +0.117 C 
ATOM      5  C   UNL     1      31.964 -11.992 -20.619  0.00  0.00    +0.067 C 
ATOM      6  C   UNL     1      32.348 -10.087 -21.982  0.00  0.00    +0.115 C 
ATOM      7  C   UNL     1      32.686 -12.329 -22.931  0.00  0.00    +0.001 C 
ATOM      8  C   UNL     1      32.658 -13.708 -22.751  0.00  0.00    +0.047 C 
ATOM      9  C   UNL     1      31.944 -13.376 -20.467  0.00  0.00    +0.016 C 
ATOM     10  C   UNL     1      32.286 -14.233 -21.518  0.00  0.00    +0.016 C 
ATOM     11  C   UNL     1      31.678  -9.857 -19.833  0.00  0.00    +0.251 C 
ATOM     12  H   UNL     1      33.276 -10.044 -23.808  0.00  0.00    +0.153 HD
ENDROOT
BRANCH   1  13
ATOM     13  C   UNL     1      32.394  -8.233 -23.686  0.00  0.00    +0.049 C 
ATOM     14  C   UNL     1      31.050  -7.838 -23.836  0.00  0.00    +0.015 C 
ATOM     15  C   UNL     1      33.400  -7.309 -24.033  0.00  0.00    +0.015 C 
ATOM     16  C   UNL     1      30.724  -6.569 -24.314  0.00  0.00    +0.001 C 
ATOM     17  C   UNL     1      33.072  -6.040 -24.512  0.00  0.00    +0.001 C 
ATOM     18  C   UNL     1      31.735  -5.670 -24.652  0.00  0.00    +0.000 C 
ENDBRANCH   1  13
BRANCH   8  20
ATOM     19  O   UNL     1      35.107 -15.395 -23.169  0.00  0.00    -0.270 OA
ATOM     20  N   UNL     1      32.999 -14.560 -23.802  0.00  0.00    -0.281 N 
ATOM     21  C   UNL     1      34.163 -15.329 -23.946  0.00  0.00    +0.250 C 
ATOM     22  H   UNL     1      32.342 -14.631 -24.531  0.00  0.00    +0.155 HD
BRANCH  21  23
ATOM     23  C   UNL     1      34.151 -16.111 -25.217  0.00  0.00    +0.058 C 
ATOM     24  C   UNL     1      34.583 -17.376 -25.240  0.00  0.00    +0.005 C 
ENDBRANCH  21  23
ENDBRANCH   8  20
TORSDOF 3
ENDMDL
MODEL 9
REMARK VINA RESULT:      -9.4     12.446     15.331
REMARK  Name = 10401956
REMARK  3 active torsions:
REMARK  status: ('A' for Active; 'I' for Inactive)
REMARK    1  A    between atoms: N_1  and  C_13
REMARK    2  A    between atoms: C_8  and  N_20
REMARK    3  A    between atoms: C_21  and  C_23
REMARK                            x       y       z     vdW  Elec       q    Type
REMARK                         _______ _______ _______ _____ _____    ______ ____
ROOT
ATOM      1  N   UNL     1      32.205 -10.971 -22.673  0.00  0.00    -0.301 N 
ATOM      2  N   UNL     1      31.823  -8.626 -19.284  0.00  0.00    -0.248 NA
ATOM      3  N   UNL     1      31.885 -10.787 -20.349  0.00  0.00    -0.233 NA
ATOM      4  C   UNL     1      32.151  -8.770 -21.656  0.00  0.00    +0.117 C 
ATOM      5  C   UNL     1      32.015  -8.026 -20.472  0.00  0.00    +0.067 C 
ATOM      6  C   UNL     1      32.076 -10.154 -21.523  0.00  0.00    +0.115 C 
ATOM      7  C   UNL     1      32.352  -8.132 -22.892  0.00  0.00    +0.001 C 
ATOM      8  C   UNL     1      32.418  -6.744 -22.956  0.00  0.00    +0.047 C 
ATOM      9  C   UNL     1      32.085  -6.638 -20.565  0.00  0.00    +0.016 C 
ATOM     10  C   UNL     1      32.284  -5.996 -21.791  0.00  0.00    +0.016 C 
ATOM     11  C   UNL     1      31.769  -9.974 -19.288  0.00  0.00    +0.251 C 
ATOM     12  H   UNL     1      31.994 -10.540 -23.533  0.00  0.00    +0.153 HD
ENDROOT
BRANCH   1  13
ATOM     13  C   UNL     1      32.590 -12.298 -22.741  0.00  0.00    +0.049 C 
ATOM     14  C   UNL     1      32.133 -13.236 -21.795  0.00  0.00    +0.015 C 
ATOM     15  C   UNL     1      33.453 -12.749 -23.759  0.00  0.00    +0.015 C 
ATOM     16  C   UNL     1      32.523 -14.573 -21.863  0.00  0.00    +0.001 C 
ATOM     17  C   UNL     1      33.843 -14.088 -23.826  0.00  0.00    +0.001 C 
ATOM     18  C   UNL     1      33.378 -14.999 -22.878  0.00  0.00    +0.000 C 
ENDBRANCH   1  13
BRANCH   8  20
ATOM     19  O   UNL     1      30.658  -4.831 -24.460  0.00  0.00    -0.270 OA
ATOM     20  N   UNL     1      32.617  -6.106 -24.180  0.00  0.00    -0.281 N 
ATOM     21  C   UNL     1      31.756  -5.216 -24.840  0.00  0.00    +0.250 C 
ATOM     22  H   UNL     1      33.466  -6.304 -24.637  0.00  0.00    +0.155 HD
BRANCH  21  23
ATOM     23  C   UNL     1      32.335  -4.750 -26.134  0.00  0.00    +0.058 C 
ATOM     24  C   UNL     1      33.594  -5.057 -26.465  0.00  0.00    +0.005 C 
ENDBRANCH  21  23
ENDBRANCH   8  20
TORSDOF 3
ENDMDL
