MODEL 1
REMARK VINA RESULT:      -7.9      0.000      0.000
REMARK  Name = 16739244
REMARK  9 active torsions:
REMARK  status: ('A' for Active; 'I' for Inactive)
REMARK    1  A    between atoms: N_1  and  C_21
REMARK    2  A    between atoms: C_3  and  C_6
REMARK    3  A    between atoms: C_4  and  O_10
REMARK    4  A    between atoms: C_5  and  C_8
REMARK    5  A    between atoms: O_10  and  C_11
REMARK    6  A    between atoms: C_14  and  C_20
REMARK    7  A    between atoms: C_15  and  C_18
REMARK    8  A    between atoms: C_21  and  C_22
REMARK    9  A    between atoms: C_22  and  O_23
REMARK                            x       y       z     vdW  Elec       q    Type
REMARK                         _______ _______ _______ _____ _____    ______ ____
ROOT
ATOM      1  N   UNL     1      32.555  -8.732 -21.307  0.00  0.00    -0.250 N 
ATOM      2  N   UNL     1      33.205  -8.712 -22.483  0.00  0.00    -0.171 NA
ATOM      3  C   UNL     1      31.843  -9.876 -21.091  0.00  0.00    +0.091 A 
ATOM      4  C   UNL     1      32.041 -10.657 -22.204  0.00  0.00    +0.173 A 
ATOM      5  C   UNL     1      32.887  -9.890 -23.027  0.00  0.00    +0.114 A 
ENDROOT
BRANCH   3   6
ATOM      6  C   UNL     1      31.057 -10.108 -19.866  0.00  0.00    +0.049 C 
ATOM      7  C   UNL     1      31.570 -11.284 -19.029  0.00  0.00    +0.007 C 
ENDBRANCH   3   6
BRANCH   5   8
ATOM      8  C   UNL     1      33.422 -10.247 -24.352  0.00  0.00    +0.051 C 
ATOM      9  C   UNL     1      34.899  -9.882 -24.530  0.00  0.00    +0.007 C 
ENDBRANCH   5   8
BRANCH   4  10
ATOM     10  O   UNL     1      31.511 -11.902 -22.422  0.00  0.00    -0.451 OA
BRANCH  10  11
ATOM     11  C   UNL     1      32.294 -12.987 -22.668  0.00  0.00    +0.147 C 
ATOM     12  C   UNL     1      32.961 -13.618 -21.619  0.00  0.00    +0.048 C 
ATOM     13  C   UNL     1      32.428 -13.469 -23.972  0.00  0.00    +0.048 C 
ATOM     14  C   UNL     1      33.762 -14.732 -21.871  0.00  0.00    +0.072 C 
ATOM     15  C   UNL     1      33.230 -14.582 -24.224  0.00  0.00    +0.072 C 
ATOM     16  C   UNL     1      33.898 -15.214 -23.174  0.00  0.00    +0.021 C 
BRANCH  15  18
ATOM     17  N   UNL     1      33.482 -15.473 -26.642  0.00  0.00    -0.191 NA
ATOM     18  C   UNL     1      33.370 -15.074 -25.558  0.00  0.00    +0.101 C 
ENDBRANCH  15  18
BRANCH  14  20
ATOM     19  N   UNL     1      34.999 -15.904 -19.922  0.00  0.00    -0.191 NA
ATOM     20  C   UNL     1      34.445 -15.379 -20.796  0.00  0.00    +0.101 C 
ENDBRANCH  14  20
ENDBRANCH  10  11
ENDBRANCH   4  10
BRANCH   1  21
ATOM     21  C   UNL     1      32.666  -7.599 -20.419  0.00  0.00    +0.159 C 
BRANCH  21  22
ATOM     22  C   UNL     1      31.921  -6.376 -20.937  0.00  0.00    +0.163 C 
BRANCH  22  23
ATOM     23  O   UNL     1      31.232  -6.705 -22.136  0.00  0.00    -0.380 OA
ATOM     24  H   UNL     1      30.838  -5.904 -22.513  0.00  0.00    +0.211 HD
ENDBRANCH  22  23
ENDBRANCH  21  22
ENDBRANCH   1  21
TORSDOF 9
ENDMDL
MODEL 2
REMARK VINA RESULT:      -7.9      0.018      2.690
REMARK  Name = 16739244
REMARK  9 active torsions:
REMARK  status: ('A' for Active; 'I' for Inactive)
REMARK    1  A    between atoms: N_1  and  C_21
REMARK    2  A    between atoms: C_3  and  C_6
REMARK    3  A    between atoms: C_4  and  O_10
REMARK    4  A    between atoms: C_5  and  C_8
REMARK    5  A    between atoms: O_10  and  C_11
REMARK    6  A    between atoms: C_14  and  C_20
REMARK    7  A    between atoms: C_15  and  C_18
REMARK    8  A    between atoms: C_21  and  C_22
REMARK    9  A    between atoms: C_22  and  O_23
REMARK                            x       y       z     vdW  Elec       q    Type
REMARK                         _______ _______ _______ _____ _____    ______ ____
ROOT
ATOM      1  N   UNL     1      32.559  -8.738 -21.318  0.00  0.00    -0.250 N 
ATOM      2  N   UNL     1      33.202  -8.716 -22.497  0.00  0.00    -0.171 NA
ATOM      3  C   UNL     1      31.852  -9.885 -21.098  0.00  0.00    +0.091 A 
ATOM      4  C   UNL     1      32.044 -10.664 -22.212  0.00  0.00    +0.173 A 
ATOM      5  C   UNL     1      32.883  -9.894 -23.040  0.00  0.00    +0.114 A 
ENDROOT
BRANCH   3   6
ATOM      6  C   UNL     1      31.074 -10.120 -19.867  0.00  0.00    +0.049 C 
ATOM      7  C   UNL     1      31.582 -11.308 -19.046  0.00  0.00    +0.007 C 
ENDBRANCH   3   6
BRANCH   5   8
ATOM      8  C   UNL     1      33.410 -10.249 -24.369  0.00  0.00    +0.051 C 
ATOM      9  C   UNL     1      34.891  -9.902 -24.548  0.00  0.00    +0.007 C 
ENDBRANCH   5   8
BRANCH   4  10
ATOM     10  O   UNL     1      31.517 -11.910 -22.428  0.00  0.00    -0.451 OA
BRANCH  10  11
ATOM     11  C   UNL     1      32.300 -12.995 -22.672  0.00  0.00    +0.147 C 
ATOM     12  C   UNL     1      32.436 -13.479 -23.973  0.00  0.00    +0.048 C 
ATOM     13  C   UNL     1      32.969 -13.623 -21.621  0.00  0.00    +0.048 C 
ATOM     14  C   UNL     1      33.240 -14.591 -24.224  0.00  0.00    +0.072 C 
ATOM     15  C   UNL     1      33.773 -14.735 -21.871  0.00  0.00    +0.072 C 
ATOM     16  C   UNL     1      33.908 -15.219 -23.173  0.00  0.00    +0.021 C 
BRANCH  15  18
ATOM     17  N   UNL     1      35.010 -15.904 -19.919  0.00  0.00    -0.191 NA
ATOM     18  C   UNL     1      34.456 -15.380 -20.794  0.00  0.00    +0.101 C 
ENDBRANCH  15  18
BRANCH  14  20
ATOM     19  N   UNL     1      33.492 -15.489 -26.639  0.00  0.00    -0.191 NA
ATOM     20  C   UNL     1      33.379 -15.086 -25.557  0.00  0.00    +0.101 C 
ENDBRANCH  14  20
ENDBRANCH  10  11
ENDBRANCH   4  10
BRANCH   1  21
ATOM     21  C   UNL     1      32.673  -7.606 -20.429  0.00  0.00    +0.159 C 
BRANCH  21  22
ATOM     22  C   UNL     1      31.952  -6.373 -20.959  0.00  0.00    +0.163 C 
BRANCH  22  23
ATOM     23  O   UNL     1      31.209  -6.715 -22.122  0.00  0.00    -0.380 OA
ATOM     24  H   UNL     1      31.615  -6.300 -22.898  0.00  0.00    +0.211 HD
ENDBRANCH  22  23
ENDBRANCH  21  22
ENDBRANCH   1  21
TORSDOF 9
ENDMDL
MODEL 3
REMARK VINA RESULT:      -7.9      0.742      2.647
REMARK  Name = 16739244
REMARK  9 active torsions:
REMARK  status: ('A' for Active; 'I' for Inactive)
REMARK    1  A    between atoms: N_1  and  C_21
REMARK    2  A    between atoms: C_3  and  C_6
REMARK    3  A    between atoms: C_4  and  O_10
REMARK    4  A    between atoms: C_5  and  C_8
REMARK    5  A    between atoms: O_10  and  C_11
REMARK    6  A    between atoms: C_14  and  C_20
REMARK    7  A    between atoms: C_15  and  C_18
REMARK    8  A    between atoms: C_21  and  C_22
REMARK    9  A    between atoms: C_22  and  O_23
REMARK                            x       y       z     vdW  Elec       q    Type
REMARK                         _______ _______ _______ _____ _____    ______ ____
ROOT
ATOM      1  N   UNL     1      32.637  -8.795 -21.755  0.00  0.00    -0.250 N 
ATOM      2  N   UNL     1      32.106  -9.004 -20.539  0.00  0.00    -0.171 NA
ATOM      3  C   UNL     1      32.432  -9.822 -22.630  0.00  0.00    +0.091 A 
ATOM      4  C   UNL     1      31.720 -10.769 -21.936  0.00  0.00    +0.173 A 
ATOM      5  C   UNL     1      31.548 -10.212 -20.655  0.00  0.00    +0.114 A 
ENDROOT
BRANCH   3   6
ATOM      6  C   UNL     1      32.929  -9.800 -24.018  0.00  0.00    +0.049 C 
ATOM      7  C   UNL     1      34.353 -10.342 -24.162  0.00  0.00    +0.007 C 
ENDBRANCH   3   6
BRANCH   5   8
ATOM      8  C   UNL     1      30.849 -10.805 -19.501  0.00  0.00    +0.051 C 
ATOM      9  C   UNL     1      31.645 -10.711 -18.196  0.00  0.00    +0.007 C 
ENDBRANCH   5   8
BRANCH   4  10
ATOM     10  O   UNL     1      31.292 -11.976 -22.423  0.00  0.00    -0.451 OA
BRANCH  10  11
ATOM     11  C   UNL     1      32.150 -13.004 -22.665  0.00  0.00    +0.147 C 
ATOM     12  C   UNL     1      32.836 -13.603 -21.609  0.00  0.00    +0.048 C 
ATOM     13  C   UNL     1      32.344 -13.458 -23.970  0.00  0.00    +0.048 C 
ATOM     14  C   UNL     1      33.715 -14.657 -21.856  0.00  0.00    +0.072 C 
ATOM     15  C   UNL     1      33.224 -14.512 -24.218  0.00  0.00    +0.072 C 
ATOM     16  C   UNL     1      33.910 -15.111 -23.161  0.00  0.00    +0.021 C 
BRANCH  15  18
ATOM     17  N   UNL     1      33.586 -15.355 -26.639  0.00  0.00    -0.191 NA
ATOM     18  C   UNL     1      33.425 -14.976 -25.554  0.00  0.00    +0.101 C 
ENDBRANCH  15  18
BRANCH  14  20
ATOM     19  N   UNL     1      34.987 -15.770 -19.895  0.00  0.00    -0.191 NA
ATOM     20  C   UNL     1      34.417 -15.271 -20.774  0.00  0.00    +0.101 C 
ENDBRANCH  14  20
ENDBRANCH  10  11
ENDBRANCH   4  10
BRANCH   1  21
ATOM     21  C   UNL     1      33.337  -7.559 -22.017  0.00  0.00    +0.159 C 
BRANCH  21  22
ATOM     22  C   UNL     1      32.392  -6.380 -22.201  0.00  0.00    +0.163 C 
BRANCH  22  23
ATOM     23  O   UNL     1      32.002  -5.874 -20.932  0.00  0.00    -0.380 OA
ATOM     24  H   UNL     1      32.679  -5.261 -20.606  0.00  0.00    +0.211 HD
ENDBRANCH  22  23
ENDBRANCH  21  22
ENDBRANCH   1  21
TORSDOF 9
ENDMDL
MODEL 4
REMARK VINA RESULT:      -7.9      0.745      3.773
REMARK  Name = 16739244
REMARK  9 active torsions:
REMARK  status: ('A' for Active; 'I' for Inactive)
REMARK    1  A    between atoms: N_1  and  C_21
REMARK    2  A    between atoms: C_3  and  C_6
REMARK    3  A    between atoms: C_4  and  O_10
REMARK    4  A    between atoms: C_5  and  C_8
REMARK    5  A    between atoms: O_10  and  C_11
REMARK    6  A    between atoms: C_14  and  C_20
REMARK    7  A    between atoms: C_15  and  C_18
REMARK    8  A    between atoms: C_21  and  C_22
REMARK    9  A    between atoms: C_22  and  O_23
REMARK                            x       y       z     vdW  Elec       q    Type
REMARK                         _______ _______ _______ _____ _____    ______ ____
ROOT
ATOM      1  N   UNL     1      32.635  -8.777 -21.735  0.00  0.00    -0.250 N 
ATOM      2  N   UNL     1      32.100  -8.987 -20.521  0.00  0.00    -0.171 NA
ATOM      3  C   UNL     1      32.429  -9.802 -22.612  0.00  0.00    +0.091 A 
ATOM      4  C   UNL     1      31.712 -10.748 -21.922  0.00  0.00    +0.173 A 
ATOM      5  C   UNL     1      31.538 -10.193 -20.641  0.00  0.00    +0.114 A 
ENDROOT
BRANCH   3   6
ATOM      6  C   UNL     1      32.930  -9.779 -24.000  0.00  0.00    +0.049 C 
ATOM      7  C   UNL     1      34.340 -10.359 -24.145  0.00  0.00    +0.007 C 
ENDBRANCH   3   6
BRANCH   5   8
ATOM      8  C   UNL     1      30.834 -10.786 -19.490  0.00  0.00    +0.051 C 
ATOM      9  C   UNL     1      31.652 -10.752 -18.195  0.00  0.00    +0.007 C 
ENDBRANCH   5   8
BRANCH   4  10
ATOM     10  O   UNL     1      31.281 -11.953 -22.413  0.00  0.00    -0.451 OA
BRANCH  10  11
ATOM     11  C   UNL     1      32.138 -12.981 -22.660  0.00  0.00    +0.147 C 
ATOM     12  C   UNL     1      32.336 -13.426 -23.966  0.00  0.00    +0.048 C 
ATOM     13  C   UNL     1      32.818 -13.590 -21.604  0.00  0.00    +0.048 C 
ATOM     14  C   UNL     1      33.214 -14.480 -24.218  0.00  0.00    +0.072 C 
ATOM     15  C   UNL     1      33.697 -14.644 -21.856  0.00  0.00    +0.072 C 
ATOM     16  C   UNL     1      33.895 -15.090 -23.163  0.00  0.00    +0.021 C 
BRANCH  15  18
ATOM     17  N   UNL     1      34.957 -15.775 -19.898  0.00  0.00    -0.191 NA
ATOM     18  C   UNL     1      34.392 -15.269 -20.776  0.00  0.00    +0.101 C 
ENDBRANCH  15  18
BRANCH  14  20
ATOM     19  N   UNL     1      33.584 -15.306 -26.644  0.00  0.00    -0.191 NA
ATOM     20  C   UNL     1      33.418 -14.936 -25.557  0.00  0.00    +0.101 C 
ENDBRANCH  14  20
ENDBRANCH  10  11
ENDBRANCH   4  10
BRANCH   1  21
ATOM     21  C   UNL     1      33.340  -7.544 -21.993  0.00  0.00    +0.159 C 
BRANCH  21  22
ATOM     22  C   UNL     1      32.398  -6.364 -22.195  0.00  0.00    +0.163 C 
BRANCH  22  23
ATOM     23  O   UNL     1      32.005  -5.843 -20.933  0.00  0.00    -0.380 OA
ATOM     24  H   UNL     1      31.375  -5.117 -21.064  0.00  0.00    +0.211 HD
ENDBRANCH  22  23
ENDBRANCH  21  22
ENDBRANCH   1  21
TORSDOF 9
ENDMDL
MODEL 5
REMARK VINA RESULT:      -7.7      2.583      7.170
REMARK  Name = 16739244
REMARK  9 active torsions:
REMARK  status: ('A' for Active; 'I' for Inactive)
REMARK    1  A    between atoms: N_1  and  C_21
REMARK    2  A    between atoms: C_3  and  C_6
REMARK    3  A    between atoms: C_4  and  O_10
REMARK    4  A    between atoms: C_5  and  C_8
REMARK    5  A    between atoms: O_10  and  C_11
REMARK    6  A    between atoms: C_14  and  C_20
REMARK    7  A    between atoms: C_15  and  C_18
REMARK    8  A    between atoms: C_21  and  C_22
REMARK    9  A    between atoms: C_22  and  O_23
REMARK                            x       y       z     vdW  Elec       q    Type
REMARK                         _______ _______ _______ _____ _____    ______ ____
ROOT
ATOM      1  N   UNL     1      34.352 -16.281 -24.348  0.00  0.00    -0.250 N 
ATOM      2  N   UNL     1      34.772 -16.218 -23.074  0.00  0.00    -0.171 NA
ATOM      3  C   UNL     1      33.443 -15.318 -24.677  0.00  0.00    +0.091 A 
ATOM      4  C   UNL     1      33.255 -14.575 -23.537  0.00  0.00    +0.173 A 
ATOM      5  C   UNL     1      34.098 -15.174 -22.583  0.00  0.00    +0.114 A 
ENDROOT
BRANCH   3   6
ATOM      6  C   UNL     1      32.853 -15.203 -26.024  0.00  0.00    +0.049 C 
ATOM      7  C   UNL     1      33.427 -14.041 -26.841  0.00  0.00    +0.007 C 
ENDBRANCH   3   6
BRANCH   5   8
ATOM      8  C   UNL     1      34.293 -14.778 -21.177  0.00  0.00    +0.051 C 
ATOM      9  C   UNL     1      33.030 -14.926 -20.324  0.00  0.00    +0.007 C 
ENDBRANCH   5   8
BRANCH   4  10
ATOM     10  O   UNL     1      32.420 -13.496 -23.404  0.00  0.00    -0.451 OA
BRANCH  10  11
ATOM     11  C   UNL     1      32.867 -12.217 -23.527  0.00  0.00    +0.147 C 
ATOM     12  C   UNL     1      32.358 -11.218 -22.698  0.00  0.00    +0.048 C 
ATOM     13  C   UNL     1      33.837 -11.905 -24.482  0.00  0.00    +0.048 C 
ATOM     14  C   UNL     1      32.817  -9.907 -22.823  0.00  0.00    +0.072 C 
ATOM     15  C   UNL     1      34.295 -10.594 -24.607  0.00  0.00    +0.072 C 
ATOM     16  C   UNL     1      33.785  -9.594 -23.778  0.00  0.00    +0.021 C 
BRANCH  15  18
ATOM     17  N   UNL     1      36.089 -10.015 -26.382  0.00  0.00    -0.191 NA
ATOM     18  C   UNL     1      35.285 -10.274 -25.586  0.00  0.00    +0.101 C 
ENDBRANCH  15  18
BRANCH  14  20
ATOM     19  N   UNL     1      31.872  -8.052 -21.283  0.00  0.00    -0.191 NA
ATOM     20  C   UNL     1      32.295  -8.883 -21.974  0.00  0.00    +0.101 C 
ENDBRANCH  14  20
ENDBRANCH  10  11
ENDBRANCH   4  10
BRANCH   1  21
ATOM     21  C   UNL     1      34.877 -17.309 -25.216  0.00  0.00    +0.159 C 
BRANCH  21  22
ATOM     22  C   UNL     1      34.362 -18.696 -24.856  0.00  0.00    +0.163 C 
BRANCH  22  23
ATOM     23  O   UNL     1      34.979 -19.141 -23.655  0.00  0.00    -0.380 OA
ATOM     24  H   UNL     1      35.811 -18.661 -23.521  0.00  0.00    +0.211 HD
ENDBRANCH  22  23
ENDBRANCH  21  22
ENDBRANCH   1  21
TORSDOF 9
ENDMDL
MODEL 6
REMARK VINA RESULT:      -7.7      2.585      7.450
REMARK  Name = 16739244
REMARK  9 active torsions:
REMARK  status: ('A' for Active; 'I' for Inactive)
REMARK    1  A    between atoms: N_1  and  C_21
REMARK    2  A    between atoms: C_3  and  C_6
REMARK    3  A    between atoms: C_4  and  O_10
REMARK    4  A    between atoms: C_5  and  C_8
REMARK    5  A    between atoms: O_10  and  C_11
REMARK    6  A    between atoms: C_14  and  C_20
REMARK    7  A    between atoms: C_15  and  C_18
REMARK    8  A    between atoms: C_21  and  C_22
REMARK    9  A    between atoms: C_22  and  O_23
REMARK                            x       y       z     vdW  Elec       q    Type
REMARK                         _______ _______ _______ _____ _____    ______ ____
ROOT
ATOM      1  N   UNL     1      34.336 -16.274 -24.369  0.00  0.00    -0.250 N 
ATOM      2  N   UNL     1      34.760 -16.219 -23.095  0.00  0.00    -0.171 NA
ATOM      3  C   UNL     1      33.431 -15.305 -24.691  0.00  0.00    +0.091 A 
ATOM      4  C   UNL     1      33.249 -14.567 -23.548  0.00  0.00    +0.173 A 
ATOM      5  C   UNL     1      34.091 -15.174 -22.598  0.00  0.00    +0.114 A 
ENDROOT
BRANCH   3   6
ATOM      6  C   UNL     1      32.837 -15.182 -26.036  0.00  0.00    +0.049 C 
ATOM      7  C   UNL     1      33.427 -14.030 -26.855  0.00  0.00    +0.007 C 
ENDBRANCH   3   6
BRANCH   5   8
ATOM      8  C   UNL     1      34.291 -14.785 -21.191  0.00  0.00    +0.051 C 
ATOM      9  C   UNL     1      33.021 -14.897 -20.343  0.00  0.00    +0.007 C 
ENDBRANCH   5   8
BRANCH   4  10
ATOM     10  O   UNL     1      32.419 -13.485 -23.408  0.00  0.00    -0.451 OA
BRANCH  10  11
ATOM     11  C   UNL     1      32.870 -12.208 -23.532  0.00  0.00    +0.147 C 
ATOM     12  C   UNL     1      33.839 -11.899 -24.485  0.00  0.00    +0.048 C 
ATOM     13  C   UNL     1      32.361 -11.205 -22.704  0.00  0.00    +0.048 C 
ATOM     14  C   UNL     1      34.301 -10.589 -24.613  0.00  0.00    +0.072 C 
ATOM     15  C   UNL     1      32.823  -9.895 -22.831  0.00  0.00    +0.072 C 
ATOM     16  C   UNL     1      33.793  -9.587 -23.785  0.00  0.00    +0.021 C 
BRANCH  15  18
ATOM     17  N   UNL     1      31.882  -8.037 -21.293  0.00  0.00    -0.191 NA
ATOM     18  C   UNL     1      32.305  -8.869 -21.982  0.00  0.00    +0.101 C 
ENDBRANCH  15  18
BRANCH  14  20
ATOM     19  N   UNL     1      36.100 -10.016 -26.384  0.00  0.00    -0.191 NA
ATOM     20  C   UNL     1      35.293 -10.273 -25.591  0.00  0.00    +0.101 C 
ENDBRANCH  14  20
ENDBRANCH  10  11
ENDBRANCH   4  10
BRANCH   1  21
ATOM     21  C   UNL     1      34.856 -17.300 -25.242  0.00  0.00    +0.159 C 
BRANCH  21  22
ATOM     22  C   UNL     1      34.379 -18.694 -24.853  0.00  0.00    +0.163 C 
BRANCH  22  23
ATOM     23  O   UNL     1      35.043 -19.115 -23.669  0.00  0.00    -0.380 OA
ATOM     24  H   UNL     1      35.995 -19.179 -23.838  0.00  0.00    +0.211 HD
ENDBRANCH  22  23
ENDBRANCH  21  22
ENDBRANCH   1  21
TORSDOF 9
ENDMDL
MODEL 7
REMARK VINA RESULT:      -7.6      2.575      6.724
REMARK  Name = 16739244
REMARK  9 active torsions:
REMARK  status: ('A' for Active; 'I' for Inactive)
REMARK    1  A    between atoms: N_1  and  C_21
REMARK    2  A    between atoms: C_3  and  C_6
REMARK    3  A    between atoms: C_4  and  O_10
REMARK    4  A    between atoms: C_5  and  C_8
REMARK    5  A    between atoms: O_10  and  C_11
REMARK    6  A    between atoms: C_14  and  C_20
REMARK    7  A    between atoms: C_15  and  C_18
REMARK    8  A    between atoms: C_21  and  C_22
REMARK    9  A    between atoms: C_22  and  O_23
REMARK                            x       y       z     vdW  Elec       q    Type
REMARK                         _______ _______ _______ _____ _____    ______ ____
ROOT
ATOM      1  N   UNL     1      34.630 -16.239 -23.447  0.00  0.00    -0.250 N 
ATOM      2  N   UNL     1      34.268 -16.322 -24.738  0.00  0.00    -0.171 NA
ATOM      3  C   UNL     1      34.027 -15.220 -22.770  0.00  0.00    +0.091 A 
ATOM      4  C   UNL     1      33.216 -14.592 -23.684  0.00  0.00    +0.173 A 
ATOM      5  C   UNL     1      33.404 -15.313 -24.877  0.00  0.00    +0.114 A 
ENDROOT
BRANCH   3   6
ATOM      6  C   UNL     1      34.279 -14.948 -21.343  0.00  0.00    +0.049 C 
ATOM      7  C   UNL     1      33.030 -15.088 -20.468  0.00  0.00    +0.007 C 
ENDBRANCH   3   6
BRANCH   5   8
ATOM      8  C   UNL     1      32.773 -15.071 -26.186  0.00  0.00    +0.051 C 
ATOM      9  C   UNL     1      33.430 -13.934 -26.976  0.00  0.00    +0.007 C 
ENDBRANCH   5   8
BRANCH   4  10
ATOM     10  O   UNL     1      32.415 -13.506 -23.441  0.00  0.00    -0.451 OA
BRANCH  10  11
ATOM     11  C   UNL     1      32.874 -12.230 -23.558  0.00  0.00    +0.147 C 
ATOM     12  C   UNL     1      32.371 -11.230 -22.726  0.00  0.00    +0.048 C 
ATOM     13  C   UNL     1      33.847 -11.923 -24.510  0.00  0.00    +0.048 C 
ATOM     14  C   UNL     1      32.841  -9.922 -22.845  0.00  0.00    +0.072 C 
ATOM     15  C   UNL     1      34.317 -10.614 -24.629  0.00  0.00    +0.072 C 
ATOM     16  C   UNL     1      33.814  -9.614 -23.797  0.00  0.00    +0.021 C 
BRANCH  15  18
ATOM     17  N   UNL     1      36.120 -10.042 -26.397  0.00  0.00    -0.191 NA
ATOM     18  C   UNL     1      35.312 -10.299 -25.605  0.00  0.00    +0.101 C 
ENDBRANCH  15  18
BRANCH  14  20
ATOM     19  N   UNL     1      31.911  -8.065 -21.299  0.00  0.00    -0.191 NA
ATOM     20  C   UNL     1      32.327  -8.897 -21.992  0.00  0.00    +0.101 C 
ENDBRANCH  14  20
ENDBRANCH  10  11
ENDBRANCH   4  10
BRANCH   1  21
ATOM     21  C   UNL     1      35.575 -17.193 -22.915  0.00  0.00    +0.159 C 
BRANCH  21  22
ATOM     22  C   UNL     1      34.948 -18.559 -22.666  0.00  0.00    +0.163 C 
BRANCH  22  23
ATOM     23  O   UNL     1      34.776 -19.240 -23.901  0.00  0.00    -0.380 OA
ATOM     24  H   UNL     1      35.120 -20.144 -23.822  0.00  0.00    +0.211 HD
ENDBRANCH  22  23
ENDBRANCH  21  22
ENDBRANCH   1  21
TORSDOF 9
ENDMDL
MODEL 8
REMARK VINA RESULT:      -7.6      2.552      7.004
REMARK  Name = 16739244
REMARK  9 active torsions:
REMARK  status: ('A' for Active; 'I' for Inactive)
REMARK    1  A    between atoms: N_1  and  C_21
REMARK    2  A    between atoms: C_3  and  C_6
REMARK    3  A    between atoms: C_4  and  O_10
REMARK    4  A    between atoms: C_5  and  C_8
REMARK    5  A    between atoms: O_10  and  C_11
REMARK    6  A    between atoms: C_14  and  C_20
REMARK    7  A    between atoms: C_15  and  C_18
REMARK    8  A    between atoms: C_21  and  C_22
REMARK    9  A    between atoms: C_22  and  O_23
REMARK                            x       y       z     vdW  Elec       q    Type
REMARK                         _______ _______ _______ _____ _____    ______ ____
ROOT
ATOM      1  N   UNL     1      34.633 -16.223 -23.418  0.00  0.00    -0.250 N 
ATOM      2  N   UNL     1      34.280 -16.314 -24.710  0.00  0.00    -0.171 NA
ATOM      3  C   UNL     1      34.025 -15.199 -22.751  0.00  0.00    +0.091 A 
ATOM      4  C   UNL     1      33.220 -14.577 -23.674  0.00  0.00    +0.173 A 
ATOM      5  C   UNL     1      33.417 -15.306 -24.862  0.00  0.00    +0.114 A 
ENDROOT
BRANCH   3   6
ATOM      6  C   UNL     1      34.268 -14.919 -21.324  0.00  0.00    +0.049 C 
ATOM      7  C   UNL     1      33.018 -15.080 -20.453  0.00  0.00    +0.007 C 
ENDBRANCH   3   6
BRANCH   5   8
ATOM      8  C   UNL     1      32.794 -15.072 -26.176  0.00  0.00    +0.051 C 
ATOM      9  C   UNL     1      33.461 -13.946 -26.972  0.00  0.00    +0.007 C 
ENDBRANCH   5   8
BRANCH   4  10
ATOM     10  O   UNL     1      32.418 -13.490 -23.444  0.00  0.00    -0.451 OA
BRANCH  10  11
ATOM     11  C   UNL     1      32.879 -12.215 -23.555  0.00  0.00    +0.147 C 
ATOM     12  C   UNL     1      33.848 -11.904 -24.508  0.00  0.00    +0.048 C 
ATOM     13  C   UNL     1      32.382 -11.217 -22.714  0.00  0.00    +0.048 C 
ATOM     14  C   UNL     1      34.321 -10.597 -24.622  0.00  0.00    +0.072 C 
ATOM     15  C   UNL     1      32.855  -9.910 -22.828  0.00  0.00    +0.072 C 
ATOM     16  C   UNL     1      33.825  -9.600 -23.782  0.00  0.00    +0.021 C 
BRANCH  15  18
ATOM     17  N   UNL     1      31.936  -8.062 -21.265  0.00  0.00    -0.191 NA
ATOM     18  C   UNL     1      32.348  -8.890 -21.966  0.00  0.00    +0.101 C 
ENDBRANCH  15  18
BRANCH  14  20
ATOM     19  N   UNL     1      36.119 -10.021 -26.394  0.00  0.00    -0.191 NA
ATOM     20  C   UNL     1      35.313 -10.278 -25.600  0.00  0.00    +0.101 C 
ENDBRANCH  14  20
ENDBRANCH  10  11
ENDBRANCH   4  10
BRANCH   1  21
ATOM     21  C   UNL     1      35.575 -17.173 -22.873  0.00  0.00    +0.159 C 
BRANCH  21  22
ATOM     22  C   UNL     1      34.930 -18.515 -22.551  0.00  0.00    +0.163 C 
BRANCH  22  23
ATOM     23  O   UNL     1      34.580 -19.181 -23.757  0.00  0.00    -0.380 OA
ATOM     24  H   UNL     1      33.678 -19.528 -23.685  0.00  0.00    +0.211 HD
ENDBRANCH  22  23
ENDBRANCH  21  22
ENDBRANCH   1  21
TORSDOF 9
ENDMDL
MODEL 9
REMARK VINA RESULT:      -7.6     11.617     14.851
REMARK  Name = 16739244
REMARK  9 active torsions:
REMARK  status: ('A' for Active; 'I' for Inactive)
REMARK    1  A    between atoms: N_1  and  C_21
REMARK    2  A    between atoms: C_3  and  C_6
REMARK    3  A    between atoms: C_4  and  O_10
REMARK    4  A    between atoms: C_5  and  C_8
REMARK    5  A    between atoms: O_10  and  C_11
REMARK    6  A    between atoms: C_14  and  C_20
REMARK    7  A    between atoms: C_15  and  C_18
REMARK    8  A    between atoms: C_21  and  C_22
REMARK    9  A    between atoms: C_22  and  O_23
REMARK                            x       y       z     vdW  Elec       q    Type
REMARK                         _______ _______ _______ _____ _____    ______ ____
ROOT
ATOM      1  N   UNL     1      31.069 -23.598 -16.227  0.00  0.00    -0.250 N 
ATOM      2  N   UNL     1      31.604 -23.405 -17.444  0.00  0.00    -0.171 NA
ATOM      3  C   UNL     1      31.941 -23.374 -15.201  0.00  0.00    +0.091 A 
ATOM      4  C   UNL     1      33.128 -23.012 -15.789  0.00  0.00    +0.173 A 
ATOM      5  C   UNL     1      32.862 -23.048 -17.171  0.00  0.00    +0.114 A 
ENDROOT
BRANCH   3   6
ATOM      6  C   UNL     1      31.562 -23.526 -13.783  0.00  0.00    +0.049 C 
ATOM      7  C   UNL     1      31.563 -24.982 -13.308  0.00  0.00    +0.007 C 
ENDBRANCH   3   6
BRANCH   5   8
ATOM      8  C   UNL     1      33.788 -22.745 -18.275  0.00  0.00    +0.051 C 
ATOM      9  C   UNL     1      33.280 -21.644 -19.210  0.00  0.00    +0.007 C 
ENDBRANCH   5   8
BRANCH   4  10
ATOM     10  O   UNL     1      34.289 -22.694 -15.136  0.00  0.00    -0.451 OA
BRANCH  10  11
ATOM     11  C   UNL     1      34.988 -23.611 -14.414  0.00  0.00    +0.147 C 
ATOM     12  C   UNL     1      34.987 -23.552 -13.021  0.00  0.00    +0.048 C 
ATOM     13  C   UNL     1      35.706 -24.614 -15.069  0.00  0.00    +0.048 C 
ATOM     14  C   UNL     1      35.702 -24.493 -12.281  0.00  0.00    +0.072 C 
ATOM     15  C   UNL     1      36.422 -25.555 -14.329  0.00  0.00    +0.072 C 
ATOM     16  C   UNL     1      36.421 -25.495 -12.936  0.00  0.00    +0.021 C 
BRANCH  15  18
ATOM     17  N   UNL     1      37.757 -27.411 -15.545  0.00  0.00    -0.191 NA
ATOM     18  C   UNL     1      37.158 -26.580 -14.999  0.00  0.00    +0.101 C 
ENDBRANCH  15  18
BRANCH  14  20
ATOM     19  N   UNL     1      35.698 -24.382  -9.695  0.00  0.00    -0.191 NA
ATOM     20  C   UNL     1      35.700 -24.432 -10.854  0.00  0.00    +0.101 C 
ENDBRANCH  14  20
ENDBRANCH  10  11
ENDBRANCH   4  10
BRANCH   1  21
ATOM     21  C   UNL     1      29.687 -24.000 -16.117  0.00  0.00    +0.159 C 
BRANCH  21  22
ATOM     22  C   UNL     1      28.748 -22.815 -15.930  0.00  0.00    +0.163 C 
BRANCH  22  23
ATOM     23  O   UNL     1      28.810 -21.968 -17.069  0.00  0.00    -0.380 OA
ATOM     24  H   UNL     1      29.150 -21.099 -16.808  0.00  0.00    +0.211 HD
ENDBRANCH  22  23
ENDBRANCH  21  22
ENDBRANCH   1  21
TORSDOF 9
ENDMDL
