MODEL 1
REMARK VINA RESULT:      -9.8      0.000      0.000
REMARK  Name = 5311053
REMARK  15 active torsions:
REMARK  status: ('A' for Active; 'I' for Inactive)
REMARK    1  A    between atoms: C_1  and  C_24
REMARK    2  A    between atoms: C_2  and  C_10
REMARK    3  A    between atoms: C_3  and  O_6
REMARK    4  A    between atoms: C_4  and  O_8
REMARK    5  A    between atoms: C_11  and  C_12
REMARK    6  A    between atoms: C_12  and  O_13
REMARK    7  A    between atoms: C_12  and  C_15
REMARK    8  A    between atoms: C_15  and  O_16
REMARK    9  A    between atoms: O_16  and  C_18
REMARK   10  A    between atoms: C_24  and  C_25
REMARK   11  A    between atoms: C_26  and  C_27
REMARK   12  A    between atoms: C_27  and  C_28
REMARK   13  A    between atoms: C_28  and  C_29
REMARK   14  A    between atoms: C_29  and  C_31
REMARK   15  A    between atoms: C_31  and  O_32
REMARK                            x       y       z     vdW  Elec       q    Type
REMARK                         _______ _______ _______ _____ _____    ______ ____
ROOT
ATOM      1  C   UNL     1      36.526 -23.930 -13.210  0.00  0.00    +0.038 C 
ATOM      2  C   UNL     1      36.646 -24.506 -14.630  0.00  0.00    +0.051 C 
ATOM      3  C   UNL     1      37.366 -24.911 -12.387  0.00  0.00    +0.114 C 
ATOM      4  C   UNL     1      38.108 -24.981 -14.712  0.00  0.00    +0.117 C 
ATOM      5  C   UNL     1      38.594 -25.151 -13.264  0.00  0.00    +0.059 C 
ENDROOT
BRANCH   3   6
ATOM      6  O   UNL     1      36.688 -26.137 -12.142  0.00  0.00    -0.384 OA
ATOM      7  H   UNL     1      36.039 -26.012 -11.432  0.00  0.00    +0.210 HD
ENDBRANCH   3   6
BRANCH   4   8
ATOM      8  O   UNL     1      38.179 -26.230 -15.389  0.00  0.00    -0.384 OA
ATOM      9  H   UNL     1      39.023 -26.294 -15.862  0.00  0.00    +0.210 HD
ENDBRANCH   4   8
BRANCH   2  10
ATOM     10  C   UNL     1      36.312 -23.520 -15.706  0.00  0.00    -0.026 C 
ATOM     11  C   UNL     1      37.008 -22.397 -15.932  0.00  0.00    +0.002 C 
BRANCH  11  12
ATOM     12  C   UNL     1      36.669 -21.408 -17.012  0.00  0.00    +0.176 C 
BRANCH  12  13
ATOM     13  O   UNL     1      37.622 -20.351 -16.943  0.00  0.00    -0.376 OA
ATOM     14  H   UNL     1      37.406 -19.678 -17.608  0.00  0.00    +0.211 HD
ENDBRANCH  12  13
BRANCH  12  15
ATOM     15  C   UNL     1      36.731 -22.046 -18.398  0.00  0.00    +0.239 C 
BRANCH  15  16
ATOM     16  O   UNL     1      35.418 -22.295 -18.876  0.00  0.00    -0.472 OA
BRANCH  16  18
ATOM     17 CL   UNL     1      36.053 -18.496 -22.201  0.00  0.00    -0.082 Cl
ATOM     18  C   UNL     1      34.845 -21.320 -19.650  0.00  0.00    +0.140 C 
ATOM     19  C   UNL     1      35.650 -20.504 -20.437  0.00  0.00    +0.048 C 
ATOM     20  C   UNL     1      33.465 -21.157 -19.640  0.00  0.00    +0.037 C 
ATOM     21  C   UNL     1      35.066 -19.511 -21.223  0.00  0.00    +0.061 C 
ATOM     22  C   UNL     1      32.881 -20.165 -20.427  0.00  0.00    +0.004 C 
ATOM     23  C   UNL     1      33.681 -19.342 -21.220  0.00  0.00    +0.012 C 
ENDBRANCH  16  18
ENDBRANCH  15  16
ENDBRANCH  12  15
ENDBRANCH  11  12
ENDBRANCH   2  10
BRANCH   1  24
ATOM     24  C   UNL     1      35.088 -23.804 -12.725  0.00  0.00    +0.028 C 
BRANCH  24  25
ATOM     25  C   UNL     1      34.086 -24.757 -13.317  0.00  0.00    -0.031 C 
ATOM     26  C   UNL     1      33.048 -24.452 -14.111  0.00  0.00    -0.031 C 
BRANCH  26  27
ATOM     27  C   UNL     1      32.717 -23.055 -14.547  0.00  0.00    +0.026 C 
BRANCH  27  28
ATOM     28  C   UNL     1      31.219 -22.821 -14.784  0.00  0.00    +0.016 C 
BRANCH  28  29
ATOM     29  C   UNL     1      30.804 -22.884 -16.257  0.00  0.00    +0.110 C 
BRANCH  29  31
ATOM     30  O   UNL     1      28.650 -22.029 -17.007  0.00  0.00    -0.250 OA
ATOM     31  C   UNL     1      29.305 -22.910 -16.466  0.00  0.00    +0.314 C 
BRANCH  31  32
ATOM     32  O   UNL     1      28.744 -24.028 -15.935  0.00  0.00    -0.480 OA
ATOM     33  H   UNL     1      27.847 -24.231 -16.113  0.00  0.00    +0.295 HD
ENDBRANCH  31  32
ENDBRANCH  29  31
ENDBRANCH  28  29
ENDBRANCH  27  28
ENDBRANCH  26  27
ENDBRANCH  24  25
ENDBRANCH   1  24
TORSDOF 15
ENDMDL
MODEL 2
REMARK VINA RESULT:      -9.5      1.969      3.043
REMARK  Name = 5311053
REMARK  15 active torsions:
REMARK  status: ('A' for Active; 'I' for Inactive)
REMARK    1  A    between atoms: C_1  and  C_24
REMARK    2  A    between atoms: C_2  and  C_10
REMARK    3  A    between atoms: C_3  and  O_6
REMARK    4  A    between atoms: C_4  and  O_8
REMARK    5  A    between atoms: C_11  and  C_12
REMARK    6  A    between atoms: C_12  and  O_13
REMARK    7  A    between atoms: C_12  and  C_15
REMARK    8  A    between atoms: C_15  and  O_16
REMARK    9  A    between atoms: O_16  and  C_18
REMARK   10  A    between atoms: C_24  and  C_25
REMARK   11  A    between atoms: C_26  and  C_27
REMARK   12  A    between atoms: C_27  and  C_28
REMARK   13  A    between atoms: C_28  and  C_29
REMARK   14  A    between atoms: C_29  and  C_31
REMARK   15  A    between atoms: C_31  and  O_32
REMARK                            x       y       z     vdW  Elec       q    Type
REMARK                         _______ _______ _______ _____ _____    ______ ____
ROOT
ATOM      1  C   UNL     1      33.917 -23.818 -14.553  0.00  0.00    +0.038 C 
ATOM      2  C   UNL     1      34.696 -23.782 -15.877  0.00  0.00    +0.051 C 
ATOM      3  C   UNL     1      35.036 -23.992 -13.521  0.00  0.00    +0.114 C 
ATOM      4  C   UNL     1      35.962 -22.975 -15.538  0.00  0.00    +0.117 C 
ATOM      5  C   UNL     1      36.123 -23.036 -14.011  0.00  0.00    +0.059 C 
ENDROOT
BRANCH   3   6
ATOM      6  O   UNL     1      35.533 -25.323 -13.474  0.00  0.00    -0.384 OA
ATOM      7  H   UNL     1      35.427 -25.677 -12.577  0.00  0.00    +0.210 HD
ENDBRANCH   3   6
BRANCH   4   8
ATOM      8  O   UNL     1      37.098 -23.562 -16.162  0.00  0.00    -0.384 OA
ATOM      9  H   UNL     1      36.811 -24.106 -16.912  0.00  0.00    +0.210 HD
ENDBRANCH   4   8
BRANCH   2  10
ATOM     10  C   UNL     1      33.925 -23.174 -17.008  0.00  0.00    -0.026 C 
ATOM     11  C   UNL     1      34.493 -22.686 -18.120  0.00  0.00    +0.002 C 
BRANCH  11  12
ATOM     12  C   UNL     1      33.717 -22.073 -19.253  0.00  0.00    +0.176 C 
BRANCH  12  13
ATOM     13  O   UNL     1      32.491 -21.580 -18.719  0.00  0.00    -0.376 OA
ATOM     14  H   UNL     1      32.388 -20.646 -18.959  0.00  0.00    +0.211 HD
ENDBRANCH  12  13
BRANCH  12  15
ATOM     15  C   UNL     1      34.481 -20.919 -19.898  0.00  0.00    +0.239 C 
BRANCH  15  16
ATOM     16  O   UNL     1      33.588 -20.099 -20.635  0.00  0.00    -0.472 OA
BRANCH  16  18
ATOM     17 CL   UNL     1      34.541 -15.147 -21.314  0.00  0.00    -0.082 Cl
ATOM     18  C   UNL     1      34.146 -19.118 -21.414  0.00  0.00    +0.140 C 
ATOM     19  C   UNL     1      34.066 -17.791 -21.011  0.00  0.00    +0.048 C 
ATOM     20  C   UNL     1      34.783 -19.463 -22.600  0.00  0.00    +0.037 C 
ATOM     21  C   UNL     1      34.633 -16.793 -21.805  0.00  0.00    +0.061 C 
ATOM     22  C   UNL     1      35.351 -18.466 -23.393  0.00  0.00    +0.004 C 
ATOM     23  C   UNL     1      35.277 -17.131 -22.996  0.00  0.00    +0.012 C 
ENDBRANCH  16  18
ENDBRANCH  15  16
ENDBRANCH  12  15
ENDBRANCH  11  12
ENDBRANCH   2  10
BRANCH   1  24
ATOM     24  C   UNL     1      32.863 -24.916 -14.498  0.00  0.00    +0.028 C 
BRANCH  24  25
ATOM     25  C   UNL     1      31.628 -24.632 -13.688  0.00  0.00    -0.031 C 
ATOM     26  C   UNL     1      30.769 -23.613 -13.849  0.00  0.00    -0.031 C 
BRANCH  26  27
ATOM     27  C   UNL     1      30.920 -22.558 -14.906  0.00  0.00    +0.026 C 
BRANCH  27  28
ATOM     28  C   UNL     1      30.312 -22.950 -16.259  0.00  0.00    +0.016 C 
BRANCH  28  29
ATOM     29  C   UNL     1      28.923 -23.588 -16.156  0.00  0.00    +0.110 C 
BRANCH  29  31
ATOM     30  O   UNL     1      27.306 -23.564 -17.977  0.00  0.00    -0.250 OA
ATOM     31  C   UNL     1      27.900 -22.973 -17.086  0.00  0.00    +0.314 C 
BRANCH  31  32
ATOM     32  O   UNL     1      27.738 -21.645 -16.845  0.00  0.00    -0.480 OA
ATOM     33  H   UNL     1      28.265 -21.219 -16.199  0.00  0.00    +0.295 HD
ENDBRANCH  31  32
ENDBRANCH  29  31
ENDBRANCH  28  29
ENDBRANCH  27  28
ENDBRANCH  26  27
ENDBRANCH  24  25
ENDBRANCH   1  24
TORSDOF 15
ENDMDL
MODEL 3
REMARK VINA RESULT:      -9.4      1.884      5.520
REMARK  Name = 5311053
REMARK  15 active torsions:
REMARK  status: ('A' for Active; 'I' for Inactive)
REMARK    1  A    between atoms: C_1  and  C_24
REMARK    2  A    between atoms: C_2  and  C_10
REMARK    3  A    between atoms: C_3  and  O_6
REMARK    4  A    between atoms: C_4  and  O_8
REMARK    5  A    between atoms: C_11  and  C_12
REMARK    6  A    between atoms: C_12  and  O_13
REMARK    7  A    between atoms: C_12  and  C_15
REMARK    8  A    between atoms: C_15  and  O_16
REMARK    9  A    between atoms: O_16  and  C_18
REMARK   10  A    between atoms: C_24  and  C_25
REMARK   11  A    between atoms: C_26  and  C_27
REMARK   12  A    between atoms: C_27  and  C_28
REMARK   13  A    between atoms: C_28  and  C_29
REMARK   14  A    between atoms: C_29  and  C_31
REMARK   15  A    between atoms: C_31  and  O_32
REMARK                            x       y       z     vdW  Elec       q    Type
REMARK                         _______ _______ _______ _____ _____    ______ ____
ROOT
ATOM      1  C   UNL     1      32.064 -24.285 -14.515  0.00  0.00    +0.038 C 
ATOM      2  C   UNL     1      31.146 -23.452 -15.424  0.00  0.00    +0.051 C 
ATOM      3  C   UNL     1      31.063 -25.158 -13.752  0.00  0.00    +0.114 C 
ATOM      4  C   UNL     1      30.057 -24.449 -15.860  0.00  0.00    +0.117 C 
ATOM      5  C   UNL     1      30.073 -25.590 -14.832  0.00  0.00    +0.059 C 
ENDROOT
BRANCH   3   6
ATOM      6  O   UNL     1      30.390 -24.445 -12.722  0.00  0.00    -0.384 OA
ATOM      7  H   UNL     1      31.031 -24.166 -12.050  0.00  0.00    +0.210 HD
ENDBRANCH   3   6
BRANCH   4   8
ATOM      8  O   UNL     1      28.783 -23.816 -15.853  0.00  0.00    -0.384 OA
ATOM      9  H   UNL     1      28.541 -23.586 -14.942  0.00  0.00    +0.210 HD
ENDBRANCH   4   8
BRANCH   2  10
ATOM     10  C   UNL     1      31.855 -22.842 -16.594  0.00  0.00    -0.026 C 
ATOM     11  C   UNL     1      32.967 -23.352 -17.140  0.00  0.00    +0.002 C 
BRANCH  11  12
ATOM     12  C   UNL     1      33.678 -22.735 -18.313  0.00  0.00    +0.176 C 
BRANCH  12  13
ATOM     13  O   UNL     1      33.828 -23.747 -19.306  0.00  0.00    -0.376 OA
ATOM     14  H   UNL     1      34.650 -23.597 -19.798  0.00  0.00    +0.211 HD
ENDBRANCH  12  13
BRANCH  12  15
ATOM     15  C   UNL     1      32.885 -21.571 -18.902  0.00  0.00    +0.239 C 
BRANCH  15  16
ATOM     16  O   UNL     1      33.234 -21.388 -20.266  0.00  0.00    -0.472 OA
BRANCH  16  18
ATOM     17 CL   UNL     1      34.089 -16.629 -21.848  0.00  0.00    -0.082 Cl
ATOM     18  C   UNL     1      34.144 -20.402 -20.546  0.00  0.00    +0.140 C 
ATOM     19  C   UNL     1      33.700 -19.166 -21.000  0.00  0.00    +0.048 C 
ATOM     20  C   UNL     1      35.501 -20.651 -20.376  0.00  0.00    +0.037 C 
ATOM     21  C   UNL     1      34.627 -18.163 -21.286  0.00  0.00    +0.061 C 
ATOM     22  C   UNL     1      36.427 -19.648 -20.661  0.00  0.00    +0.004 C 
ATOM     23  C   UNL     1      35.991 -18.404 -21.116  0.00  0.00    +0.012 C 
ENDBRANCH  16  18
ENDBRANCH  15  16
ENDBRANCH  12  15
ENDBRANCH  11  12
ENDBRANCH   2  10
BRANCH   1  24
ATOM     24  C   UNL     1      32.950 -23.441 -13.609  0.00  0.00    +0.028 C 
BRANCH  24  25
ATOM     25  C   UNL     1      34.070 -24.151 -12.900  0.00  0.00    -0.031 C 
ATOM     26  C   UNL     1      35.377 -24.106 -13.201  0.00  0.00    -0.031 C 
BRANCH  26  27
ATOM     27  C   UNL     1      35.942 -23.305 -14.338  0.00  0.00    +0.026 C 
BRANCH  27  28
ATOM     28  C   UNL     1      36.637 -24.158 -15.407  0.00  0.00    +0.016 C 
BRANCH  28  29
ATOM     29  C   UNL     1      37.597 -25.208 -14.838  0.00  0.00    +0.110 C 
BRANCH  29  31
ATOM     30  O   UNL     1      36.770 -27.167 -16.026  0.00  0.00    -0.250 OA
ATOM     31  C   UNL     1      37.096 -26.629 -14.976  0.00  0.00    +0.314 C 
BRANCH  31  32
ATOM     32  O   UNL     1      37.003 -27.248 -13.770  0.00  0.00    -0.480 OA
ATOM     33  H   UNL     1      36.673 -26.781 -13.028  0.00  0.00    +0.295 HD
ENDBRANCH  31  32
ENDBRANCH  29  31
ENDBRANCH  28  29
ENDBRANCH  27  28
ENDBRANCH  26  27
ENDBRANCH  24  25
ENDBRANCH   1  24
TORSDOF 15
ENDMDL
MODEL 4
REMARK VINA RESULT:      -9.3      7.316     12.441
REMARK  Name = 5311053
REMARK  15 active torsions:
REMARK  status: ('A' for Active; 'I' for Inactive)
REMARK    1  A    between atoms: C_1  and  C_24
REMARK    2  A    between atoms: C_2  and  C_10
REMARK    3  A    between atoms: C_3  and  O_6
REMARK    4  A    between atoms: C_4  and  O_8
REMARK    5  A    between atoms: C_11  and  C_12
REMARK    6  A    between atoms: C_12  and  O_13
REMARK    7  A    between atoms: C_12  and  C_15
REMARK    8  A    between atoms: C_15  and  O_16
REMARK    9  A    between atoms: O_16  and  C_18
REMARK   10  A    between atoms: C_24  and  C_25
REMARK   11  A    between atoms: C_26  and  C_27
REMARK   12  A    between atoms: C_27  and  C_28
REMARK   13  A    between atoms: C_28  and  C_29
REMARK   14  A    between atoms: C_29  and  C_31
REMARK   15  A    between atoms: C_31  and  O_32
REMARK                            x       y       z     vdW  Elec       q    Type
REMARK                         _______ _______ _______ _____ _____    ______ ____
ROOT
ATOM      1  C   UNL     1      32.905 -14.042 -24.277  0.00  0.00    +0.038 C 
ATOM      2  C   UNL     1      34.113 -14.990 -24.199  0.00  0.00    +0.051 C 
ATOM      3  C   UNL     1      32.684 -13.919 -25.788  0.00  0.00    +0.114 C 
ATOM      4  C   UNL     1      33.854 -16.010 -25.322  0.00  0.00    +0.117 C 
ATOM      5  C   UNL     1      32.862 -15.350 -26.292  0.00  0.00    +0.059 C 
ENDROOT
BRANCH   3   6
ATOM      6  O   UNL     1      33.630 -13.056 -26.409  0.00  0.00    -0.384 OA
ATOM      7  H   UNL     1      34.528 -13.359 -26.202  0.00  0.00    +0.210 HD
ENDBRANCH   3   6
BRANCH   4   8
ATOM      8  O   UNL     1      35.066 -16.305 -26.005  0.00  0.00    -0.384 OA
ATOM      9  H   UNL     1      35.555 -16.987 -25.518  0.00  0.00    +0.210 HD
ENDBRANCH   4   8
BRANCH   2  10
ATOM     10  C   UNL     1      34.272 -15.648 -22.863  0.00  0.00    -0.026 C 
ATOM     11  C   UNL     1      34.964 -16.779 -22.667  0.00  0.00    +0.002 C 
BRANCH  11  12
ATOM     12  C   UNL     1      35.121 -17.439 -21.325  0.00  0.00    +0.176 C 
BRANCH  12  13
ATOM     13  O   UNL     1      35.076 -16.416 -20.334  0.00  0.00    -0.376 OA
ATOM     14  H   UNL     1      35.897 -15.899 -20.366  0.00  0.00    +0.211 HD
ENDBRANCH  12  13
BRANCH  12  15
ATOM     15  C   UNL     1      34.000 -18.441 -21.058  0.00  0.00    +0.239 C 
BRANCH  15  16
ATOM     16  O   UNL     1      34.434 -19.752 -21.387  0.00  0.00    -0.472 OA
BRANCH  16  18
ATOM     17 CL   UNL     1      32.995 -23.019 -17.762  0.00  0.00    -0.082 Cl
ATOM     18  C   UNL     1      34.796 -20.565 -20.345  0.00  0.00    +0.140 C 
ATOM     19  C   UNL     1      33.823 -21.290 -19.668  0.00  0.00    +0.048 C 
ATOM     20  C   UNL     1      36.133 -20.654 -19.975  0.00  0.00    +0.037 C 
ATOM     21  C   UNL     1      34.192 -22.117 -18.606  0.00  0.00    +0.061 C 
ATOM     22  C   UNL     1      36.502 -21.482 -18.915  0.00  0.00    +0.004 C 
ATOM     23  C   UNL     1      35.532 -22.213 -18.231  0.00  0.00    +0.012 C 
ENDBRANCH  16  18
ENDBRANCH  15  16
ENDBRANCH  12  15
ENDBRANCH  11  12
ENDBRANCH   2  10
BRANCH   1  24
ATOM     24  C   UNL     1      33.135 -12.706 -23.584  0.00  0.00    +0.028 C 
BRANCH  24  25
ATOM     25  C   UNL     1      32.303 -12.421 -22.365  0.00  0.00    -0.031 C 
ATOM     26  C   UNL     1      31.700 -11.266 -22.046  0.00  0.00    -0.031 C 
BRANCH  26  27
ATOM     27  C   UNL     1      31.767 -10.031 -22.897  0.00  0.00    +0.026 C 
BRANCH  27  28
ATOM     28  C   UNL     1      32.733  -8.965 -22.361  0.00  0.00    +0.016 C 
BRANCH  28  29
ATOM     29  C   UNL     1      32.077  -7.947 -21.422  0.00  0.00    +0.110 C 
BRANCH  29  31
ATOM     30  O   UNL     1      32.036  -9.096 -19.275  0.00  0.00    -0.250 OA
ATOM     31  C   UNL     1      32.417  -8.159 -19.962  0.00  0.00    +0.314 C 
BRANCH  31  32
ATOM     32  O   UNL     1      33.176  -7.144 -19.471  0.00  0.00    -0.480 OA
ATOM     33  H   UNL     1      33.642  -6.582 -20.058  0.00  0.00    +0.295 HD
ENDBRANCH  31  32
ENDBRANCH  29  31
ENDBRANCH  28  29
ENDBRANCH  27  28
ENDBRANCH  26  27
ENDBRANCH  24  25
ENDBRANCH   1  24
TORSDOF 15
ENDMDL
MODEL 5
REMARK VINA RESULT:      -9.2      5.622     10.343
REMARK  Name = 5311053
REMARK  15 active torsions:
REMARK  status: ('A' for Active; 'I' for Inactive)
REMARK    1  A    between atoms: C_1  and  C_24
REMARK    2  A    between atoms: C_2  and  C_10
REMARK    3  A    between atoms: C_3  and  O_6
REMARK    4  A    between atoms: C_4  and  O_8
REMARK    5  A    between atoms: C_11  and  C_12
REMARK    6  A    between atoms: C_12  and  O_13
REMARK    7  A    between atoms: C_12  and  C_15
REMARK    8  A    between atoms: C_15  and  O_16
REMARK    9  A    between atoms: O_16  and  C_18
REMARK   10  A    between atoms: C_24  and  C_25
REMARK   11  A    between atoms: C_26  and  C_27
REMARK   12  A    between atoms: C_27  and  C_28
REMARK   13  A    between atoms: C_28  and  C_29
REMARK   14  A    between atoms: C_29  and  C_31
REMARK   15  A    between atoms: C_31  and  O_32
REMARK                            x       y       z     vdW  Elec       q    Type
REMARK                         _______ _______ _______ _____ _____    ______ ____
ROOT
ATOM      1  C   UNL     1      34.001 -16.710 -22.404  0.00  0.00    +0.038 C 
ATOM      2  C   UNL     1      34.646 -18.093 -22.216  0.00  0.00    +0.051 C 
ATOM      3  C   UNL     1      34.468 -16.320 -23.810  0.00  0.00    +0.114 C 
ATOM      4  C   UNL     1      34.514 -18.752 -23.600  0.00  0.00    +0.117 C 
ATOM      5  C   UNL     1      34.306 -17.612 -24.609  0.00  0.00    +0.059 C 
ENDROOT
BRANCH   3   6
ATOM      6  O   UNL     1      35.824 -15.891 -23.835  0.00  0.00    -0.384 OA
ATOM      7  H   UNL     1      36.221 -16.124 -24.689  0.00  0.00    +0.210 HD
ENDBRANCH   3   6
BRANCH   4   8
ATOM      8  O   UNL     1      35.704 -19.463 -23.920  0.00  0.00    -0.384 OA
ATOM      9  H   UNL     1      36.382 -19.276 -23.252  0.00  0.00    +0.210 HD
ENDBRANCH   4   8
BRANCH   2  10
ATOM     10  C   UNL     1      34.006 -18.911 -21.137  0.00  0.00    -0.026 C 
ATOM     11  C   UNL     1      34.442 -20.121 -20.761  0.00  0.00    +0.002 C 
BRANCH  11  12
ATOM     12  C   UNL     1      33.796 -20.941 -19.679  0.00  0.00    +0.176 C 
BRANCH  12  13
ATOM     13  O   UNL     1      32.678 -21.611 -20.255  0.00  0.00    -0.376 OA
ATOM     14  H   UNL     1      32.694 -22.546 -19.998  0.00  0.00    +0.211 HD
ENDBRANCH  12  13
BRANCH  12  15
ATOM     15  C   UNL     1      34.760 -21.979 -19.109  0.00  0.00    +0.239 C 
BRANCH  15  16
ATOM     16  O   UNL     1      34.042 -23.130 -18.693  0.00  0.00    -0.472 OA
BRANCH  16  18
ATOM     17 CL   UNL     1      30.204 -23.183 -15.353  0.00  0.00    -0.082 Cl
ATOM     18  C   UNL     1      33.642 -23.172 -17.383  0.00  0.00    +0.140 C 
ATOM     19  C   UNL     1      32.286 -23.158 -17.077  0.00  0.00    +0.048 C 
ATOM     20  C   UNL     1      34.596 -23.226 -16.374  0.00  0.00    +0.037 C 
ATOM     21  C   UNL     1      31.879 -23.199 -15.743  0.00  0.00    +0.061 C 
ATOM     22  C   UNL     1      34.190 -23.269 -15.041  0.00  0.00    +0.004 C 
ATOM     23  C   UNL     1      32.832 -23.256 -14.725  0.00  0.00    +0.012 C 
ENDBRANCH  16  18
ENDBRANCH  15  16
ENDBRANCH  12  15
ENDBRANCH  11  12
ENDBRANCH   2  10
BRANCH   1  24
ATOM     24  C   UNL     1      34.396 -15.705 -21.331  0.00  0.00    +0.028 C 
BRANCH  24  25
ATOM     25  C   UNL     1      33.319 -15.275 -20.373  0.00  0.00    -0.031 C 
ATOM     26  C   UNL     1      32.470 -14.246 -20.515  0.00  0.00    -0.031 C 
BRANCH  26  27
ATOM     27  C   UNL     1      32.468 -13.328 -21.703  0.00  0.00    +0.026 C 
BRANCH  27  28
ATOM     28  C   UNL     1      31.616 -12.068 -21.506  0.00  0.00    +0.016 C 
BRANCH  28  29
ATOM     29  C   UNL     1      31.575 -11.562 -20.061  0.00  0.00    +0.110 C 
BRANCH  29  31
ATOM     30  O   UNL     1      32.290  -9.552 -18.886  0.00  0.00    -0.250 OA
ATOM     31  C   UNL     1      31.925 -10.097 -19.919  0.00  0.00    +0.314 C 
BRANCH  31  32
ATOM     32  O   UNL     1      31.744  -9.422 -21.085  0.00  0.00    -0.480 OA
ATOM     33  H   UNL     1      30.898  -9.401 -21.486  0.00  0.00    +0.295 HD
ENDBRANCH  31  32
ENDBRANCH  29  31
ENDBRANCH  28  29
ENDBRANCH  27  28
ENDBRANCH  26  27
ENDBRANCH  24  25
ENDBRANCH   1  24
TORSDOF 15
ENDMDL
MODEL 6
REMARK VINA RESULT:      -9.2      2.078      3.102
REMARK  Name = 5311053
REMARK  15 active torsions:
REMARK  status: ('A' for Active; 'I' for Inactive)
REMARK    1  A    between atoms: C_1  and  C_24
REMARK    2  A    between atoms: C_2  and  C_10
REMARK    3  A    between atoms: C_3  and  O_6
REMARK    4  A    between atoms: C_4  and  O_8
REMARK    5  A    between atoms: C_11  and  C_12
REMARK    6  A    between atoms: C_12  and  O_13
REMARK    7  A    between atoms: C_12  and  C_15
REMARK    8  A    between atoms: C_15  and  O_16
REMARK    9  A    between atoms: O_16  and  C_18
REMARK   10  A    between atoms: C_24  and  C_25
REMARK   11  A    between atoms: C_26  and  C_27
REMARK   12  A    between atoms: C_27  and  C_28
REMARK   13  A    between atoms: C_28  and  C_29
REMARK   14  A    between atoms: C_29  and  C_31
REMARK   15  A    between atoms: C_31  and  O_32
REMARK                            x       y       z     vdW  Elec       q    Type
REMARK                         _______ _______ _______ _____ _____    ______ ____
ROOT
ATOM      1  C   UNL     1      34.838 -23.140 -15.637  0.00  0.00    +0.038 C 
ATOM      2  C   UNL     1      36.203 -23.015 -16.333  0.00  0.00    +0.051 C 
ATOM      3  C   UNL     1      35.168 -24.018 -14.426  0.00  0.00    +0.114 C 
ATOM      4  C   UNL     1      37.200 -22.887 -15.168  0.00  0.00    +0.117 C 
ATOM      5  C   UNL     1      36.494 -23.448 -13.924  0.00  0.00    +0.059 C 
ENDROOT
BRANCH   3   6
ATOM      6  O   UNL     1      35.320 -25.389 -14.772  0.00  0.00    -0.384 OA
ATOM      7  H   UNL     1      35.989 -25.475 -15.468  0.00  0.00    +0.210 HD
ENDBRANCH   3   6
BRANCH   4   8
ATOM      8  O   UNL     1      38.370 -23.649 -15.439  0.00  0.00    -0.384 OA
ATOM      9  H   UNL     1      39.156 -23.127 -15.214  0.00  0.00    +0.210 HD
ENDBRANCH   4   8
BRANCH   2  10
ATOM     10  C   UNL     1      36.289 -21.858 -17.280  0.00  0.00    -0.026 C 
ATOM     11  C   UNL     1      36.095 -21.961 -18.602  0.00  0.00    +0.002 C 
BRANCH  11  12
ATOM     12  C   UNL     1      36.184 -20.798 -19.551  0.00  0.00    +0.176 C 
BRANCH  12  13
ATOM     13  O   UNL     1      37.132 -21.137 -20.560  0.00  0.00    -0.376 OA
ATOM     14  H   UNL     1      37.172 -20.424 -21.218  0.00  0.00    +0.211 HD
ENDBRANCH  12  13
BRANCH  12  15
ATOM     15  C   UNL     1      34.838 -20.507 -20.210  0.00  0.00    +0.239 C 
BRANCH  15  16
ATOM     16  O   UNL     1      35.022 -20.236 -21.591  0.00  0.00    -0.472 OA
BRANCH  16  18
ATOM     17 CL   UNL     1      34.760 -16.877 -25.404  0.00  0.00    -0.082 Cl
ATOM     18  C   UNL     1      34.946 -18.924 -21.981  0.00  0.00    +0.140 C 
ATOM     19  C   UNL     1      34.897 -18.611 -23.335  0.00  0.00    +0.048 C 
ATOM     20  C   UNL     1      34.920 -17.921 -21.020  0.00  0.00    +0.037 C 
ATOM     21  C   UNL     1      34.821 -17.276 -23.732  0.00  0.00    +0.061 C 
ATOM     22  C   UNL     1      34.842 -16.587 -21.417  0.00  0.00    +0.004 C 
ATOM     23  C   UNL     1      34.792 -16.264 -22.772  0.00  0.00    +0.012 C 
ENDBRANCH  16  18
ENDBRANCH  15  16
ENDBRANCH  12  15
ENDBRANCH  11  12
ENDBRANCH   2  10
BRANCH   1  24
ATOM     24  C   UNL     1      33.751 -23.720 -16.531  0.00  0.00    +0.028 C 
BRANCH  24  25
ATOM     25  C   UNL     1      32.638 -22.793 -16.936  0.00  0.00    -0.031 C 
ATOM     26  C   UNL     1      31.336 -22.907 -16.631  0.00  0.00    -0.031 C 
BRANCH  26  27
ATOM     27  C   UNL     1      30.771 -24.025 -15.804  0.00  0.00    +0.026 C 
BRANCH  27  28
ATOM     28  C   UNL     1      29.243 -23.978 -15.667  0.00  0.00    +0.016 C 
BRANCH  28  29
ATOM     29  C   UNL     1      28.647 -22.574 -15.812  0.00  0.00    +0.110 C 
BRANCH  29  31
ATOM     30  O   UNL     1      26.991 -21.456 -17.204  0.00  0.00    -0.250 OA
ATOM     31  C   UNL     1      27.676 -22.441 -16.965  0.00  0.00    +0.314 C 
BRANCH  31  32
ATOM     32  O   UNL     1      27.612 -23.582 -17.701  0.00  0.00    -0.480 OA
ATOM     33  H   UNL     1      27.229 -23.567 -18.556  0.00  0.00    +0.295 HD
ENDBRANCH  31  32
ENDBRANCH  29  31
ENDBRANCH  28  29
ENDBRANCH  27  28
ENDBRANCH  26  27
ENDBRANCH  24  25
ENDBRANCH   1  24
TORSDOF 15
ENDMDL
MODEL 7
REMARK VINA RESULT:      -9.2      5.239     10.484
REMARK  Name = 5311053
REMARK  15 active torsions:
REMARK  status: ('A' for Active; 'I' for Inactive)
REMARK    1  A    between atoms: C_1  and  C_24
REMARK    2  A    between atoms: C_2  and  C_10
REMARK    3  A    between atoms: C_3  and  O_6
REMARK    4  A    between atoms: C_4  and  O_8
REMARK    5  A    between atoms: C_11  and  C_12
REMARK    6  A    between atoms: C_12  and  O_13
REMARK    7  A    between atoms: C_12  and  C_15
REMARK    8  A    between atoms: C_15  and  O_16
REMARK    9  A    between atoms: O_16  and  C_18
REMARK   10  A    between atoms: C_24  and  C_25
REMARK   11  A    between atoms: C_26  and  C_27
REMARK   12  A    between atoms: C_27  and  C_28
REMARK   13  A    between atoms: C_28  and  C_29
REMARK   14  A    between atoms: C_29  and  C_31
REMARK   15  A    between atoms: C_31  and  O_32
REMARK                            x       y       z     vdW  Elec       q    Type
REMARK                         _______ _______ _______ _____ _____    ______ ____
ROOT
ATOM      1  C   UNL     1      33.934 -16.921 -22.442  0.00  0.00    +0.038 C 
ATOM      2  C   UNL     1      34.662 -18.241 -22.138  0.00  0.00    +0.051 C 
ATOM      3  C   UNL     1      34.524 -16.528 -23.799  0.00  0.00    +0.114 C 
ATOM      4  C   UNL     1      34.739 -18.942 -23.507  0.00  0.00    +0.117 C 
ATOM      5  C   UNL     1      34.556 -17.848 -24.569  0.00  0.00    +0.059 C 
ENDROOT
BRANCH   3   6
ATOM      6  O   UNL     1      35.836 -15.989 -23.689  0.00  0.00    -0.384 OA
ATOM      7  H   UNL     1      36.169 -15.765 -24.572  0.00  0.00    +0.210 HD
ENDBRANCH   3   6
BRANCH   4   8
ATOM      8  O   UNL     1      36.010 -19.559 -23.669  0.00  0.00    -0.384 OA
ATOM      9  H   UNL     1      36.541 -19.423 -22.870  0.00  0.00    +0.210 HD
ENDBRANCH   4   8
BRANCH   2  10
ATOM     10  C   UNL     1      33.971 -19.083 -21.110  0.00  0.00    -0.026 C 
ATOM     11  C   UNL     1      34.489 -20.207 -20.597  0.00  0.00    +0.002 C 
BRANCH  11  12
ATOM     12  C   UNL     1      33.793 -21.052 -19.566  0.00  0.00    +0.176 C 
BRANCH  12  13
ATOM     13  O   UNL     1      32.673 -21.667 -20.199  0.00  0.00    -0.376 OA
ATOM     14  H   UNL     1      31.913 -21.652 -19.596  0.00  0.00    +0.211 HD
ENDBRANCH  12  13
BRANCH  12  15
ATOM     15  C   UNL     1      34.713 -22.138 -19.015  0.00  0.00    +0.239 C 
BRANCH  15  16
ATOM     16  O   UNL     1      33.946 -23.253 -18.586  0.00  0.00    -0.472 OA
BRANCH  16  18
ATOM     17 CL   UNL     1      30.139 -23.083 -15.214  0.00  0.00    -0.082 Cl
ATOM     18  C   UNL     1      33.555 -23.268 -17.272  0.00  0.00    +0.140 C 
ATOM     19  C   UNL     1      32.204 -23.178 -16.955  0.00  0.00    +0.048 C 
ATOM     20  C   UNL     1      34.514 -23.371 -16.271  0.00  0.00    +0.037 C 
ATOM     21  C   UNL     1      31.808 -23.193 -15.618  0.00  0.00    +0.061 C 
ATOM     22  C   UNL     1      34.116 -23.387 -14.934  0.00  0.00    +0.004 C 
ATOM     23  C   UNL     1      32.764 -23.298 -14.607  0.00  0.00    +0.012 C 
ENDBRANCH  16  18
ENDBRANCH  15  16
ENDBRANCH  12  15
ENDBRANCH  11  12
ENDBRANCH   2  10
BRANCH   1  24
ATOM     24  C   UNL     1      34.125 -15.862 -21.365  0.00  0.00    +0.028 C 
BRANCH  24  25
ATOM     25  C   UNL     1      32.919 -15.042 -20.998  0.00  0.00    -0.031 C 
ATOM     26  C   UNL     1      32.472 -13.935 -21.613  0.00  0.00    -0.031 C 
BRANCH  26  27
ATOM     27  C   UNL     1      33.139 -13.324 -22.811  0.00  0.00    +0.026 C 
BRANCH  27  28
ATOM     28  C   UNL     1      32.602 -13.848 -24.149  0.00  0.00    +0.016 C 
BRANCH  28  29
ATOM     29  C   UNL     1      33.380 -13.347 -25.371  0.00  0.00    +0.110 C 
BRANCH  29  31
ATOM     30  O   UNL     1      32.810 -15.384 -26.577  0.00  0.00    -0.250 OA
ATOM     31  C   UNL     1      33.255 -14.245 -26.582  0.00  0.00    +0.314 C 
BRANCH  31  32
ATOM     32  O   UNL     1      33.745 -13.649 -27.701  0.00  0.00    -0.480 OA
ATOM     33  H   UNL     1      34.465 -14.034 -28.160  0.00  0.00    +0.295 HD
ENDBRANCH  31  32
ENDBRANCH  29  31
ENDBRANCH  28  29
ENDBRANCH  27  28
ENDBRANCH  26  27
ENDBRANCH  24  25
ENDBRANCH   1  24
TORSDOF 15
ENDMDL
MODEL 8
REMARK VINA RESULT:      -9.2      7.122     12.126
REMARK  Name = 5311053
REMARK  15 active torsions:
REMARK  status: ('A' for Active; 'I' for Inactive)
REMARK    1  A    between atoms: C_1  and  C_24
REMARK    2  A    between atoms: C_2  and  C_10
REMARK    3  A    between atoms: C_3  and  O_6
REMARK    4  A    between atoms: C_4  and  O_8
REMARK    5  A    between atoms: C_11  and  C_12
REMARK    6  A    between atoms: C_12  and  O_13
REMARK    7  A    between atoms: C_12  and  C_15
REMARK    8  A    between atoms: C_15  and  O_16
REMARK    9  A    between atoms: O_16  and  C_18
REMARK   10  A    between atoms: C_24  and  C_25
REMARK   11  A    between atoms: C_26  and  C_27
REMARK   12  A    between atoms: C_27  and  C_28
REMARK   13  A    between atoms: C_28  and  C_29
REMARK   14  A    between atoms: C_29  and  C_31
REMARK   15  A    between atoms: C_31  and  O_32
REMARK                            x       y       z     vdW  Elec       q    Type
REMARK                         _______ _______ _______ _____ _____    ______ ____
ROOT
ATOM      1  C   UNL     1      33.444 -13.359 -22.754  0.00  0.00    +0.038 C 
ATOM      2  C   UNL     1      32.994 -14.825 -22.649  0.00  0.00    +0.051 C 
ATOM      3  C   UNL     1      32.603 -12.680 -21.669  0.00  0.00    +0.114 C 
ATOM      4  C   UNL     1      32.830 -15.051 -21.135  0.00  0.00    +0.117 C 
ATOM      5  C   UNL     1      32.672 -13.662 -20.500  0.00  0.00    +0.059 C 
ENDROOT
BRANCH   3   6
ATOM      6  O   UNL     1      31.252 -12.483 -22.068  0.00  0.00    -0.384 OA
ATOM      7  H   UNL     1      30.683 -13.121 -21.611  0.00  0.00    +0.210 HD
ENDBRANCH   3   6
BRANCH   4   8
ATOM      8  O   UNL     1      31.666 -15.829 -20.880  0.00  0.00    -0.384 OA
ATOM      9  H   UNL     1      31.825 -16.410 -20.120  0.00  0.00    +0.210 HD
ENDBRANCH   4   8
BRANCH   2  10
ATOM     10  C   UNL     1      33.958 -15.792 -23.264  0.00  0.00    -0.026 C 
ATOM     11  C   UNL     1      34.308 -16.956 -22.699  0.00  0.00    +0.002 C 
BRANCH  11  12
ATOM     12  C   UNL     1      35.278 -17.925 -23.317  0.00  0.00    +0.176 C 
BRANCH  12  13
ATOM     13  O   UNL     1      36.569 -17.642 -22.784  0.00  0.00    -0.376 OA
ATOM     14  H   UNL     1      37.125 -17.251 -23.476  0.00  0.00    +0.211 HD
ENDBRANCH  12  13
BRANCH  12  15
ATOM     15  C   UNL     1      34.910 -19.371 -22.994  0.00  0.00    +0.239 C 
BRANCH  15  16
ATOM     16  O   UNL     1      34.122 -19.418 -21.814  0.00  0.00    -0.472 OA
BRANCH  16  18
ATOM     17 CL   UNL     1      32.964 -22.659 -18.066  0.00  0.00    -0.082 Cl
ATOM     18  C   UNL     1      34.564 -20.234 -20.805  0.00  0.00    +0.140 C 
ATOM     19  C   UNL     1      33.644 -20.945 -20.043  0.00  0.00    +0.048 C 
ATOM     20  C   UNL     1      35.926 -20.341 -20.555  0.00  0.00    +0.037 C 
ATOM     21  C   UNL     1      34.094 -21.775 -19.015  0.00  0.00    +0.061 C 
ATOM     22  C   UNL     1      36.376 -21.171 -19.528  0.00  0.00    +0.004 C 
ATOM     23  C   UNL     1      35.461 -21.888 -18.759  0.00  0.00    +0.012 C 
ENDBRANCH  16  18
ENDBRANCH  15  16
ENDBRANCH  12  15
ENDBRANCH  11  12
ENDBRANCH   2  10
BRANCH   1  24
ATOM     24  C   UNL     1      33.246 -12.761 -24.140  0.00  0.00    +0.028 C 
BRANCH  24  25
ATOM     25  C   UNL     1      34.171 -11.643 -24.537  0.00  0.00    -0.031 C 
ATOM     26  C   UNL     1      33.964 -10.326 -24.383  0.00  0.00    -0.031 C 
BRANCH  26  27
ATOM     27  C   UNL     1      32.725  -9.745 -23.767  0.00  0.00    +0.026 C 
BRANCH  27  28
ATOM     28  C   UNL     1      32.994  -8.922 -22.501  0.00  0.00    +0.016 C 
BRANCH  28  29
ATOM     29  C   UNL     1      31.887  -9.023 -21.446  0.00  0.00    +0.110 C 
BRANCH  29  31
ATOM     30  O   UNL     1      32.168  -9.631 -19.104  0.00  0.00    -0.250 OA
ATOM     31  C   UNL     1      32.383  -8.856 -20.026  0.00  0.00    +0.314 C 
BRANCH  31  32
ATOM     32  O   UNL     1      33.075  -7.696 -19.869  0.00  0.00    -0.480 OA
ATOM     33  H   UNL     1      33.951  -7.714 -19.540  0.00  0.00    +0.295 HD
ENDBRANCH  31  32
ENDBRANCH  29  31
ENDBRANCH  28  29
ENDBRANCH  27  28
ENDBRANCH  26  27
ENDBRANCH  24  25
ENDBRANCH   1  24
TORSDOF 15
ENDMDL
MODEL 9
REMARK VINA RESULT:      -9.1      7.512     11.660
REMARK  Name = 5311053
REMARK  15 active torsions:
REMARK  status: ('A' for Active; 'I' for Inactive)
REMARK    1  A    between atoms: C_1  and  C_24
REMARK    2  A    between atoms: C_2  and  C_10
REMARK    3  A    between atoms: C_3  and  O_6
REMARK    4  A    between atoms: C_4  and  O_8
REMARK    5  A    between atoms: C_11  and  C_12
REMARK    6  A    between atoms: C_12  and  O_13
REMARK    7  A    between atoms: C_12  and  C_15
REMARK    8  A    between atoms: C_15  and  O_16
REMARK    9  A    between atoms: O_16  and  C_18
REMARK   10  A    between atoms: C_24  and  C_25
REMARK   11  A    between atoms: C_26  and  C_27
REMARK   12  A    between atoms: C_27  and  C_28
REMARK   13  A    between atoms: C_28  and  C_29
REMARK   14  A    between atoms: C_29  and  C_31
REMARK   15  A    between atoms: C_31  and  O_32
REMARK                            x       y       z     vdW  Elec       q    Type
REMARK                         _______ _______ _______ _____ _____    ______ ____
ROOT
ATOM      1  C   UNL     1      34.220 -15.277 -21.990  0.00  0.00    +0.038 C 
ATOM      2  C   UNL     1      32.893 -14.648 -22.445  0.00  0.00    +0.051 C 
ATOM      3  C   UNL     1      34.847 -15.713 -23.317  0.00  0.00    +0.114 C 
ATOM      4  C   UNL     1      33.264 -13.904 -23.740  0.00  0.00    +0.117 C 
ATOM      5  C   UNL     1      34.572 -14.531 -24.246  0.00  0.00    +0.059 C 
ENDROOT
BRANCH   3   6
ATOM      6  O   UNL     1      34.256 -16.897 -23.838  0.00  0.00    -0.384 OA
ATOM      7  H   UNL     1      33.439 -17.091 -23.352  0.00  0.00    +0.210 HD
ENDBRANCH   3   6
BRANCH   4   8
ATOM      8  O   UNL     1      32.242 -14.077 -24.714  0.00  0.00    -0.384 OA
ATOM      9  H   UNL     1      31.414 -13.691 -24.387  0.00  0.00    +0.210 HD
ENDBRANCH   4   8
BRANCH   2  10
ATOM     10  C   UNL     1      32.281 -13.738 -21.425  0.00  0.00    -0.026 C 
ATOM     11  C   UNL     1      31.857 -12.495 -21.693  0.00  0.00    +0.002 C 
BRANCH  11  12
ATOM     12  C   UNL     1      31.245 -11.583 -20.667  0.00  0.00    +0.176 C 
BRANCH  12  13
ATOM     13  O   UNL     1      31.816 -11.912 -19.403  0.00  0.00    -0.376 OA
ATOM     14  H   UNL     1      32.224 -11.121 -19.018  0.00  0.00    +0.211 HD
ENDBRANCH  12  13
BRANCH  12  15
ATOM     15  C   UNL     1      31.533 -10.116 -20.978  0.00  0.00    +0.239 C 
BRANCH  15  16
ATOM     16  O   UNL     1      31.559  -9.914 -22.382  0.00  0.00    -0.472 OA
BRANCH  16  18
ATOM     17 CL   UNL     1      35.513 -10.289 -25.563  0.00  0.00    -0.082 Cl
ATOM     18  C   UNL     1      32.689  -9.340 -22.905  0.00  0.00    +0.140 C 
ATOM     19  C   UNL     1      33.434 -10.029 -23.855  0.00  0.00    +0.048 C 
ATOM     20  C   UNL     1      33.079  -8.076 -22.478  0.00  0.00    +0.037 C 
ATOM     21  C   UNL     1      34.585  -9.445 -24.386  0.00  0.00    +0.061 C 
ATOM     22  C   UNL     1      34.229  -7.492 -23.010  0.00  0.00    +0.004 C 
ATOM     23  C   UNL     1      34.981  -8.176 -23.964  0.00  0.00    +0.012 C 
ENDBRANCH  16  18
ENDBRANCH  15  16
ENDBRANCH  12  15
ENDBRANCH  11  12
ENDBRANCH   2  10
BRANCH   1  24
ATOM     24  C   UNL     1      34.043 -16.418 -20.997  0.00  0.00    +0.028 C 
BRANCH  24  25
ATOM     25  C   UNL     1      35.091 -17.496 -21.006  0.00  0.00    -0.031 C 
ATOM     26  C   UNL     1      34.890 -18.822 -21.053  0.00  0.00    -0.031 C 
BRANCH  26  27
ATOM     27  C   UNL     1      33.531 -19.456 -21.104  0.00  0.00    +0.026 C 
BRANCH  27  28
ATOM     28  C   UNL     1      33.374 -20.657 -20.162  0.00  0.00    +0.016 C 
BRANCH  28  29
ATOM     29  C   UNL     1      34.703 -21.257 -19.692  0.00  0.00    +0.110 C 
BRANCH  29  31
ATOM     30  O   UNL     1      33.759 -23.433 -19.138  0.00  0.00    -0.250 OA
ATOM     31  C   UNL     1      34.546 -22.530 -18.889  0.00  0.00    +0.314 C 
BRANCH  31  32
ATOM     32  O   UNL     1      35.365 -22.543 -17.804  0.00  0.00    -0.480 OA
ATOM     33  H   UNL     1      36.189 -22.099 -17.834  0.00  0.00    +0.295 HD
ENDBRANCH  31  32
ENDBRANCH  29  31
ENDBRANCH  28  29
ENDBRANCH  27  28
ENDBRANCH  26  27
ENDBRANCH  24  25
ENDBRANCH   1  24
TORSDOF 15
ENDMDL
