MODEL 1
REMARK VINA RESULT:      -5.1      0.000      0.000
REMARK  Name = 7966
REMARK  1 active torsions:
REMARK  status: ('A' for Active; 'I' for Inactive)
REMARK    1  A    between atoms: C_1  and  O_7
REMARK                            x       y       z     vdW  Elec       q    Type
REMARK                         _______ _______ _______ _____ _____    ______ ____
ROOT
ATOM      1  C   UNL     1      33.517 -21.723 -19.687  0.00  0.00    +0.111 C 
ATOM      2  C   UNL     1      33.027 -20.355 -20.162  0.00  0.00    +0.029 C 
ATOM      3  C   UNL     1      34.960 -21.661 -19.189  0.00  0.00    +0.029 C 
ATOM      4  C   UNL     1      33.957 -19.760 -21.213  0.00  0.00    +0.002 C 
ATOM      5  C   UNL     1      35.891 -21.065 -20.240  0.00  0.00    +0.002 C 
ATOM      6  C   UNL     1      35.400 -19.701 -20.717  0.00  0.00    +0.000 C 
ENDROOT
BRANCH   1   7
ATOM      7  O   UNL     1      32.672 -22.198 -18.644  0.00  0.00    -0.384 OA
ATOM      8  H   UNL     1      32.461 -23.132 -18.799  0.00  0.00    +0.210 HD
ENDBRANCH   1   7
TORSDOF 1
ENDMDL
MODEL 2
REMARK VINA RESULT:      -5.0      0.540      1.982
REMARK  Name = 7966
REMARK  1 active torsions:
REMARK  status: ('A' for Active; 'I' for Inactive)
REMARK    1  A    between atoms: C_1  and  O_7
REMARK                            x       y       z     vdW  Elec       q    Type
REMARK                         _______ _______ _______ _____ _____    ______ ____
ROOT
ATOM      1  C   UNL     1      33.651 -21.254 -19.401  0.00  0.00    +0.111 C 
ATOM      2  C   UNL     1      35.065 -21.709 -19.765  0.00  0.00    +0.029 C 
ATOM      3  C   UNL     1      33.006 -20.463 -20.538  0.00  0.00    +0.029 C 
ATOM      4  C   UNL     1      35.938 -20.537 -20.199  0.00  0.00    +0.002 C 
ATOM      5  C   UNL     1      33.879 -19.291 -20.973  0.00  0.00    +0.002 C 
ATOM      6  C   UNL     1      35.292 -19.745 -21.333  0.00  0.00    +0.000 C 
ENDROOT
BRANCH   1   7
ATOM      7  O   UNL     1      32.849 -22.388 -19.092  0.00  0.00    -0.384 OA
ATOM      8  H   UNL     1      32.073 -22.106 -18.581  0.00  0.00    +0.210 HD
ENDBRANCH   1   7
TORSDOF 1
ENDMDL
MODEL 3
REMARK VINA RESULT:      -4.9      2.191      3.440
REMARK  Name = 7966
REMARK  1 active torsions:
REMARK  status: ('A' for Active; 'I' for Inactive)
REMARK    1  A    between atoms: C_1  and  O_7
REMARK                            x       y       z     vdW  Elec       q    Type
REMARK                         _______ _______ _______ _____ _____    ______ ____
ROOT
ATOM      1  C   UNL     1      35.455 -19.877 -21.064  0.00  0.00    +0.111 C 
ATOM      2  C   UNL     1      35.756 -20.783 -19.869  0.00  0.00    +0.029 C 
ATOM      3  C   UNL     1      34.083 -19.217 -20.936  0.00  0.00    +0.029 C 
ATOM      4  C   UNL     1      34.655 -21.815 -19.655  0.00  0.00    +0.002 C 
ATOM      5  C   UNL     1      32.980 -20.250 -20.721  0.00  0.00    +0.002 C 
ATOM      6  C   UNL     1      33.284 -21.155 -19.530  0.00  0.00    +0.000 C 
ENDROOT
BRANCH   1   7
ATOM      7  O   UNL     1      36.459 -18.875 -21.169  0.00  0.00    -0.384 OA
ATOM      8  H   UNL     1      36.383 -18.260 -20.423  0.00  0.00    +0.210 HD
ENDBRANCH   1   7
TORSDOF 1
ENDMDL
MODEL 4
REMARK VINA RESULT:      -4.9      5.017      6.088
REMARK  Name = 7966
REMARK  1 active torsions:
REMARK  status: ('A' for Active; 'I' for Inactive)
REMARK    1  A    between atoms: C_1  and  O_7
REMARK                            x       y       z     vdW  Elec       q    Type
REMARK                         _______ _______ _______ _____ _____    ______ ____
ROOT
ATOM      1  C   UNL     1      34.809 -16.917 -25.067  0.00  0.00    +0.111 C 
ATOM      2  C   UNL     1      34.655 -16.261 -23.696  0.00  0.00    +0.029 C 
ATOM      3  C   UNL     1      34.280 -18.351 -25.067  0.00  0.00    +0.029 C 
ATOM      4  C   UNL     1      35.302 -17.097 -22.597  0.00  0.00    +0.002 C 
ATOM      5  C   UNL     1      34.927 -19.188 -23.967  0.00  0.00    +0.002 C 
ATOM      6  C   UNL     1      34.775 -18.530 -22.598  0.00  0.00    +0.000 C 
ENDROOT
BRANCH   1   7
ATOM      7  O   UNL     1      34.114 -16.152 -26.045  0.00  0.00    -0.384 OA
ATOM      8  H   UNL     1      34.565 -16.232 -26.900  0.00  0.00    +0.210 HD
ENDBRANCH   1   7
TORSDOF 1
ENDMDL
MODEL 5
REMARK VINA RESULT:      -4.8      2.103      2.855
REMARK  Name = 7966
REMARK  1 active torsions:
REMARK  status: ('A' for Active; 'I' for Inactive)
REMARK    1  A    between atoms: C_1  and  O_7
REMARK                            x       y       z     vdW  Elec       q    Type
REMARK                         _______ _______ _______ _____ _____    ______ ____
ROOT
ATOM      1  C   UNL     1      35.098 -19.574 -20.798  0.00  0.00    +0.111 C 
ATOM      2  C   UNL     1      33.622 -19.864 -21.067  0.00  0.00    +0.029 C 
ATOM      3  C   UNL     1      35.858 -20.842 -20.408  0.00  0.00    +0.029 C 
ATOM      4  C   UNL     1      32.965 -20.572 -19.887  0.00  0.00    +0.002 C 
ATOM      5  C   UNL     1      35.201 -21.550 -19.228  0.00  0.00    +0.002 C 
ATOM      6  C   UNL     1      33.725 -21.836 -19.496  0.00  0.00    +0.000 C 
ENDROOT
BRANCH   1   7
ATOM      7  O   UNL     1      35.691 -18.999 -21.956  0.00  0.00    -0.384 OA
ATOM      8  H   UNL     1      35.388 -18.083 -22.054  0.00  0.00    +0.210 HD
ENDBRANCH   1   7
TORSDOF 1
ENDMDL
MODEL 6
REMARK VINA RESULT:      -4.7      4.661      5.745
REMARK  Name = 7966
REMARK  1 active torsions:
REMARK  status: ('A' for Active; 'I' for Inactive)
REMARK    1  A    between atoms: C_1  and  O_7
REMARK                            x       y       z     vdW  Elec       q    Type
REMARK                         _______ _______ _______ _____ _____    ______ ____
ROOT
ATOM      1  C   UNL     1      34.468 -17.198 -24.471  0.00  0.00    +0.111 C 
ATOM      2  C   UNL     1      34.916 -18.633 -24.198  0.00  0.00    +0.029 C 
ATOM      3  C   UNL     1      35.089 -16.217 -23.477  0.00  0.00    +0.029 C 
ATOM      4  C   UNL     1      34.638 -19.044 -22.756  0.00  0.00    +0.002 C 
ATOM      5  C   UNL     1      34.812 -16.628 -22.034  0.00  0.00    +0.002 C 
ATOM      6  C   UNL     1      35.256 -18.063 -21.764  0.00  0.00    +0.000 C 
ENDROOT
BRANCH   1   7
ATOM      7  O   UNL     1      34.829 -16.827 -25.796  0.00  0.00    -0.384 OA
ATOM      8  H   UNL     1      34.089 -17.011 -26.397  0.00  0.00    +0.210 HD
ENDBRANCH   1   7
TORSDOF 1
ENDMDL
MODEL 7
REMARK VINA RESULT:      -4.7      3.760      4.643
REMARK  Name = 7966
REMARK  1 active torsions:
REMARK  status: ('A' for Active; 'I' for Inactive)
REMARK    1  A    between atoms: C_1  and  O_7
REMARK                            x       y       z     vdW  Elec       q    Type
REMARK                         _______ _______ _______ _____ _____    ______ ____
ROOT
ATOM      1  C   UNL     1      34.575 -16.881 -21.532  0.00  0.00    +0.111 C 
ATOM      2  C   UNL     1      35.138 -16.409 -22.873  0.00  0.00    +0.029 C 
ATOM      3  C   UNL     1      35.006 -18.312 -21.214  0.00  0.00    +0.029 C 
ATOM      4  C   UNL     1      34.778 -17.368 -24.002  0.00  0.00    +0.002 C 
ATOM      5  C   UNL     1      34.647 -19.272 -22.345  0.00  0.00    +0.002 C 
ATOM      6  C   UNL     1      35.207 -18.798 -23.683  0.00  0.00    +0.000 C 
ENDROOT
BRANCH   1   7
ATOM      7  O   UNL     1      35.011 -16.009 -20.496  0.00  0.00    -0.384 OA
ATOM      8  H   UNL     1      34.393 -15.266 -20.417  0.00  0.00    +0.210 HD
ENDBRANCH   1   7
TORSDOF 1
ENDMDL
MODEL 8
REMARK VINA RESULT:      -4.7      4.675      5.679
REMARK  Name = 7966
REMARK  1 active torsions:
REMARK  status: ('A' for Active; 'I' for Inactive)
REMARK    1  A    between atoms: C_1  and  O_7
REMARK                            x       y       z     vdW  Elec       q    Type
REMARK                         _______ _______ _______ _____ _____    ______ ____
ROOT
ATOM      1  C   UNL     1      34.520 -16.441 -23.433  0.00  0.00    +0.111 C 
ATOM      2  C   UNL     1      34.768 -16.925 -24.861  0.00  0.00    +0.029 C 
ATOM      3  C   UNL     1      35.165 -17.369 -22.404  0.00  0.00    +0.029 C 
ATOM      4  C   UNL     1      34.319 -18.370 -25.050  0.00  0.00    +0.002 C 
ATOM      5  C   UNL     1      34.715 -18.815 -22.593  0.00  0.00    +0.002 C 
ATOM      6  C   UNL     1      34.961 -19.297 -24.021  0.00  0.00    +0.000 C 
ENDROOT
BRANCH   1   7
ATOM      7  O   UNL     1      35.037 -15.124 -23.278  0.00  0.00    -0.384 OA
ATOM      8  H   UNL     1      35.079 -14.901 -22.335  0.00  0.00    +0.210 HD
ENDBRANCH   1   7
TORSDOF 1
ENDMDL
MODEL 9
REMARK VINA RESULT:      -4.6      4.194      5.286
REMARK  Name = 7966
REMARK  1 active torsions:
REMARK  status: ('A' for Active; 'I' for Inactive)
REMARK    1  A    between atoms: C_1  and  O_7
REMARK                            x       y       z     vdW  Elec       q    Type
REMARK                         _______ _______ _______ _____ _____    ______ ____
ROOT
ATOM      1  C   UNL     1      35.336 -16.612 -22.967  0.00  0.00    +0.111 C 
ATOM      2  C   UNL     1      34.802 -16.939 -21.573  0.00  0.00    +0.029 C 
ATOM      3  C   UNL     1      34.760 -17.553 -24.024  0.00  0.00    +0.029 C 
ATOM      4  C   UNL     1      35.037 -18.401 -21.210  0.00  0.00    +0.002 C 
ATOM      5  C   UNL     1      34.994 -19.016 -23.661  0.00  0.00    +0.002 C 
ATOM      6  C   UNL     1      34.464 -19.342 -22.267  0.00  0.00    +0.000 C 
ENDROOT
BRANCH   1   7
ATOM      7  O   UNL     1      35.013 -15.267 -23.299  0.00  0.00    -0.384 OA
ATOM      8  H   UNL     1      35.583 -14.967 -24.025  0.00  0.00    +0.210 HD
ENDBRANCH   1   7
TORSDOF 1
ENDMDL
