MODEL 1
REMARK VINA RESULT:      -7.2      0.000      0.000
REMARK  Name = 67874
REMARK  2 active torsions:
REMARK  status: ('A' for Active; 'I' for Inactive)
REMARK    1  A    between atoms: C_1  and  C_10
REMARK    2  A    between atoms: C_6  and  O_11
REMARK                            x       y       z     vdW  Elec       q    Type
REMARK                         _______ _______ _______ _____ _____    ______ ____
ROOT
ATOM      1  C   UNL     1      35.135 -19.579 -20.961  0.00  0.00    +0.072 C 
ATOM      2  C   UNL     1      33.746 -19.474 -21.004  0.00  0.00    +0.007 C 
ATOM      3  C   UNL     1      35.736 -20.600 -20.222  0.00  0.00    +0.007 C 
ATOM      4  C   UNL     1      32.955 -20.388 -20.307  0.00  0.00    +0.037 C 
ATOM      5  C   UNL     1      34.945 -21.514 -19.526  0.00  0.00    +0.037 C 
ATOM      6  C   UNL     1      33.555 -21.408 -19.569  0.00  0.00    +0.134 C 
ENDROOT
BRANCH   1  10
ATOM      7  F   UNL     1      37.309 -18.773 -21.466  0.00  0.00    -0.166 F 
ATOM      8  F   UNL     1      35.825 -18.692 -23.053  0.00  0.00    -0.166 F 
ATOM      9  F   UNL     1      35.685 -17.322 -21.361  0.00  0.00    -0.166 F 
ATOM     10  C   UNL     1      35.982 -18.602 -21.705  0.00  0.00    +0.419 C 
ENDBRANCH   1  10
BRANCH   6  11
ATOM     11  O   UNL     1      32.782 -22.299 -18.890  0.00  0.00    -0.506 OA
ATOM     12  H   UNL     1      32.060 -21.997 -18.376  0.00  0.00    +0.292 HD
ENDBRANCH   6  11
TORSDOF 2
ENDMDL
MODEL 2
REMARK VINA RESULT:      -7.2      0.029      1.457
REMARK  Name = 67874
REMARK  2 active torsions:
REMARK  status: ('A' for Active; 'I' for Inactive)
REMARK    1  A    between atoms: C_1  and  C_10
REMARK    2  A    between atoms: C_6  and  O_11
REMARK                            x       y       z     vdW  Elec       q    Type
REMARK                         _______ _______ _______ _____ _____    ______ ____
ROOT
ATOM      1  C   UNL     1      35.128 -19.584 -20.936  0.00  0.00    +0.072 C 
ATOM      2  C   UNL     1      35.723 -20.617 -20.215  0.00  0.00    +0.007 C 
ATOM      3  C   UNL     1      33.738 -19.463 -20.968  0.00  0.00    +0.007 C 
ATOM      4  C   UNL     1      34.929 -21.533 -19.525  0.00  0.00    +0.037 C 
ATOM      5  C   UNL     1      32.944 -20.379 -20.278  0.00  0.00    +0.037 C 
ATOM      6  C   UNL     1      33.539 -21.413 -19.556  0.00  0.00    +0.134 C 
ENDROOT
BRANCH   1  10
ATOM      7  F   UNL     1      37.304 -18.773 -21.430  0.00  0.00    -0.166 F 
ATOM      8  F   UNL     1      35.827 -18.693 -23.024  0.00  0.00    -0.166 F 
ATOM      9  F   UNL     1      35.676 -17.325 -21.331  0.00  0.00    -0.166 F 
ATOM     10  C   UNL     1      35.977 -18.604 -21.675  0.00  0.00    +0.419 C 
ENDBRANCH   1  10
BRANCH   6  11
ATOM     11  O   UNL     1      32.765 -22.307 -18.882  0.00  0.00    -0.506 OA
ATOM     12  H   UNL     1      32.480 -23.093 -19.305  0.00  0.00    +0.292 HD
ENDBRANCH   6  11
TORSDOF 2
ENDMDL
MODEL 3
REMARK VINA RESULT:      -6.6      3.755      4.609
REMARK  Name = 67874
REMARK  2 active torsions:
REMARK  status: ('A' for Active; 'I' for Inactive)
REMARK    1  A    between atoms: C_1  and  C_10
REMARK    2  A    between atoms: C_6  and  O_11
REMARK                            x       y       z     vdW  Elec       q    Type
REMARK                         _______ _______ _______ _____ _____    ______ ____
ROOT
ATOM      1  C   UNL     1      34.131 -21.285 -19.629  0.00  0.00    +0.072 C 
ATOM      2  C   UNL     1      35.427 -20.920 -19.987  0.00  0.00    +0.007 C 
ATOM      3  C   UNL     1      33.042 -20.559 -20.112  0.00  0.00    +0.007 C 
ATOM      4  C   UNL     1      35.637 -19.827 -20.827  0.00  0.00    +0.037 C 
ATOM      5  C   UNL     1      33.251 -19.466 -20.953  0.00  0.00    +0.037 C 
ATOM      6  C   UNL     1      34.549 -19.100 -21.311  0.00  0.00    +0.134 C 
ENDROOT
BRANCH   1  10
ATOM      7  F   UNL     1      32.710 -22.394 -18.084  0.00  0.00    -0.166 F 
ATOM      8  F   UNL     1      33.917 -23.639 -19.395  0.00  0.00    -0.166 F 
ATOM      9  F   UNL     1      34.863 -22.535 -17.768  0.00  0.00    -0.166 F 
ATOM     10  C   UNL     1      33.905 -22.454 -18.729  0.00  0.00    +0.419 C 
ENDBRANCH   1  10
BRANCH   6  11
ATOM     11  O   UNL     1      34.754 -18.034 -22.132  0.00  0.00    -0.506 OA
ATOM     12  H   UNL     1      34.364 -18.017 -22.984  0.00  0.00    +0.292 HD
ENDBRANCH   6  11
TORSDOF 2
ENDMDL
MODEL 4
REMARK VINA RESULT:      -6.6      3.857      5.093
REMARK  Name = 67874
REMARK  2 active torsions:
REMARK  status: ('A' for Active; 'I' for Inactive)
REMARK    1  A    between atoms: C_1  and  C_10
REMARK    2  A    between atoms: C_6  and  O_11
REMARK                            x       y       z     vdW  Elec       q    Type
REMARK                         _______ _______ _______ _____ _____    ______ ____
ROOT
ATOM      1  C   UNL     1      35.338 -17.833 -22.898  0.00  0.00    +0.072 C 
ATOM      2  C   UNL     1      35.136 -16.454 -22.900  0.00  0.00    +0.007 C 
ATOM      3  C   UNL     1      35.004 -18.590 -24.022  0.00  0.00    +0.007 C 
ATOM      4  C   UNL     1      34.599 -15.830 -24.025  0.00  0.00    +0.037 C 
ATOM      5  C   UNL     1      34.466 -17.965 -25.147  0.00  0.00    +0.037 C 
ATOM      6  C   UNL     1      34.265 -16.585 -25.149  0.00  0.00    +0.134 C 
ENDROOT
BRANCH   1  10
ATOM      7  F   UNL     1      37.261 -18.652 -21.774  0.00  0.00    -0.166 F 
ATOM      8  F   UNL     1      35.674 -17.813 -20.547  0.00  0.00    -0.166 F 
ATOM      9  F   UNL     1      35.392 -19.745 -21.519  0.00  0.00    -0.166 F 
ATOM     10  C   UNL     1      35.912 -18.503 -21.694  0.00  0.00    +0.419 C 
ENDBRANCH   1  10
BRANCH   6  11
ATOM     11  O   UNL     1      33.741 -15.974 -26.247  0.00  0.00    -0.506 OA
ATOM     12  H   UNL     1      32.849 -16.131 -26.489  0.00  0.00    +0.292 HD
ENDBRANCH   6  11
TORSDOF 2
ENDMDL
MODEL 5
REMARK VINA RESULT:      -6.6      3.884      5.134
REMARK  Name = 67874
REMARK  2 active torsions:
REMARK  status: ('A' for Active; 'I' for Inactive)
REMARK    1  A    between atoms: C_1  and  C_10
REMARK    2  A    between atoms: C_6  and  O_11
REMARK                            x       y       z     vdW  Elec       q    Type
REMARK                         _______ _______ _______ _____ _____    ______ ____
ROOT
ATOM      1  C   UNL     1      35.301 -17.783 -22.896  0.00  0.00    +0.072 C 
ATOM      2  C   UNL     1      35.011 -18.526 -24.039  0.00  0.00    +0.007 C 
ATOM      3  C   UNL     1      35.068 -16.407 -22.880  0.00  0.00    +0.007 C 
ATOM      4  C   UNL     1      34.489 -17.894 -25.168  0.00  0.00    +0.037 C 
ATOM      5  C   UNL     1      34.546 -15.775 -24.009  0.00  0.00    +0.037 C 
ATOM      6  C   UNL     1      34.256 -16.520 -25.152  0.00  0.00    +0.134 C 
ENDROOT
BRANCH   1  10
ATOM      7  F   UNL     1      35.326 -19.690 -21.484  0.00  0.00    -0.166 F 
ATOM      8  F   UNL     1      37.206 -18.635 -21.763  0.00  0.00    -0.166 F 
ATOM      9  F   UNL     1      35.623 -17.738 -20.561  0.00  0.00    -0.166 F 
ATOM     10  C   UNL     1      35.860 -18.457 -21.688  0.00  0.00    +0.419 C 
ENDBRANCH   1  10
BRANCH   6  11
ATOM     11  O   UNL     1      33.746 -15.904 -26.254  0.00  0.00    -0.506 OA
ATOM     12  H   UNL     1      33.385 -16.416 -26.951  0.00  0.00    +0.292 HD
ENDBRANCH   6  11
TORSDOF 2
ENDMDL
MODEL 6
REMARK VINA RESULT:      -6.5      4.168      5.341
REMARK  Name = 67874
REMARK  2 active torsions:
REMARK  status: ('A' for Active; 'I' for Inactive)
REMARK    1  A    between atoms: C_1  and  C_10
REMARK    2  A    between atoms: C_6  and  O_11
REMARK                            x       y       z     vdW  Elec       q    Type
REMARK                         _______ _______ _______ _____ _____    ______ ____
ROOT
ATOM      1  C   UNL     1      34.736 -17.094 -22.677  0.00  0.00    +0.072 C 
ATOM      2  C   UNL     1      34.151 -15.836 -22.805  0.00  0.00    +0.007 C 
ATOM      3  C   UNL     1      34.978 -17.870 -23.811  0.00  0.00    +0.007 C 
ATOM      4  C   UNL     1      33.805 -15.352 -24.067  0.00  0.00    +0.037 C 
ATOM      5  C   UNL     1      34.632 -17.387 -25.073  0.00  0.00    +0.037 C 
ATOM      6  C   UNL     1      34.046 -16.127 -25.201  0.00  0.00    +0.134 C 
ENDROOT
BRANCH   1  10
ATOM      7  F   UNL     1      34.212 -18.520 -20.854  0.00  0.00    -0.166 F 
ATOM      8  F   UNL     1      36.316 -18.232 -21.318  0.00  0.00    -0.166 F 
ATOM      9  F   UNL     1      35.171 -16.613 -20.410  0.00  0.00    -0.166 F 
ATOM     10  C   UNL     1      35.106 -17.612 -21.328  0.00  0.00    +0.419 C 
ENDBRANCH   1  10
BRANCH   6  11
ATOM     11  O   UNL     1      33.709 -15.654 -26.431  0.00  0.00    -0.506 OA
ATOM     12  H   UNL     1      32.943 -15.978 -26.864  0.00  0.00    +0.292 HD
ENDBRANCH   6  11
TORSDOF 2
ENDMDL
MODEL 7
REMARK VINA RESULT:      -6.3      3.928      5.136
REMARK  Name = 67874
REMARK  2 active torsions:
REMARK  status: ('A' for Active; 'I' for Inactive)
REMARK    1  A    between atoms: C_1  and  C_10
REMARK    2  A    between atoms: C_6  and  O_11
REMARK                            x       y       z     vdW  Elec       q    Type
REMARK                         _______ _______ _______ _____ _____    ______ ____
ROOT
ATOM      1  C   UNL     1      34.951 -17.370 -21.820  0.00  0.00    +0.072 C 
ATOM      2  C   UNL     1      34.657 -16.373 -20.891  0.00  0.00    +0.007 C 
ATOM      3  C   UNL     1      35.023 -17.059 -23.178  0.00  0.00    +0.007 C 
ATOM      4  C   UNL     1      34.433 -15.065 -21.319  0.00  0.00    +0.037 C 
ATOM      5  C   UNL     1      34.799 -15.750 -23.607  0.00  0.00    +0.037 C 
ATOM      6  C   UNL     1      34.505 -14.753 -22.677  0.00  0.00    +0.134 C 
ENDROOT
BRANCH   1  10
ATOM      7  F   UNL     1      36.377 -18.914 -20.718  0.00  0.00    -0.166 F 
ATOM      8  F   UNL     1      34.234 -19.210 -20.501  0.00  0.00    -0.166 F 
ATOM      9  F   UNL     1      35.205 -19.639 -22.407  0.00  0.00    -0.166 F 
ATOM     10  C   UNL     1      35.189 -18.770 -21.363  0.00  0.00    +0.419 C 
ENDBRANCH   1  10
BRANCH   6  11
ATOM     11  O   UNL     1      34.287 -13.476 -23.093  0.00  0.00    -0.506 OA
ATOM     12  H   UNL     1      34.221 -12.783 -22.466  0.00  0.00    +0.292 HD
ENDBRANCH   6  11
TORSDOF 2
ENDMDL
MODEL 8
REMARK VINA RESULT:      -6.3      3.943      5.150
REMARK  Name = 67874
REMARK  2 active torsions:
REMARK  status: ('A' for Active; 'I' for Inactive)
REMARK    1  A    between atoms: C_1  and  C_10
REMARK    2  A    between atoms: C_6  and  O_11
REMARK                            x       y       z     vdW  Elec       q    Type
REMARK                         _______ _______ _______ _____ _____    ______ ____
ROOT
ATOM      1  C   UNL     1      34.947 -17.342 -21.846  0.00  0.00    +0.072 C 
ATOM      2  C   UNL     1      34.995 -17.028 -23.203  0.00  0.00    +0.007 C 
ATOM      3  C   UNL     1      34.669 -16.347 -20.908  0.00  0.00    +0.007 C 
ATOM      4  C   UNL     1      34.768 -15.717 -23.624  0.00  0.00    +0.037 C 
ATOM      5  C   UNL     1      34.442 -15.036 -21.329  0.00  0.00    +0.037 C 
ATOM      6  C   UNL     1      34.490 -14.722 -22.687  0.00  0.00    +0.134 C 
ENDROOT
BRANCH   1  10
ATOM      7  F   UNL     1      35.177 -19.633 -22.423  0.00  0.00    -0.166 F 
ATOM      8  F   UNL     1      36.393 -18.894 -20.779  0.00  0.00    -0.166 F 
ATOM      9  F   UNL     1      34.244 -19.154 -20.511  0.00  0.00    -0.166 F 
ATOM     10  C   UNL     1      35.190 -18.743 -21.395  0.00  0.00    +0.419 C 
ENDBRANCH   1  10
BRANCH   6  11
ATOM     11  O   UNL     1      34.268 -13.444 -23.099  0.00  0.00    -0.506 OA
ATOM     12  H   UNL     1      34.990 -12.862 -23.230  0.00  0.00    +0.292 HD
ENDBRANCH   6  11
TORSDOF 2
ENDMDL
MODEL 9
REMARK VINA RESULT:      -6.1      8.106      9.032
REMARK  Name = 67874
REMARK  2 active torsions:
REMARK  status: ('A' for Active; 'I' for Inactive)
REMARK    1  A    between atoms: C_1  and  C_10
REMARK    2  A    between atoms: C_6  and  O_11
REMARK                            x       y       z     vdW  Elec       q    Type
REMARK                         _______ _______ _______ _____ _____    ______ ____
ROOT
ATOM      1  C   UNL     1      29.456 -23.613 -15.446  0.00  0.00    +0.072 C 
ATOM      2  C   UNL     1      29.507 -24.959 -15.088  0.00  0.00    +0.007 C 
ATOM      3  C   UNL     1      30.466 -22.742 -15.035  0.00  0.00    +0.007 C 
ATOM      4  C   UNL     1      30.568 -25.436 -14.317  0.00  0.00    +0.037 C 
ATOM      5  C   UNL     1      31.526 -23.219 -14.264  0.00  0.00    +0.037 C 
ATOM      6  C   UNL     1      31.577 -24.566 -13.906  0.00  0.00    +0.134 C 
ENDROOT
BRANCH   1  10
ATOM      7  F   UNL     1      27.872 -24.020 -17.166  0.00  0.00    -0.166 F 
ATOM      8  F   UNL     1      27.246 -22.747 -15.518  0.00  0.00    -0.166 F 
ATOM      9  F   UNL     1      28.680 -22.003 -16.983  0.00  0.00    -0.166 F 
ATOM     10  C   UNL     1      28.322 -23.102 -16.270  0.00  0.00    +0.419 C 
ENDBRANCH   1  10
BRANCH   6  11
ATOM     11  O   UNL     1      32.612 -25.032 -13.155  0.00  0.00    -0.506 OA
ATOM     12  H   UNL     1      32.450 -25.385 -12.302  0.00  0.00    +0.292 HD
ENDBRANCH   6  11
TORSDOF 2
ENDMDL
