MODEL 1
REMARK VINA RESULT:      -8.4      0.000      0.000
REMARK  Name = 3830
REMARK  2 active torsions:
REMARK  status: ('A' for Active; 'I' for Inactive)
REMARK    1  A    between atoms: N_1  and  C_14
REMARK    2  A    between atoms: C_14  and  C_16
REMARK                            x       y       z     vdW  Elec       q    Type
REMARK                         _______ _______ _______ _____ _____    ______ ____
ROOT
ATOM      1  N   UNL     1      35.327 -17.251 -21.829  0.00  0.00    -0.314 N 
ATOM      2  N   UNL     1      34.020 -14.648 -22.824  0.00  0.00    -0.270 NA
ATOM      3  N   UNL     1      35.031 -17.943 -24.106  0.00  0.00    -0.232 NA
ATOM      4  N   UNL     1      33.353 -14.314 -24.923  0.00  0.00    -0.307 N 
ATOM      5  N   UNL     1      34.017 -16.489 -25.781  0.00  0.00    -0.232 NA
ATOM      6  C   UNL     1      34.318 -15.800 -23.494  0.00  0.00    +0.164 C 
ATOM      7  C   UNL     1      34.895 -17.004 -23.143  0.00  0.00    +0.124 C 
ATOM      8  C   UNL     1      33.894 -15.567 -24.796  0.00  0.00    +0.125 C 
ATOM      9  C   UNL     1      33.445 -13.788 -23.720  0.00  0.00    +0.163 C 
ATOM     10  C   UNL     1      34.591 -17.632 -25.348  0.00  0.00    +0.252 C 
ATOM     11  H   UNL     1      35.210 -16.543 -21.156  0.00  0.00    +0.148 HD
ATOM     12  H   UNL     1      34.189 -14.469 -21.870  0.00  0.00    +0.126 HD
ATOM     13  H   UNL     1      32.980 -13.899 -25.734  0.00  0.00    +0.149 HD
ENDROOT
BRANCH   1  14
ATOM     14  C   UNL     1      35.930 -18.487 -21.423  0.00  0.00    +0.154 C 
BRANCH  14  16
ATOM     15  O   UNL     1      35.430 -20.414 -20.078  0.00  0.00    -0.453 OA
ATOM     16  C   UNL     1      34.918 -19.443 -20.852  0.00  0.00    +0.143 C 
ATOM     17  C   UNL     1      33.574 -19.513 -20.968  0.00  0.00    +0.038 C 
ATOM     18  C   UNL     1      33.197 -20.636 -20.194  0.00  0.00    +0.043 C 
ATOM     19  C   UNL     1      34.362 -21.149 -19.673  0.00  0.00    +0.179 C 
ENDBRANCH  14  16
ENDBRANCH   1  14
TORSDOF 2
ENDMDL
MODEL 2
REMARK VINA RESULT:      -8.2      6.392      9.429
REMARK  Name = 3830
REMARK  2 active torsions:
REMARK  status: ('A' for Active; 'I' for Inactive)
REMARK    1  A    between atoms: N_1  and  C_14
REMARK    2  A    between atoms: C_14  and  C_16
REMARK                            x       y       z     vdW  Elec       q    Type
REMARK                         _______ _______ _______ _____ _____    ______ ____
ROOT
ATOM      1  N   UNL     1      32.155 -22.533 -18.029  0.00  0.00    -0.314 N 
ATOM      2  N   UNL     1      29.226 -22.563 -17.084  0.00  0.00    -0.270 NA
ATOM      3  N   UNL     1      32.587 -23.348 -15.816  0.00  0.00    -0.232 NA
ATOM      4  N   UNL     1      28.581 -23.206 -15.050  0.00  0.00    -0.307 N 
ATOM      5  N   UNL     1      30.798 -23.727 -14.201  0.00  0.00    -0.232 NA
ATOM      6  C   UNL     1      30.371 -22.910 -16.425  0.00  0.00    +0.164 C 
ATOM      7  C   UNL     1      31.710 -22.931 -16.757  0.00  0.00    +0.124 C 
ATOM      8  C   UNL     1      29.944 -23.306 -15.164  0.00  0.00    +0.125 C 
ATOM      9  C   UNL     1      28.181 -22.757 -16.221  0.00  0.00    +0.163 C 
ATOM     10  C   UNL     1      32.085 -23.716 -14.613  0.00  0.00    +0.252 C 
ATOM     11  H   UNL     1      31.486 -22.236 -18.687  0.00  0.00    +0.148 HD
ATOM     12  H   UNL     1      29.163 -22.234 -18.010  0.00  0.00    +0.126 HD
ATOM     13  H   UNL     1      28.025 -23.421 -14.266  0.00  0.00    +0.149 HD
ENDROOT
BRANCH   1  14
ATOM     14  C   UNL     1      33.536 -22.540 -18.414  0.00  0.00    +0.154 C 
BRANCH  14  16
ATOM     15  O   UNL     1      32.769 -20.816 -19.901  0.00  0.00    -0.453 OA
ATOM     16  C   UNL     1      33.843 -21.459 -19.415  0.00  0.00    +0.143 C 
ATOM     17  C   UNL     1      35.009 -21.003 -19.923  0.00  0.00    +0.038 C 
ATOM     18  C   UNL     1      34.639 -19.972 -20.820  0.00  0.00    +0.043 C 
ATOM     19  C   UNL     1      33.266 -19.897 -20.770  0.00  0.00    +0.179 C 
ENDBRANCH  14  16
ENDBRANCH   1  14
TORSDOF 2
ENDMDL
MODEL 3
REMARK VINA RESULT:      -8.2      5.971      9.100
REMARK  Name = 3830
REMARK  2 active torsions:
REMARK  status: ('A' for Active; 'I' for Inactive)
REMARK    1  A    between atoms: N_1  and  C_14
REMARK    2  A    between atoms: C_14  and  C_16
REMARK                            x       y       z     vdW  Elec       q    Type
REMARK                         _______ _______ _______ _____ _____    ______ ____
ROOT
ATOM      1  N   UNL     1      32.583 -22.402 -18.392  0.00  0.00    -0.314 N 
ATOM      2  N   UNL     1      29.850 -22.539 -16.984  0.00  0.00    -0.270 NA
ATOM      3  N   UNL     1      33.387 -23.297 -16.318  0.00  0.00    -0.232 NA
ATOM      4  N   UNL     1      29.559 -23.279 -14.902  0.00  0.00    -0.307 N 
ATOM      5  N   UNL     1      31.893 -23.783 -14.451  0.00  0.00    -0.232 NA
ATOM      6  C   UNL     1      31.093 -22.885 -16.537  0.00  0.00    +0.164 C 
ATOM      7  C   UNL     1      32.361 -22.862 -17.083  0.00  0.00    +0.124 C 
ATOM      8  C   UNL     1      30.886 -23.342 -15.242  0.00  0.00    +0.125 C 
ATOM      9  C   UNL     1      28.964 -22.793 -15.971  0.00  0.00    +0.163 C 
ATOM     10  C   UNL     1      33.094 -23.725 -15.067  0.00  0.00    +0.252 C 
ATOM     11  H   UNL     1      31.811 -22.094 -18.919  0.00  0.00    +0.148 HD
ATOM     12  H   UNL     1      29.631 -22.174 -17.872  0.00  0.00    +0.126 HD
ATOM     13  H   UNL     1      29.143 -23.539 -14.049  0.00  0.00    +0.149 HD
ENDROOT
BRANCH   1  14
ATOM     14  C   UNL     1      33.883 -22.362 -18.997  0.00  0.00    +0.154 C 
BRANCH  14  16
ATOM     15  O   UNL     1      35.342 -20.833 -20.141  0.00  0.00    -0.453 OA
ATOM     16  C   UNL     1      34.066 -21.133 -19.848  0.00  0.00    +0.143 C 
ATOM     17  C   UNL     1      33.181 -20.263 -20.383  0.00  0.00    +0.038 C 
ATOM     18  C   UNL     1      33.972 -19.319 -21.082  0.00  0.00    +0.043 C 
ATOM     19  C   UNL     1      35.279 -19.711 -20.904  0.00  0.00    +0.179 C 
ENDBRANCH  14  16
ENDBRANCH   1  14
TORSDOF 2
ENDMDL
MODEL 4
REMARK VINA RESULT:      -8.1      0.962      2.090
REMARK  Name = 3830
REMARK  2 active torsions:
REMARK  status: ('A' for Active; 'I' for Inactive)
REMARK    1  A    between atoms: N_1  and  C_14
REMARK    2  A    between atoms: C_14  and  C_16
REMARK                            x       y       z     vdW  Elec       q    Type
REMARK                         _______ _______ _______ _____ _____    ______ ____
ROOT
ATOM      1  N   UNL     1      35.429 -17.706 -23.116  0.00  0.00    -0.314 N 
ATOM      2  N   UNL     1      33.976 -16.374 -25.479  0.00  0.00    -0.270 NA
ATOM      3  N   UNL     1      34.851 -15.678 -21.976  0.00  0.00    -0.232 NA
ATOM      4  N   UNL     1      33.040 -14.354 -25.386  0.00  0.00    -0.307 N 
ATOM      5  N   UNL     1      33.613 -13.884 -23.071  0.00  0.00    -0.232 NA
ATOM      6  C   UNL     1      34.197 -15.922 -24.210  0.00  0.00    +0.164 C 
ATOM      7  C   UNL     1      34.828 -16.437 -23.095  0.00  0.00    +0.124 C 
ATOM      8  C   UNL     1      33.606 -14.666 -24.176  0.00  0.00    +0.125 C 
ATOM      9  C   UNL     1      33.280 -15.401 -26.146  0.00  0.00    +0.163 C 
ATOM     10  C   UNL     1      34.250 -14.466 -22.031  0.00  0.00    +0.252 C 
ATOM     11  H   UNL     1      35.393 -18.229 -23.950  0.00  0.00    +0.148 HD
ATOM     12  H   UNL     1      34.265 -17.241 -25.848  0.00  0.00    +0.126 HD
ATOM     13  H   UNL     1      32.561 -13.530 -25.631  0.00  0.00    +0.149 HD
ENDROOT
BRANCH   1  14
ATOM     14  C   UNL     1      36.094 -18.277 -21.981  0.00  0.00    +0.154 C 
BRANCH  14  16
ATOM     15  O   UNL     1      35.852 -20.067 -20.397  0.00  0.00    -0.453 OA
ATOM     16  C   UNL     1      35.209 -19.245 -21.242  0.00  0.00    +0.143 C 
ATOM     17  C   UNL     1      33.874 -19.447 -21.264  0.00  0.00    +0.038 C 
ATOM     18  C   UNL     1      33.647 -20.499 -20.345  0.00  0.00    +0.043 C 
ATOM     19  C   UNL     1      34.882 -20.841 -19.844  0.00  0.00    +0.179 C 
ENDBRANCH  14  16
ENDBRANCH   1  14
TORSDOF 2
ENDMDL
MODEL 5
REMARK VINA RESULT:      -8.1      4.518      6.843
REMARK  Name = 3830
REMARK  2 active torsions:
REMARK  status: ('A' for Active; 'I' for Inactive)
REMARK    1  A    between atoms: N_1  and  C_14
REMARK    2  A    between atoms: C_14  and  C_16
REMARK                            x       y       z     vdW  Elec       q    Type
REMARK                         _______ _______ _______ _____ _____    ______ ____
ROOT
ATOM      1  N   UNL     1      32.753 -22.474 -18.309  0.00  0.00    -0.314 N 
ATOM      2  N   UNL     1      32.948 -20.435 -20.606  0.00  0.00    -0.270 NA
ATOM      3  N   UNL     1      35.139 -22.242 -18.271  0.00  0.00    -0.232 NA
ATOM      4  N   UNL     1      34.864 -19.572 -21.346  0.00  0.00    -0.307 N 
ATOM      5  N   UNL     1      36.322 -20.762 -19.807  0.00  0.00    -0.232 NA
ATOM      6  C   UNL     1      33.927 -20.999 -19.840  0.00  0.00    +0.164 C 
ATOM      7  C   UNL     1      33.941 -21.909 -18.802  0.00  0.00    +0.124 C 
ATOM      8  C   UNL     1      35.108 -20.447 -20.318  0.00  0.00    +0.125 C 
ATOM      9  C   UNL     1      33.556 -19.588 -21.493  0.00  0.00    +0.163 C 
ATOM     10  C   UNL     1      36.240 -21.656 -18.798  0.00  0.00    +0.252 C 
ATOM     11  H   UNL     1      31.900 -22.207 -18.722  0.00  0.00    +0.148 HD
ATOM     12  H   UNL     1      31.980 -20.606 -20.535  0.00  0.00    +0.126 HD
ATOM     13  H   UNL     1      35.521 -19.049 -21.859  0.00  0.00    +0.149 HD
ENDROOT
BRANCH   1  14
ATOM     14  C   UNL     1      32.724 -23.422 -17.234  0.00  0.00    +0.154 C 
BRANCH  14  16
ATOM     15  O   UNL     1      30.422 -22.807 -16.926  0.00  0.00    -0.453 OA
ATOM     16  C   UNL     1      31.555 -23.190 -16.315  0.00  0.00    +0.143 C 
ATOM     17  C   UNL     1      31.422 -23.298 -14.975  0.00  0.00    +0.038 C 
ATOM     18  C   UNL     1      30.077 -22.948 -14.709  0.00  0.00    +0.043 C 
ATOM     19  C   UNL     1      29.511 -22.658 -15.929  0.00  0.00    +0.179 C 
ENDBRANCH  14  16
ENDBRANCH   1  14
TORSDOF 2
ENDMDL
MODEL 6
REMARK VINA RESULT:      -8.0      3.039      6.198
REMARK  Name = 3830
REMARK  2 active torsions:
REMARK  status: ('A' for Active; 'I' for Inactive)
REMARK    1  A    between atoms: N_1  and  C_14
REMARK    2  A    between atoms: C_14  and  C_16
REMARK                            x       y       z     vdW  Elec       q    Type
REMARK                         _______ _______ _______ _____ _____    ______ ____
ROOT
ATOM      1  N   UNL     1      35.782 -18.643 -21.800  0.00  0.00    -0.314 N 
ATOM      2  N   UNL     1      36.583 -20.676 -19.632  0.00  0.00    -0.270 NA
ATOM      3  N   UNL     1      33.585 -19.525 -21.423  0.00  0.00    -0.232 NA
ATOM      4  N   UNL     1      35.146 -22.041 -18.614  0.00  0.00    -0.307 N 
ATOM      5  N   UNL     1      33.158 -21.288 -19.792  0.00  0.00    -0.232 NA
ATOM      6  C   UNL     1      35.361 -20.398 -20.175  0.00  0.00    +0.164 C 
ATOM      7  C   UNL     1      34.906 -19.519 -21.136  0.00  0.00    +0.124 C 
ATOM      8  C   UNL     1      34.485 -21.258 -19.525  0.00  0.00    +0.125 C 
ATOM      9  C   UNL     1      36.405 -21.665 -18.702  0.00  0.00    +0.163 C 
ATOM     10  C   UNL     1      32.803 -20.397 -20.742  0.00  0.00    +0.252 C 
ATOM     11  H   UNL     1      36.738 -18.668 -21.564  0.00  0.00    +0.148 HD
ATOM     12  H   UNL     1      37.437 -20.244 -19.866  0.00  0.00    +0.126 HD
ATOM     13  H   UNL     1      34.764 -22.730 -18.024  0.00  0.00    +0.149 HD
ENDROOT
BRANCH   1  14
ATOM     14  C   UNL     1      35.350 -17.716 -22.804  0.00  0.00    +0.154 C 
BRANCH  14  16
ATOM     15  O   UNL     1      34.773 -15.401 -23.089  0.00  0.00    -0.453 OA
ATOM     16  C   UNL     1      34.923 -16.402 -22.206  0.00  0.00    +0.143 C 
ATOM     17  C   UNL     1      34.655 -16.031 -20.935  0.00  0.00    +0.038 C 
ATOM     18  C   UNL     1      34.302 -14.663 -21.018  0.00  0.00    +0.043 C 
ATOM     19  C   UNL     1      34.389 -14.327 -22.350  0.00  0.00    +0.179 C 
ENDBRANCH  14  16
ENDBRANCH   1  14
TORSDOF 2
ENDMDL
MODEL 7
REMARK VINA RESULT:      -8.0      1.585      1.998
REMARK  Name = 3830
REMARK  2 active torsions:
REMARK  status: ('A' for Active; 'I' for Inactive)
REMARK    1  A    between atoms: N_1  and  C_14
REMARK    2  A    between atoms: C_14  and  C_16
REMARK                            x       y       z     vdW  Elec       q    Type
REMARK                         _______ _______ _______ _____ _____    ______ ____
ROOT
ATOM      1  N   UNL     1      35.660 -18.657 -20.565  0.00  0.00    -0.314 N 
ATOM      2  N   UNL     1      34.851 -15.688 -20.611  0.00  0.00    -0.270 NA
ATOM      3  N   UNL     1      35.352 -18.492 -22.937  0.00  0.00    -0.232 NA
ATOM      4  N   UNL     1      34.342 -14.565 -22.467  0.00  0.00    -0.307 N 
ATOM      5  N   UNL     1      34.669 -16.412 -24.013  0.00  0.00    -0.232 NA
ATOM      6  C   UNL     1      34.981 -16.585 -21.632  0.00  0.00    +0.164 C 
ATOM      7  C   UNL     1      35.333 -17.917 -21.713  0.00  0.00    +0.124 C 
ATOM      8  C   UNL     1      34.659 -15.863 -22.775  0.00  0.00    +0.125 C 
ATOM      9  C   UNL     1      34.468 -14.493 -21.158  0.00  0.00    +0.163 C 
ATOM     10  C   UNL     1      35.024 -17.715 -23.997  0.00  0.00    +0.252 C 
ATOM     11  H   UNL     1      35.634 -18.204 -19.691  0.00  0.00    +0.148 HD
ATOM     12  H   UNL     1      35.006 -15.868 -19.654  0.00  0.00    +0.126 HD
ATOM     13  H   UNL     1      34.078 -13.847 -23.086  0.00  0.00    +0.149 HD
ENDROOT
BRANCH   1  14
ATOM     14  C   UNL     1      36.030 -20.042 -20.605  0.00  0.00    +0.154 C 
BRANCH  14  16
ATOM     15  O   UNL     1      35.560 -21.830 -19.071  0.00  0.00    -0.453 OA
ATOM     16  C   UNL     1      35.028 -20.910 -19.892  0.00  0.00    +0.143 C 
ATOM     17  C   UNL     1      33.678 -20.941 -19.917  0.00  0.00    +0.038 C 
ATOM     18  C   UNL     1      33.318 -21.981 -19.027  0.00  0.00    +0.043 C 
ATOM     19  C   UNL     1      34.499 -22.490 -18.538  0.00  0.00    +0.179 C 
ENDBRANCH  14  16
ENDBRANCH   1  14
TORSDOF 2
ENDMDL
MODEL 8
REMARK VINA RESULT:      -7.9      1.292      2.541
REMARK  Name = 3830
REMARK  2 active torsions:
REMARK  status: ('A' for Active; 'I' for Inactive)
REMARK    1  A    between atoms: N_1  and  C_14
REMARK    2  A    between atoms: C_14  and  C_16
REMARK                            x       y       z     vdW  Elec       q    Type
REMARK                         _______ _______ _______ _____ _____    ______ ____
ROOT
ATOM      1  N   UNL     1      35.780 -19.146 -21.772  0.00  0.00    -0.314 N 
ATOM      2  N   UNL     1      34.887 -17.710 -24.343  0.00  0.00    -0.270 NA
ATOM      3  N   UNL     1      35.180 -17.070 -20.734  0.00  0.00    -0.232 NA
ATOM      4  N   UNL     1      34.121 -15.618 -24.399  0.00  0.00    -0.307 N 
ATOM      5  N   UNL     1      34.311 -15.185 -22.015  0.00  0.00    -0.232 NA
ATOM      6  C   UNL     1      34.916 -17.272 -23.051  0.00  0.00    +0.164 C 
ATOM      7  C   UNL     1      35.293 -17.831 -21.846  0.00  0.00    +0.124 C 
ATOM      8  C   UNL     1      34.435 -15.970 -23.111  0.00  0.00    +0.125 C 
ATOM      9  C   UNL     1      34.404 -16.687 -25.114  0.00  0.00    +0.163 C 
ATOM     10  C   UNL     1      34.702 -15.812 -20.884  0.00  0.00    +0.252 C 
ATOM     11  H   UNL     1      35.849 -19.669 -22.604  0.00  0.00    +0.148 HD
ATOM     12  H   UNL     1      35.163 -18.601 -24.663  0.00  0.00    +0.126 HD
ATOM     13  H   UNL     1      33.764 -14.759 -24.718  0.00  0.00    +0.149 HD
ENDROOT
BRANCH   1  14
ATOM     14  C   UNL     1      36.183 -19.764 -20.542  0.00  0.00    +0.154 C 
BRANCH  14  16
ATOM     15  O   UNL     1      35.564 -21.693 -19.251  0.00  0.00    -0.453 OA
ATOM     16  C   UNL     1      35.113 -20.670 -19.994  0.00  0.00    +0.143 C 
ATOM     17  C   UNL     1      33.766 -20.649 -20.105  0.00  0.00    +0.038 C 
ATOM     18  C   UNL     1      33.320 -21.768 -19.361  0.00  0.00    +0.043 C 
ATOM     19  C   UNL     1      34.452 -22.370 -18.862  0.00  0.00    +0.179 C 
ENDBRANCH  14  16
ENDBRANCH   1  14
TORSDOF 2
ENDMDL
MODEL 9
REMARK VINA RESULT:      -7.8     10.459     12.397
REMARK  Name = 3830
REMARK  2 active torsions:
REMARK  status: ('A' for Active; 'I' for Inactive)
REMARK    1  A    between atoms: N_1  and  C_14
REMARK    2  A    between atoms: C_14  and  C_16
REMARK                            x       y       z     vdW  Elec       q    Type
REMARK                         _______ _______ _______ _____ _____    ______ ____
ROOT
ATOM      1  N   UNL     1      34.096 -23.957 -14.971  0.00  0.00    -0.314 N 
ATOM      2  N   UNL     1      36.676 -25.596 -15.332  0.00  0.00    -0.270 NA
ATOM      3  N   UNL     1      34.595 -24.203 -12.639  0.00  0.00    -0.232 NA
ATOM      4  N   UNL     1      37.927 -26.335 -13.643  0.00  0.00    -0.307 N 
ATOM      5  N   UNL     1      36.558 -25.419 -11.855  0.00  0.00    -0.232 NA
ATOM      6  C   UNL     1      36.052 -25.168 -14.195  0.00  0.00    +0.164 C 
ATOM      7  C   UNL     1      34.910 -24.439 -13.932  0.00  0.00    +0.124 C 
ATOM      8  C   UNL     1      36.849 -25.640 -13.160  0.00  0.00    +0.125 C 
ATOM      9  C   UNL     1      37.794 -26.289 -14.951  0.00  0.00    +0.163 C 
ATOM     10  C   UNL     1      35.427 -24.700 -11.693  0.00  0.00    +0.252 C 
ATOM     11  H   UNL     1      34.358 -24.149 -15.901  0.00  0.00    +0.148 HD
ATOM     12  H   UNL     1      36.377 -25.434 -16.257  0.00  0.00    +0.126 HD
ATOM     13  H   UNL     1      38.642 -26.772 -13.126  0.00  0.00    +0.149 HD
ENDROOT
BRANCH   1  14
ATOM     14  C   UNL     1      32.902 -23.196 -14.742  0.00  0.00    +0.154 C 
BRANCH  14  16
ATOM     15  O   UNL     1      30.866 -23.734 -15.899  0.00  0.00    -0.453 OA
ATOM     16  C   UNL     1      31.665 -24.046 -14.866  0.00  0.00    +0.143 C 
ATOM     17  C   UNL     1      31.200 -25.078 -14.129  0.00  0.00    +0.038 C 
ATOM     18  C   UNL     1      29.987 -25.456 -14.753  0.00  0.00    +0.043 C 
ATOM     19  C   UNL     1      29.829 -24.608 -15.826  0.00  0.00    +0.179 C 
ENDBRANCH  14  16
ENDBRANCH   1  14
TORSDOF 2
ENDMDL
