MODEL 1
REMARK VINA RESULT:     -10.1      0.000      0.000
REMARK  Name = 30843
REMARK  4 active torsions:
REMARK  status: ('A' for Active; 'I' for Inactive)
REMARK    1  A    between atoms: C_4  and  C_11
REMARK    2  A    between atoms: C_4  and  C_24
REMARK    3  A    between atoms: N_10  and  C_17
REMARK    4  A    between atoms: C_17  and  C_18
REMARK                            x       y       z     vdW  Elec       q    Type
REMARK                         _______ _______ _______ _____ _____    ______ ____
ROOT
ATOM      1  O   UNL     1      35.703 -26.304 -15.618  0.00  0.00    -0.274 OA
ATOM      2  O   UNL     1      36.425 -25.313 -11.189  0.00  0.00    -0.275 OA
ATOM      3  N   UNL     1      36.061 -25.752 -13.420  0.00  0.00    -0.255 N 
ATOM      4  C   UNL     1      35.141 -24.030 -14.962  0.00  0.00    +0.088 C 
ATOM      5  C   UNL     1      35.900 -23.085 -14.003  0.00  0.00    +0.022 C 
ATOM      6  C   UNL     1      35.671 -25.454 -14.726  0.00  0.00    +0.231 C 
ATOM      7  C   UNL     1      35.696 -23.487 -12.551  0.00  0.00    +0.086 C 
ATOM      8  C   UNL     1      36.110 -24.917 -12.311  0.00  0.00    +0.228 C 
ATOM      9  H   UNL     1      36.339 -26.683 -13.263  0.00  0.00    +0.158 HD
ENDROOT
BRANCH   4  11
ATOM     10  N   UNL     1      35.460 -21.694 -18.581  0.00  0.00    +0.390 N 
ATOM     11  C   UNL     1      35.496 -23.649 -16.397  0.00  0.00    +0.008 C 
ATOM     12  C   UNL     1      36.428 -22.433 -16.429  0.00  0.00    -0.022 C 
ATOM     13  C   UNL     1      34.236 -23.355 -17.217  0.00  0.00    -0.022 C 
ATOM     14  C   UNL     1      36.709 -21.983 -17.864  0.00  0.00    -0.077 C 
ATOM     15  C   UNL     1      34.588 -22.877 -18.626  0.00  0.00    -0.077 C 
ATOM     16  H   UNL     1      34.967 -20.960 -18.073  0.00  0.00    -0.079 HD
BRANCH  10  17
ATOM     17  C   UNL     1      35.745 -21.217 -19.934  0.00  0.00    -0.050 C 
BRANCH  17  18
ATOM     18  C   UNL     1      34.749 -20.183 -20.387  0.00  0.00    -0.043 C 
ATOM     19  C   UNL     1      33.392 -20.434 -20.244  0.00  0.00    -0.006 C 
ATOM     20  C   UNL     1      35.203 -18.994 -20.941  0.00  0.00    -0.006 C 
ATOM     21  C   UNL     1      32.468 -19.476 -20.663  0.00  0.00    -0.000 C 
ATOM     22  C   UNL     1      34.280 -18.036 -21.360  0.00  0.00    -0.000 C 
ATOM     23  C   UNL     1      32.912 -18.277 -21.220  0.00  0.00    -0.000 C 
ENDBRANCH  17  18
ENDBRANCH  10  17
ENDBRANCH   4  11
BRANCH   4  24
ATOM     24  C   UNL     1      33.615 -23.927 -14.792  0.00  0.00    -0.015 C 
ATOM     25  C   UNL     1      32.970 -22.728 -15.072  0.00  0.00    -0.004 C 
ATOM     26  C   UNL     1      32.894 -25.034 -14.359  0.00  0.00    -0.004 C 
ATOM     27  C   UNL     1      31.587 -22.635 -14.917  0.00  0.00    -0.000 C 
ATOM     28  C   UNL     1      31.511 -24.941 -14.204  0.00  0.00    -0.000 C 
ATOM     29  C   UNL     1      30.857 -23.741 -14.483  0.00  0.00    -0.000 C 
ENDBRANCH   4  24
TORSDOF 4
ENDMDL
MODEL 2
REMARK VINA RESULT:      -9.6      6.642     12.174
REMARK  Name = 30843
REMARK  4 active torsions:
REMARK  status: ('A' for Active; 'I' for Inactive)
REMARK    1  A    between atoms: C_4  and  C_11
REMARK    2  A    between atoms: C_4  and  C_24
REMARK    3  A    between atoms: N_10  and  C_17
REMARK    4  A    between atoms: C_17  and  C_18
REMARK                            x       y       z     vdW  Elec       q    Type
REMARK                         _______ _______ _______ _____ _____    ______ ____
ROOT
ATOM      1  O   UNL     1      31.828 -14.649 -22.082  0.00  0.00    -0.274 OA
ATOM      2  O   UNL     1      31.059 -10.121 -22.234  0.00  0.00    -0.275 OA
ATOM      3  N   UNL     1      31.501 -12.381 -22.171  0.00  0.00    -0.255 N 
ATOM      4  C   UNL     1      33.550 -13.344 -23.200  0.00  0.00    +0.088 C 
ATOM      5  C   UNL     1      34.129 -11.967 -22.804  0.00  0.00    +0.022 C 
ATOM      6  C   UNL     1      32.238 -13.538 -22.421  0.00  0.00    +0.231 C 
ATOM      7  C   UNL     1      33.157 -10.843 -23.127  0.00  0.00    +0.086 C 
ATOM      8  C   UNL     1      31.822 -11.060 -22.460  0.00  0.00    +0.228 C 
ATOM      9  H   UNL     1      30.633 -12.519 -21.728  0.00  0.00    +0.158 HD
ENDROOT
BRANCH   4  11
ATOM     10  N   UNL     1      35.015 -17.203 -21.926  0.00  0.00    +0.390 N 
ATOM     11  C   UNL     1      34.517 -14.428 -22.729  0.00  0.00    +0.008 C 
ATOM     12  C   UNL     1      34.591 -15.576 -23.741  0.00  0.00    -0.022 C 
ATOM     13  C   UNL     1      34.108 -14.974 -21.357  0.00  0.00    -0.022 C 
ATOM     14  C   UNL     1      35.481 -16.712 -23.230  0.00  0.00    -0.077 C 
ATOM     15  C   UNL     1      35.014 -16.128 -20.925  0.00  0.00    -0.077 C 
ATOM     16  H   UNL     1      34.056 -17.531 -22.037  0.00  0.00    -0.079 HD
BRANCH  10  17
ATOM     17  C   UNL     1      35.844 -18.321 -21.475  0.00  0.00    -0.050 C 
BRANCH  17  18
ATOM     18  C   UNL     1      35.019 -19.414 -20.850  0.00  0.00    -0.043 C 
ATOM     19  C   UNL     1      33.637 -19.375 -20.960  0.00  0.00    -0.006 C 
ATOM     20  C   UNL     1      35.654 -20.445 -20.170  0.00  0.00    -0.006 C 
ATOM     21  C   UNL     1      32.872 -20.387 -20.380  0.00  0.00    -0.000 C 
ATOM     22  C   UNL     1      34.890 -21.457 -19.590  0.00  0.00    -0.000 C 
ATOM     23  C   UNL     1      33.499 -21.429 -19.696  0.00  0.00    -0.000 C 
ENDBRANCH  17  18
ENDBRANCH  10  17
ENDBRANCH   4  11
BRANCH   4  24
ATOM     24  C   UNL     1      33.365 -13.481 -24.721  0.00  0.00    -0.015 C 
ATOM     25  C   UNL     1      32.744 -14.610 -25.242  0.00  0.00    -0.004 C 
ATOM     26  C   UNL     1      33.822 -12.473 -25.564  0.00  0.00    -0.004 C 
ATOM     27  C   UNL     1      32.577 -14.734 -26.621  0.00  0.00    -0.000 C 
ATOM     28  C   UNL     1      33.655 -12.597 -26.943  0.00  0.00    -0.000 C 
ATOM     29  C   UNL     1      33.032 -13.727 -27.472  0.00  0.00    -0.000 C 
ENDBRANCH   4  24
TORSDOF 4
ENDMDL
MODEL 3
REMARK VINA RESULT:      -9.3      2.836      5.735
REMARK  Name = 30843
REMARK  4 active torsions:
REMARK  status: ('A' for Active; 'I' for Inactive)
REMARK    1  A    between atoms: C_4  and  C_11
REMARK    2  A    between atoms: C_4  and  C_24
REMARK    3  A    between atoms: N_10  and  C_17
REMARK    4  A    between atoms: C_17  and  C_18
REMARK                            x       y       z     vdW  Elec       q    Type
REMARK                         _______ _______ _______ _____ _____    ______ ____
ROOT
ATOM      1  O   UNL     1      36.439 -23.144 -12.489  0.00  0.00    -0.274 OA
ATOM      2  O   UNL     1      39.122 -26.469 -14.181  0.00  0.00    -0.275 OA
ATOM      3  N   UNL     1      37.734 -24.821 -13.369  0.00  0.00    -0.255 N 
ATOM      4  C   UNL     1      35.688 -24.110 -14.591  0.00  0.00    +0.088 C 
ATOM      5  C   UNL     1      35.708 -25.589 -15.037  0.00  0.00    +0.022 C 
ATOM      6  C   UNL     1      36.623 -23.978 -13.378  0.00  0.00    +0.231 C 
ATOM      7  C   UNL     1      37.114 -26.038 -15.407  0.00  0.00    +0.086 C 
ATOM      8  C   UNL     1      38.079 -25.822 -14.269  0.00  0.00    +0.228 C 
ATOM      9  H   UNL     1      38.362 -24.687 -12.623  0.00  0.00    +0.158 HD
ENDROOT
BRANCH   4  11
ATOM     10  N   UNL     1      31.375 -24.106 -14.345  0.00  0.00    +0.390 N 
ATOM     11  C   UNL     1      34.279 -23.769 -14.114  0.00  0.00    +0.008 C 
ATOM     12  C   UNL     1      33.552 -25.020 -13.608  0.00  0.00    -0.022 C 
ATOM     13  C   UNL     1      33.461 -23.114 -15.231  0.00  0.00    -0.022 C 
ATOM     14  C   UNL     1      32.106 -24.706 -13.220  0.00  0.00    -0.077 C 
ATOM     15  C   UNL     1      32.018 -22.861 -14.790  0.00  0.00    -0.077 C 
ATOM     16  H   UNL     1      31.396 -24.765 -15.122  0.00  0.00    -0.079 HD
BRANCH  10  17
ATOM     17  C   UNL     1      29.982 -23.858 -13.976  0.00  0.00    -0.050 C 
BRANCH  17  18
ATOM     18  C   UNL     1      29.128 -23.557 -15.179  0.00  0.00    -0.043 C 
ATOM     19  C   UNL     1      28.995 -24.510 -16.179  0.00  0.00    -0.006 C 
ATOM     20  C   UNL     1      28.487 -22.329 -15.271  0.00  0.00    -0.006 C 
ATOM     21  C   UNL     1      28.205 -24.231 -17.293  0.00  0.00    -0.000 C 
ATOM     22  C   UNL     1      27.696 -22.050 -16.386  0.00  0.00    -0.000 C 
ATOM     23  C   UNL     1      27.554 -23.002 -17.397  0.00  0.00    -0.000 C 
ENDBRANCH  17  18
ENDBRANCH  10  17
ENDBRANCH   4  11
BRANCH   4  24
ATOM     24  C   UNL     1      36.060 -23.152 -15.737  0.00  0.00    -0.015 C 
ATOM     25  C   UNL     1      35.263 -23.094 -16.874  0.00  0.00    -0.004 C 
ATOM     26  C   UNL     1      37.192 -22.352 -15.626  0.00  0.00    -0.004 C 
ATOM     27  C   UNL     1      35.601 -22.227 -17.912  0.00  0.00    -0.000 C 
ATOM     28  C   UNL     1      37.531 -21.485 -16.663  0.00  0.00    -0.000 C 
ATOM     29  C   UNL     1      36.735 -21.421 -17.807  0.00  0.00    -0.000 C 
ENDBRANCH   4  24
TORSDOF 4
ENDMDL
MODEL 4
REMARK VINA RESULT:      -9.2      1.876      3.386
REMARK  Name = 30843
REMARK  4 active torsions:
REMARK  status: ('A' for Active; 'I' for Inactive)
REMARK    1  A    between atoms: C_4  and  C_11
REMARK    2  A    between atoms: C_4  and  C_24
REMARK    3  A    between atoms: N_10  and  C_17
REMARK    4  A    between atoms: C_17  and  C_18
REMARK                            x       y       z     vdW  Elec       q    Type
REMARK                         _______ _______ _______ _____ _____    ______ ____
ROOT
ATOM      1  O   UNL     1      35.627 -26.131 -15.501  0.00  0.00    -0.274 OA
ATOM      2  O   UNL     1      40.124 -26.787 -14.825  0.00  0.00    -0.275 OA
ATOM      3  N   UNL     1      37.879 -26.400 -15.163  0.00  0.00    -0.255 N 
ATOM      4  C   UNL     1      36.845 -24.187 -14.695  0.00  0.00    +0.088 C 
ATOM      5  C   UNL     1      38.252 -23.692 -15.099  0.00  0.00    +0.022 C 
ATOM      6  C   UNL     1      36.709 -25.641 -15.175  0.00  0.00    +0.231 C 
ATOM      7  C   UNL     1      39.343 -24.553 -14.481  0.00  0.00    +0.086 C 
ATOM      8  C   UNL     1      39.174 -26.005 -14.849  0.00  0.00    +0.228 C 
ATOM      9  H   UNL     1      37.773 -27.347 -15.410  0.00  0.00    +0.158 HD
ENDROOT
BRANCH   4  11
ATOM     10  N   UNL     1      34.240 -22.880 -17.883  0.00  0.00    +0.390 N 
ATOM     11  C   UNL     1      35.808 -23.363 -15.452  0.00  0.00    +0.008 C 
ATOM     12  C   UNL     1      34.597 -24.221 -15.834  0.00  0.00    -0.022 C 
ATOM     13  C   UNL     1      36.414 -22.736 -16.712  0.00  0.00    -0.022 C 
ATOM     14  C   UNL     1      33.597 -23.429 -16.680  0.00  0.00    -0.077 C 
ATOM     15  C   UNL     1      35.356 -21.992 -17.528  0.00  0.00    -0.077 C 
ATOM     16  H   UNL     1      34.617 -23.659 -18.421  0.00  0.00    -0.079 HD
BRANCH  10  17
ATOM     17  C   UNL     1      33.262 -22.170 -18.706  0.00  0.00    -0.050 C 
BRANCH  17  18
ATOM     18  C   UNL     1      33.924 -21.212 -19.661  0.00  0.00    -0.043 C 
ATOM     19  C   UNL     1      33.165 -20.227 -20.276  0.00  0.00    -0.006 C 
ATOM     20  C   UNL     1      35.284 -21.329 -19.912  0.00  0.00    -0.006 C 
ATOM     21  C   UNL     1      33.778 -19.339 -21.161  0.00  0.00    -0.000 C 
ATOM     22  C   UNL     1      35.897 -20.443 -20.797  0.00  0.00    -0.000 C 
ATOM     23  C   UNL     1      35.144 -19.447 -21.421  0.00  0.00    -0.000 C 
ENDBRANCH  17  18
ENDBRANCH  10  17
ENDBRANCH   4  11
BRANCH   4  24
ATOM     24  C   UNL     1      36.587 -24.031 -13.186  0.00  0.00    -0.015 C 
ATOM     25  C   UNL     1      37.196 -22.997 -12.485  0.00  0.00    -0.004 C 
ATOM     26  C   UNL     1      35.745 -24.927 -12.535  0.00  0.00    -0.004 C 
ATOM     27  C   UNL     1      36.961 -22.856 -11.117  0.00  0.00    -0.000 C 
ATOM     28  C   UNL     1      35.511 -24.786 -11.167  0.00  0.00    -0.000 C 
ATOM     29  C   UNL     1      36.119 -23.751 -10.458  0.00  0.00    -0.000 C 
ENDBRANCH   4  24
TORSDOF 4
ENDMDL
MODEL 5
REMARK VINA RESULT:      -8.8     10.714     16.047
REMARK  Name = 30843
REMARK  4 active torsions:
REMARK  status: ('A' for Active; 'I' for Inactive)
REMARK    1  A    between atoms: C_4  and  C_11
REMARK    2  A    between atoms: C_4  and  C_24
REMARK    3  A    between atoms: N_10  and  C_17
REMARK    4  A    between atoms: C_17  and  C_18
REMARK                            x       y       z     vdW  Elec       q    Type
REMARK                         _______ _______ _______ _____ _____    ______ ____
ROOT
ATOM      1  O   UNL     1      30.340  -8.442 -23.261  0.00  0.00    -0.274 OA
ATOM      2  O   UNL     1      31.879  -5.793 -19.837  0.00  0.00    -0.275 OA
ATOM      3  N   UNL     1      31.162  -7.143 -21.559  0.00  0.00    -0.255 N 
ATOM      4  C   UNL     1      32.759  -8.222 -23.131  0.00  0.00    +0.088 C 
ATOM      5  C   UNL     1      33.661  -8.205 -21.877  0.00  0.00    +0.022 C 
ATOM      6  C   UNL     1      31.313  -7.977 -22.666  0.00  0.00    +0.231 C 
ATOM      7  C   UNL     1      33.565  -6.878 -21.142  0.00  0.00    +0.086 C 
ATOM      8  C   UNL     1      32.140  -6.559 -20.764  0.00  0.00    +0.228 C 
ATOM      9  H   UNL     1      30.232  -6.940 -21.305  0.00  0.00    +0.158 HD
ENDROOT
BRANCH   4  11
ATOM     10  N   UNL     1      33.816 -12.373 -23.692  0.00  0.00    +0.390 N 
ATOM     11  C   UNL     1      32.805  -9.621 -23.740  0.00  0.00    +0.008 C 
ATOM     12  C   UNL     1      32.288 -10.670 -22.750  0.00  0.00    -0.022 C 
ATOM     13  C   UNL     1      34.227  -9.983 -24.181  0.00  0.00    -0.022 C 
ATOM     14  C   UNL     1      32.425 -12.085 -23.316  0.00  0.00    -0.077 C 
ATOM     15  C   UNL     1      34.300 -11.420 -24.701  0.00  0.00    -0.077 C 
ATOM     16  H   UNL     1      34.395 -12.270 -22.859  0.00  0.00    -0.079 HD
BRANCH  10  17
ATOM     17  C   UNL     1      33.940 -13.745 -24.183  0.00  0.00    -0.050 C 
BRANCH  17  18
ATOM     18  C   UNL     1      34.282 -14.707 -23.077  0.00  0.00    -0.043 C 
ATOM     19  C   UNL     1      34.145 -14.308 -21.756  0.00  0.00    -0.006 C 
ATOM     20  C   UNL     1      34.732 -15.981 -23.396  0.00  0.00    -0.006 C 
ATOM     21  C   UNL     1      34.462 -15.199 -20.731  0.00  0.00    -0.000 C 
ATOM     22  C   UNL     1      35.050 -16.873 -22.372  0.00  0.00    -0.000 C 
ATOM     23  C   UNL     1      34.914 -16.482 -21.039  0.00  0.00    -0.000 C 
ENDBRANCH  17  18
ENDBRANCH  10  17
ENDBRANCH   4  11
BRANCH   4  24
ATOM     24  C   UNL     1      33.222  -7.210 -24.194  0.00  0.00    -0.015 C 
ATOM     25  C   UNL     1      32.301  -6.336 -24.761  0.00  0.00    -0.004 C 
ATOM     26  C   UNL     1      34.558  -7.178 -24.579  0.00  0.00    -0.004 C 
ATOM     27  C   UNL     1      32.721  -5.419 -25.724  0.00  0.00    -0.000 C 
ATOM     28  C   UNL     1      34.978  -6.261 -25.542  0.00  0.00    -0.000 C 
ATOM     29  C   UNL     1      34.060  -5.381 -26.115  0.00  0.00    -0.000 C 
ENDBRANCH   4  24
TORSDOF 4
ENDMDL
MODEL 6
REMARK VINA RESULT:      -8.7      4.381      9.705
REMARK  Name = 30843
REMARK  4 active torsions:
REMARK  status: ('A' for Active; 'I' for Inactive)
REMARK    1  A    between atoms: C_4  and  C_11
REMARK    2  A    between atoms: C_4  and  C_24
REMARK    3  A    between atoms: N_10  and  C_17
REMARK    4  A    between atoms: C_17  and  C_18
REMARK                            x       y       z     vdW  Elec       q    Type
REMARK                         _______ _______ _______ _____ _____    ______ ____
ROOT
ATOM      1  O   UNL     1      31.742 -17.650 -21.087  0.00  0.00    -0.274 OA
ATOM      2  O   UNL     1      32.504 -13.300 -19.819  0.00  0.00    -0.275 OA
ATOM      3  N   UNL     1      32.180 -15.487 -20.462  0.00  0.00    -0.255 N 
ATOM      4  C   UNL     1      33.935 -16.772 -21.670  0.00  0.00    +0.088 C 
ATOM      5  C   UNL     1      34.863 -15.861 -20.836  0.00  0.00    +0.022 C 
ATOM      6  C   UNL     1      32.533 -16.706 -21.041  0.00  0.00    +0.231 C 
ATOM      7  C   UNL     1      34.363 -14.425 -20.819  0.00  0.00    +0.086 C 
ATOM      8  C   UNL     1      32.948 -14.340 -20.304  0.00  0.00    +0.228 C 
ATOM      9  H   UNL     1      31.260 -15.432 -20.117  0.00  0.00    +0.158 HD
ENDROOT
BRANCH   4  11
ATOM     10  N   UNL     1      35.315 -20.435 -19.844  0.00  0.00    +0.390 N 
ATOM     11  C   UNL     1      34.422 -18.212 -21.534  0.00  0.00    +0.008 C 
ATOM     12  C   UNL     1      33.452 -19.044 -20.689  0.00  0.00    -0.022 C 
ATOM     13  C   UNL     1      35.823 -18.263 -20.914  0.00  0.00    -0.022 C 
ATOM     14  C   UNL     1      33.984 -20.462 -20.465  0.00  0.00    -0.077 C 
ATOM     15  C   UNL     1      36.276 -19.706 -20.683  0.00  0.00    -0.077 C 
ATOM     16  H   UNL     1      35.238 -19.944 -18.954  0.00  0.00    -0.079 HD
BRANCH  10  17
ATOM     17  C   UNL     1      35.788 -21.796 -19.589  0.00  0.00    -0.050 C 
BRANCH  17  18
ATOM     18  C   UNL     1      35.772 -22.129 -18.122  0.00  0.00    -0.043 C 
ATOM     19  C   UNL     1      34.654 -22.740 -17.572  0.00  0.00    -0.006 C 
ATOM     20  C   UNL     1      36.875 -21.820 -17.339  0.00  0.00    -0.006 C 
ATOM     21  C   UNL     1      34.638 -23.050 -16.212  0.00  0.00    -0.000 C 
ATOM     22  C   UNL     1      36.861 -22.129 -15.979  0.00  0.00    -0.000 C 
ATOM     23  C   UNL     1      35.742 -22.745 -15.415  0.00  0.00    -0.000 C 
ENDBRANCH  17  18
ENDBRANCH  10  17
ENDBRANCH   4  11
BRANCH   4  24
ATOM     24  C   UNL     1      33.936 -16.394 -23.161  0.00  0.00    -0.015 C 
ATOM     25  C   UNL     1      33.351 -15.201 -23.571  0.00  0.00    -0.004 C 
ATOM     26  C   UNL     1      34.522 -17.248 -24.089  0.00  0.00    -0.004 C 
ATOM     27  C   UNL     1      33.352 -14.858 -24.923  0.00  0.00    -0.000 C 
ATOM     28  C   UNL     1      34.523 -16.906 -25.441  0.00  0.00    -0.000 C 
ATOM     29  C   UNL     1      33.938 -15.711 -25.858  0.00  0.00    -0.000 C 
ENDBRANCH   4  24
TORSDOF 4
ENDMDL
MODEL 7
REMARK VINA RESULT:      -8.6      2.395      3.976
REMARK  Name = 30843
REMARK  4 active torsions:
REMARK  status: ('A' for Active; 'I' for Inactive)
REMARK    1  A    between atoms: C_4  and  C_11
REMARK    2  A    between atoms: C_4  and  C_24
REMARK    3  A    between atoms: N_10  and  C_17
REMARK    4  A    between atoms: C_17  and  C_18
REMARK                            x       y       z     vdW  Elec       q    Type
REMARK                         _______ _______ _______ _____ _____    ______ ____
ROOT
ATOM      1  O   UNL     1      38.140 -22.053 -12.319  0.00  0.00    -0.274 OA
ATOM      2  O   UNL     1      35.333 -24.442  -9.575  0.00  0.00    -0.275 OA
ATOM      3  N   UNL     1      36.706 -23.260 -10.996  0.00  0.00    -0.255 N 
ATOM      4  C   UNL     1      36.674 -23.627 -13.456  0.00  0.00    +0.088 C 
ATOM      5  C   UNL     1      35.191 -23.949 -13.166  0.00  0.00    +0.022 C 
ATOM      6  C   UNL     1      37.237 -22.887 -12.231  0.00  0.00    +0.231 C 
ATOM      7  C   UNL     1      35.044 -24.809 -11.921  0.00  0.00    +0.086 C 
ATOM      8  C   UNL     1      35.681 -24.156 -10.720  0.00  0.00    +0.228 C 
ATOM      9  H   UNL     1      37.115 -22.829 -10.212  0.00  0.00    +0.158 HD
ENDROOT
BRANCH   4  11
ATOM     10  N   UNL     1      36.692 -22.184 -17.528  0.00  0.00    +0.390 N 
ATOM     11  C   UNL     1      36.736 -22.659 -14.634  0.00  0.00    +0.008 C 
ATOM     12  C   UNL     1      35.444 -22.711 -15.457  0.00  0.00    -0.022 C 
ATOM     13  C   UNL     1      37.936 -22.965 -15.537  0.00  0.00    -0.022 C 
ATOM     14  C   UNL     1      35.537 -21.818 -16.697  0.00  0.00    -0.077 C 
ATOM     15  C   UNL     1      37.947 -22.063 -16.772  0.00  0.00    -0.077 C 
ATOM     16  H   UNL     1      36.584 -23.159 -17.805  0.00  0.00    -0.079 HD
BRANCH  10  17
ATOM     17  C   UNL     1      36.738 -21.356 -18.733  0.00  0.00    -0.050 C 
BRANCH  17  18
ATOM     18  C   UNL     1      35.371 -21.161 -19.332  0.00  0.00    -0.043 C 
ATOM     19  C   UNL     1      34.341 -22.020 -18.978  0.00  0.00    -0.006 C 
ATOM     20  C   UNL     1      35.161 -20.124 -20.230  0.00  0.00    -0.006 C 
ATOM     21  C   UNL     1      33.074 -21.840 -19.533  0.00  0.00    -0.000 C 
ATOM     22  C   UNL     1      33.894 -19.943 -20.785  0.00  0.00    -0.000 C 
ATOM     23  C   UNL     1      32.850 -20.801 -20.436  0.00  0.00    -0.000 C 
ENDBRANCH  17  18
ENDBRANCH  10  17
ENDBRANCH   4  11
BRANCH   4  24
ATOM     24  C   UNL     1      37.483 -24.886 -13.815  0.00  0.00    -0.015 C 
ATOM     25  C   UNL     1      38.806 -24.997 -13.402  0.00  0.00    -0.004 C 
ATOM     26  C   UNL     1      36.884 -25.904 -14.549  0.00  0.00    -0.004 C 
ATOM     27  C   UNL     1      39.538 -26.138 -13.728  0.00  0.00    -0.000 C 
ATOM     28  C   UNL     1      37.616 -27.045 -14.875  0.00  0.00    -0.000 C 
ATOM     29  C   UNL     1      38.944 -27.163 -14.464  0.00  0.00    -0.000 C 
ENDBRANCH   4  24
TORSDOF 4
ENDMDL
MODEL 8
REMARK VINA RESULT:      -8.6      1.916      3.703
REMARK  Name = 30843
REMARK  4 active torsions:
REMARK  status: ('A' for Active; 'I' for Inactive)
REMARK    1  A    between atoms: C_4  and  C_11
REMARK    2  A    between atoms: C_4  and  C_24
REMARK    3  A    between atoms: N_10  and  C_17
REMARK    4  A    between atoms: C_17  and  C_18
REMARK                            x       y       z     vdW  Elec       q    Type
REMARK                         _______ _______ _______ _____ _____    ______ ____
ROOT
ATOM      1  O   UNL     1      37.296 -21.872 -13.692  0.00  0.00    -0.274 OA
ATOM      2  O   UNL     1      36.456 -23.991  -9.701  0.00  0.00    -0.275 OA
ATOM      3  N   UNL     1      36.830 -22.956 -11.724  0.00  0.00    -0.255 N 
ATOM      4  C   UNL     1      35.795 -23.782 -13.830  0.00  0.00    +0.088 C 
ATOM      5  C   UNL     1      34.674 -24.202 -12.853  0.00  0.00    +0.022 C 
ATOM      6  C   UNL     1      36.691 -22.767 -13.099  0.00  0.00    +0.231 C 
ATOM      7  C   UNL     1      35.244 -24.823 -11.588  0.00  0.00    +0.086 C 
ATOM      8  C   UNL     1      36.211 -23.890 -10.903  0.00  0.00    +0.228 C 
ATOM      9  H   UNL     1      37.454 -22.343 -11.273  0.00  0.00    +0.158 HD
ENDROOT
BRANCH   4  11
ATOM     10  N   UNL     1      34.257 -23.052 -17.800  0.00  0.00    +0.390 N 
ATOM     11  C   UNL     1      35.159 -23.052 -15.010  0.00  0.00    +0.008 C 
ATOM     12  C   UNL     1      33.870 -23.750 -15.458  0.00  0.00    -0.022 C 
ATOM     13  C   UNL     1      36.132 -22.958 -16.190  0.00  0.00    -0.022 C 
ATOM     14  C   UNL     1      33.280 -23.084 -16.703  0.00  0.00    -0.077 C 
ATOM     15  C   UNL     1      35.468 -22.317 -17.409  0.00  0.00    -0.077 C 
ATOM     16  H   UNL     1      34.526 -24.013 -18.010  0.00  0.00    -0.079 HD
BRANCH  10  17
ATOM     17  C   UNL     1      33.662 -22.459 -18.997  0.00  0.00    -0.050 C 
BRANCH  17  18
ATOM     18  C   UNL     1      34.568 -21.433 -19.624  0.00  0.00    -0.043 C 
ATOM     19  C   UNL     1      34.017 -20.311 -20.226  0.00  0.00    -0.006 C 
ATOM     20  C   UNL     1      35.943 -21.625 -19.591  0.00  0.00    -0.006 C 
ATOM     21  C   UNL     1      34.857 -19.360 -20.806  0.00  0.00    -0.000 C 
ATOM     22  C   UNL     1      36.783 -20.675 -20.171  0.00  0.00    -0.000 C 
ATOM     23  C   UNL     1      36.239 -19.542 -20.778  0.00  0.00    -0.000 C 
ENDBRANCH  17  18
ENDBRANCH  10  17
ENDBRANCH   4  11
BRANCH   4  24
ATOM     24  C   UNL     1      36.580 -24.990 -14.368  0.00  0.00    -0.015 C 
ATOM     25  C   UNL     1      35.909 -26.006 -15.039  0.00  0.00    -0.004 C 
ATOM     26  C   UNL     1      37.957 -25.057 -14.179  0.00  0.00    -0.004 C 
ATOM     27  C   UNL     1      36.621 -27.102 -15.526  0.00  0.00    -0.000 C 
ATOM     28  C   UNL     1      38.669 -26.153 -14.666  0.00  0.00    -0.000 C 
ATOM     29  C   UNL     1      38.001 -27.175 -15.340  0.00  0.00    -0.000 C 
ENDBRANCH   4  24
TORSDOF 4
ENDMDL
MODEL 9
REMARK VINA RESULT:      -8.4      3.102      5.121
REMARK  Name = 30843
REMARK  4 active torsions:
REMARK  status: ('A' for Active; 'I' for Inactive)
REMARK    1  A    between atoms: C_4  and  C_11
REMARK    2  A    between atoms: C_4  and  C_24
REMARK    3  A    between atoms: N_10  and  C_17
REMARK    4  A    between atoms: C_17  and  C_18
REMARK                            x       y       z     vdW  Elec       q    Type
REMARK                         _______ _______ _______ _____ _____    ______ ____
ROOT
ATOM      1  O   UNL     1      36.713 -27.229 -14.900  0.00  0.00    -0.274 OA
ATOM      2  O   UNL     1      41.207 -26.589 -14.190  0.00  0.00    -0.275 OA
ATOM      3  N   UNL     1      38.949 -26.853 -14.560  0.00  0.00    -0.255 N 
ATOM      4  C   UNL     1      37.400 -24.909 -14.654  0.00  0.00    +0.088 C 
ATOM      5  C   UNL     1      38.664 -24.212 -15.208  0.00  0.00    +0.022 C 
ATOM      6  C   UNL     1      37.634 -26.427 -14.739  0.00  0.00    +0.231 C 
ATOM      7  C   UNL     1      39.903 -24.597 -14.415  0.00  0.00    +0.086 C 
ATOM      8  C   UNL     1      40.100 -26.091 -14.391  0.00  0.00    +0.228 C 
ATOM      9  H   UNL     1      39.082 -27.828 -14.552  0.00  0.00    +0.158 HD
ENDROOT
BRANCH   4  11
ATOM     10  N   UNL     1      33.777 -23.062 -16.110  0.00  0.00    +0.390 N 
ATOM     11  C   UNL     1      36.227 -24.582 -15.573  0.00  0.00    +0.008 C 
ATOM     12  C   UNL     1      36.247 -23.107 -15.988  0.00  0.00    -0.022 C 
ATOM     13  C   UNL     1      34.890 -24.909 -14.898  0.00  0.00    -0.022 C 
ATOM     14  C   UNL     1      35.020 -22.747 -16.828  0.00  0.00    -0.077 C 
ATOM     15  C   UNL     1      33.708 -24.491 -15.774  0.00  0.00    -0.077 C 
ATOM     16  H   UNL     1      33.774 -22.534 -15.238  0.00  0.00    -0.079 HD
BRANCH  10  17
ATOM     17  C   UNL     1      32.614 -22.666 -16.903  0.00  0.00    -0.050 C 
BRANCH  17  18
ATOM     18  C   UNL     1      31.321 -22.985 -16.200  0.00  0.00    -0.043 C 
ATOM     19  C   UNL     1      30.228 -23.411 -16.940  0.00  0.00    -0.006 C 
ATOM     20  C   UNL     1      31.242 -22.849 -14.821  0.00  0.00    -0.006 C 
ATOM     21  C   UNL     1      29.030 -23.707 -16.290  0.00  0.00    -0.000 C 
ATOM     22  C   UNL     1      30.045 -23.145 -14.170  0.00  0.00    -0.000 C 
ATOM     23  C   UNL     1      28.939 -23.574 -14.904  0.00  0.00    -0.000 C 
ENDBRANCH  17  18
ENDBRANCH  10  17
ENDBRANCH   4  11
BRANCH   4  24
ATOM     24  C   UNL     1      37.054 -24.438 -13.231  0.00  0.00    -0.015 C 
ATOM     25  C   UNL     1      37.436 -23.169 -12.812  0.00  0.00    -0.004 C 
ATOM     26  C   UNL     1      36.360 -25.286 -12.374  0.00  0.00    -0.004 C 
ATOM     27  C   UNL     1      37.122 -22.743 -11.522  0.00  0.00    -0.000 C 
ATOM     28  C   UNL     1      36.046 -24.860 -11.084  0.00  0.00    -0.000 C 
ATOM     29  C   UNL     1      36.427 -23.588 -10.658  0.00  0.00    -0.000 C 
ENDBRANCH   4  24
TORSDOF 4
ENDMDL
