MODEL 1
REMARK VINA RESULT:      -8.8      0.000      0.000
REMARK  Name = 7232
REMARK  3 active torsions:
REMARK  status: ('A' for Active; 'I' for Inactive)
REMARK    1  A    between atoms: S_1  and  C_4
REMARK    2  A    between atoms: S_1  and  N_11
REMARK    3  A    between atoms: N_11  and  C_13
REMARK                            x       y       z     vdW  Elec       q    Type
REMARK                         _______ _______ _______ _____ _____    ______ ____
ROOT
ATOM      1  S   UNL     1      35.042 -19.129 -23.491  0.00  0.00    -0.003 S 
ENDROOT
BRANCH   1   4
ATOM      2  S   UNL     1      34.779 -16.204 -22.733  0.00  0.00    -0.046 S 
ATOM      3  N   UNL     1      34.109 -17.152 -25.037  0.00  0.00    -0.391 NA
ATOM      4  C   UNL     1      34.596 -17.459 -23.866  0.00  0.00    +0.201 C 
ATOM      5  C   UNL     1      34.148 -15.097 -23.896  0.00  0.00    +0.058 C 
ATOM      6  C   UNL     1      33.844 -15.791 -25.071  0.00  0.00    +0.121 C 
ATOM      7  C   UNL     1      33.936 -13.714 -23.776  0.00  0.00    +0.008 C 
ATOM      8  C   UNL     1      33.312 -15.073 -26.164  0.00  0.00    +0.085 C 
ATOM      9  C   UNL     1      33.407 -13.028 -24.872  0.00  0.00    -0.004 C 
ATOM     10  C   UNL     1      33.098 -13.697 -26.051  0.00  0.00    -0.019 C 
ENDBRANCH   1   4
BRANCH   1  11
ATOM     11  N   UNL     1      35.707 -18.877 -21.998  0.00  0.00    -0.248 NA
ATOM     12  H   UNL     1      35.716 -17.869 -21.844  0.00  0.00    +0.136 HD
BRANCH  11  13
ATOM     13  C   UNL     1      35.075 -19.490 -20.803  0.00  0.00    +0.064 C 
ATOM     14  C   UNL     1      33.604 -19.778 -21.105  0.00  0.00    +0.017 C 
ATOM     15  C   UNL     1      35.830 -20.769 -20.438  0.00  0.00    +0.017 C 
ATOM     16  C   UNL     1      32.930 -20.515 -19.950  0.00  0.00    +0.001 C 
ATOM     17  C   UNL     1      35.156 -21.506 -19.285  0.00  0.00    +0.001 C 
ATOM     18  C   UNL     1      33.685 -21.789 -19.579  0.00  0.00    +0.000 C 
ENDBRANCH  11  13
ENDBRANCH   1  11
TORSDOF 3
ENDMDL
MODEL 2
REMARK VINA RESULT:      -8.7      1.778      2.777
REMARK  Name = 7232
REMARK  3 active torsions:
REMARK  status: ('A' for Active; 'I' for Inactive)
REMARK    1  A    between atoms: S_1  and  C_4
REMARK    2  A    between atoms: S_1  and  N_11
REMARK    3  A    between atoms: N_11  and  C_13
REMARK                            x       y       z     vdW  Elec       q    Type
REMARK                         _______ _______ _______ _____ _____    ______ ____
ROOT
ATOM      1  S   UNL     1      36.036 -18.182 -22.787  0.00  0.00    -0.003 S 
ENDROOT
BRANCH   1   4
ATOM      2  S   UNL     1      34.434 -15.900 -23.980  0.00  0.00    -0.046 S 
ATOM      3  N   UNL     1      34.584 -16.375 -21.449  0.00  0.00    -0.391 NA
ATOM      4  C   UNL     1      34.976 -16.775 -22.627  0.00  0.00    +0.201 C 
ATOM      5  C   UNL     1      33.567 -14.850 -22.922  0.00  0.00    +0.058 C 
ATOM      6  C   UNL     1      33.769 -15.262 -21.601  0.00  0.00    +0.121 C 
ATOM      7  C   UNL     1      32.767 -13.740 -23.238  0.00  0.00    +0.008 C 
ATOM      8  C   UNL     1      33.145 -14.538 -20.562  0.00  0.00    +0.085 C 
ATOM      9  C   UNL     1      32.162 -13.041 -22.190  0.00  0.00    -0.004 C 
ATOM     10  C   UNL     1      32.347 -13.433 -20.869  0.00  0.00    -0.019 C 
ENDBRANCH   1   4
BRANCH   1  11
ATOM     11  N   UNL     1      35.915 -18.760 -21.243  0.00  0.00    -0.248 NA
ATOM     12  H   UNL     1      35.452 -18.038 -20.691  0.00  0.00    +0.136 HD
BRANCH  11  13
ATOM     13  C   UNL     1      35.187 -20.029 -20.991  0.00  0.00    +0.064 C 
ATOM     14  C   UNL     1      35.902 -20.806 -19.886  0.00  0.00    +0.017 C 
ATOM     15  C   UNL     1      33.743 -19.709 -20.604  0.00  0.00    +0.017 C 
ATOM     16  C   UNL     1      35.133 -22.069 -19.504  0.00  0.00    +0.001 C 
ATOM     17  C   UNL     1      32.974 -20.971 -20.222  0.00  0.00    +0.001 C 
ATOM     18  C   UNL     1      33.689 -21.754 -19.124  0.00  0.00    +0.000 C 
ENDBRANCH  11  13
ENDBRANCH   1  11
TORSDOF 3
ENDMDL
MODEL 3
REMARK VINA RESULT:      -8.6      3.649      7.411
REMARK  Name = 7232
REMARK  3 active torsions:
REMARK  status: ('A' for Active; 'I' for Inactive)
REMARK    1  A    between atoms: S_1  and  C_4
REMARK    2  A    between atoms: S_1  and  N_11
REMARK    3  A    between atoms: N_11  and  C_13
REMARK                            x       y       z     vdW  Elec       q    Type
REMARK                         _______ _______ _______ _____ _____    ______ ____
ROOT
ATOM      1  S   UNL     1      33.228 -12.703 -23.370  0.00  0.00    -0.003 S 
ENDROOT
BRANCH   1   4
ATOM      2  S   UNL     1      34.272 -14.843 -21.493  0.00  0.00    -0.046 S 
ATOM      3  N   UNL     1      34.014 -15.173 -24.038  0.00  0.00    -0.391 NA
ATOM      4  C   UNL     1      33.855 -14.327 -23.058  0.00  0.00    +0.201 C 
ATOM      5  C   UNL     1      34.723 -16.374 -22.146  0.00  0.00    +0.058 C 
ATOM      6  C   UNL     1      34.515 -16.362 -23.528  0.00  0.00    +0.121 C 
ATOM      7  C   UNL     1      35.227 -17.505 -21.483  0.00  0.00    +0.008 C 
ATOM      8  C   UNL     1      34.820 -17.523 -24.270  0.00  0.00    +0.085 C 
ATOM      9  C   UNL     1      35.521 -18.641 -22.241  0.00  0.00    -0.004 C 
ATOM     10  C   UNL     1      35.321 -18.652 -23.617  0.00  0.00    -0.019 C 
ENDBRANCH   1   4
BRANCH   1  11
ATOM     11  N   UNL     1      31.849 -12.793 -22.462  0.00  0.00    -0.248 NA
ATOM     12  H   UNL     1      31.989 -13.540 -21.782  0.00  0.00    +0.136 HD
BRANCH  11  13
ATOM     13  C   UNL     1      31.393 -11.601 -21.704  0.00  0.00    +0.064 C 
ATOM     14  C   UNL     1      31.647 -11.827 -20.214  0.00  0.00    +0.017 C 
ATOM     15  C   UNL     1      32.136 -10.367 -22.217  0.00  0.00    +0.017 C 
ATOM     16  C   UNL     1      31.303 -10.585 -19.394  0.00  0.00    +0.001 C 
ATOM     17  C   UNL     1      31.792  -9.126 -21.397  0.00  0.00    +0.001 C 
ATOM     18  C   UNL     1      32.038  -9.350 -19.908  0.00  0.00    +0.000 C 
ENDBRANCH  11  13
ENDBRANCH   1  11
TORSDOF 3
ENDMDL
MODEL 4
REMARK VINA RESULT:      -8.6      1.954      7.252
REMARK  Name = 7232
REMARK  3 active torsions:
REMARK  status: ('A' for Active; 'I' for Inactive)
REMARK    1  A    between atoms: S_1  and  C_4
REMARK    2  A    between atoms: S_1  and  N_11
REMARK    3  A    between atoms: N_11  and  C_13
REMARK                            x       y       z     vdW  Elec       q    Type
REMARK                         _______ _______ _______ _____ _____    ______ ____
ROOT
ATOM      1  S   UNL     1      35.024 -16.996 -22.505  0.00  0.00    -0.003 S 
ENDROOT
BRANCH   1   4
ATOM      2  S   UNL     1      36.414 -19.229 -20.995  0.00  0.00    -0.046 S 
ATOM      3  N   UNL     1      33.851 -19.007 -21.183  0.00  0.00    -0.391 NA
ATOM      4  C   UNL     1      34.988 -18.468 -21.525  0.00  0.00    +0.201 C 
ATOM      5  C   UNL     1      35.452 -20.428 -20.211  0.00  0.00    +0.058 C 
ATOM      6  C   UNL     1      34.100 -20.141 -20.424  0.00  0.00    +0.121 C 
ATOM      7  C   UNL     1      35.864 -21.542 -19.463  0.00  0.00    +0.008 C 
ATOM      8  C   UNL     1      33.129 -21.000 -19.866  0.00  0.00    +0.085 C 
ATOM      9  C   UNL     1      34.883 -22.376 -18.922  0.00  0.00    -0.004 C 
ATOM     10  C   UNL     1      33.532 -22.111 -19.120  0.00  0.00    -0.019 C 
ENDBRANCH   1   4
BRANCH   1  11
ATOM     11  N   UNL     1      34.866 -15.886 -21.289  0.00  0.00    -0.248 NA
ATOM     12  H   UNL     1      35.798 -15.735 -20.902  0.00  0.00    +0.136 HD
BRANCH  11  13
ATOM     13  C   UNL     1      34.302 -14.547 -21.590  0.00  0.00    +0.064 C 
ATOM     14  C   UNL     1      34.249 -14.354 -23.106  0.00  0.00    +0.017 C 
ATOM     15  C   UNL     1      32.911 -14.438 -20.965  0.00  0.00    +0.017 C 
ATOM     16  C   UNL     1      33.571 -13.038 -23.479  0.00  0.00    +0.001 C 
ATOM     17  C   UNL     1      32.232 -13.123 -21.338  0.00  0.00    +0.001 C 
ATOM     18  C   UNL     1      32.184 -12.923 -22.851  0.00  0.00    +0.000 C 
ENDBRANCH  11  13
ENDBRANCH   1  11
TORSDOF 3
ENDMDL
MODEL 5
REMARK VINA RESULT:      -8.5      5.702     10.881
REMARK  Name = 7232
REMARK  3 active torsions:
REMARK  status: ('A' for Active; 'I' for Inactive)
REMARK    1  A    between atoms: S_1  and  C_4
REMARK    2  A    between atoms: S_1  and  N_11
REMARK    3  A    between atoms: N_11  and  C_13
REMARK                            x       y       z     vdW  Elec       q    Type
REMARK                         _______ _______ _______ _____ _____    ______ ____
ROOT
ATOM      1  S   UNL     1      36.775 -21.691 -17.467  0.00  0.00    -0.003 S 
ENDROOT
BRANCH   1   4
ATOM      2  S   UNL     1      35.488 -23.145 -15.138  0.00  0.00    -0.046 S 
ATOM      3  N   UNL     1      37.990 -23.333 -15.737  0.00  0.00    -0.391 NA
ATOM      4  C   UNL     1      36.858 -22.780 -16.076  0.00  0.00    +0.201 C 
ATOM      5  C   UNL     1      36.468 -24.159 -14.146  0.00  0.00    +0.058 C 
ATOM      6  C   UNL     1      37.782 -24.133 -14.622  0.00  0.00    +0.121 C 
ATOM      7  C   UNL     1      36.101 -24.923 -13.026  0.00  0.00    +0.008 C 
ATOM      8  C   UNL     1      38.761 -24.900 -13.954  0.00  0.00    +0.085 C 
ATOM      9  C   UNL     1      37.089 -25.672 -12.383  0.00  0.00    -0.004 C 
ATOM     10  C   UNL     1      38.403 -25.662 -12.839  0.00  0.00    -0.019 C 
ENDBRANCH   1   4
BRANCH   1  11
ATOM     11  N   UNL     1      35.484 -22.376 -18.240  0.00  0.00    -0.248 NA
ATOM     12  H   UNL     1      34.704 -22.364 -17.583  0.00  0.00    +0.136 HD
BRANCH  11  13
ATOM     13  C   UNL     1      34.989 -21.781 -19.507  0.00  0.00    +0.064 C 
ATOM     14  C   UNL     1      33.551 -21.301 -19.307  0.00  0.00    +0.017 C 
ATOM     15  C   UNL     1      35.911 -20.630 -19.913  0.00  0.00    +0.017 C 
ATOM     16  C   UNL     1      33.028 -20.575 -20.544  0.00  0.00    +0.001 C 
ATOM     17  C   UNL     1      35.387 -19.905 -21.149  0.00  0.00    +0.001 C 
ATOM     18  C   UNL     1      33.950 -19.430 -20.957  0.00  0.00    +0.000 C 
ENDBRANCH  11  13
ENDBRANCH   1  11
TORSDOF 3
ENDMDL
MODEL 6
REMARK VINA RESULT:      -8.5      3.773      7.586
REMARK  Name = 7232
REMARK  3 active torsions:
REMARK  status: ('A' for Active; 'I' for Inactive)
REMARK    1  A    between atoms: S_1  and  C_4
REMARK    2  A    between atoms: S_1  and  N_11
REMARK    3  A    between atoms: N_11  and  C_13
REMARK                            x       y       z     vdW  Elec       q    Type
REMARK                         _______ _______ _______ _____ _____    ______ ____
ROOT
ATOM      1  S   UNL     1      33.119 -12.724 -23.402  0.00  0.00    -0.003 S 
ENDROOT
BRANCH   1   4
ATOM      2  S   UNL     1      33.885 -15.455 -24.474  0.00  0.00    -0.046 S 
ATOM      3  N   UNL     1      34.098 -14.779 -21.994  0.00  0.00    -0.391 NA
ATOM      4  C   UNL     1      33.737 -14.365 -23.177  0.00  0.00    +0.201 C 
ATOM      5  C   UNL     1      34.500 -16.636 -23.378  0.00  0.00    +0.058 C 
ATOM      6  C   UNL     1      34.541 -16.090 -22.091  0.00  0.00    +0.121 C 
ATOM      7  C   UNL     1      34.916 -17.952 -23.637  0.00  0.00    +0.008 C 
ATOM      8  C   UNL     1      35.016 -16.890 -21.030  0.00  0.00    +0.085 C 
ATOM      9  C   UNL     1      35.382 -18.722 -22.569  0.00  0.00    -0.004 C 
ATOM     10  C   UNL     1      35.432 -18.200 -21.281  0.00  0.00    -0.019 C 
ENDBRANCH   1   4
BRANCH   1  11
ATOM     11  N   UNL     1      31.807 -12.815 -22.400  0.00  0.00    -0.248 NA
ATOM     12  H   UNL     1      32.012 -13.535 -21.707  0.00  0.00    +0.136 HD
BRANCH  11  13
ATOM     13  C   UNL     1      31.373 -11.609 -21.651  0.00  0.00    +0.064 C 
ATOM     14  C   UNL     1      31.648 -11.817 -20.162  0.00  0.00    +0.017 C 
ATOM     15  C   UNL     1      32.120 -10.389 -22.191  0.00  0.00    +0.017 C 
ATOM     16  C   UNL     1      31.327 -10.562 -19.353  0.00  0.00    +0.001 C 
ATOM     17  C   UNL     1      31.800  -9.134 -21.383  0.00  0.00    +0.001 C 
ATOM     18  C   UNL     1      32.066  -9.340 -19.895  0.00  0.00    +0.000 C 
ENDBRANCH  11  13
ENDBRANCH   1  11
TORSDOF 3
ENDMDL
MODEL 7
REMARK VINA RESULT:      -8.5      4.814      7.175
REMARK  Name = 7232
REMARK  3 active torsions:
REMARK  status: ('A' for Active; 'I' for Inactive)
REMARK    1  A    between atoms: S_1  and  C_4
REMARK    2  A    between atoms: S_1  and  N_11
REMARK    3  A    between atoms: N_11  and  C_13
REMARK                            x       y       z     vdW  Elec       q    Type
REMARK                         _______ _______ _______ _____ _____    ______ ____
ROOT
ATOM      1  S   UNL     1      33.262 -23.442 -17.502  0.00  0.00    -0.003 S 
ENDROOT
BRANCH   1   4
ATOM      2  S   UNL     1      35.540 -21.946 -18.831  0.00  0.00    -0.046 S 
ATOM      3  N   UNL     1      33.049 -21.495 -19.327  0.00  0.00    -0.391 NA
ATOM      4  C   UNL     1      33.875 -22.220 -18.625  0.00  0.00    +0.201 C 
ATOM      5  C   UNL     1      35.169 -20.721 -19.987  0.00  0.00    +0.058 C 
ATOM      6  C   UNL     1      33.780 -20.622 -20.120  0.00  0.00    +0.121 C 
ATOM      7  C   UNL     1      36.043 -19.905 -20.723  0.00  0.00    +0.008 C 
ATOM      8  C   UNL     1      33.251 -19.674 -21.022  0.00  0.00    +0.085 C 
ATOM      9  C   UNL     1      35.493 -18.975 -21.609  0.00  0.00    -0.004 C 
ATOM     10  C   UNL     1      34.115 -18.859 -21.758  0.00  0.00    -0.019 C 
ENDBRANCH   1   4
BRANCH   1  11
ATOM     11  N   UNL     1      31.746 -22.824 -17.268  0.00  0.00    -0.248 NA
ATOM     12  H   UNL     1      31.143 -23.240 -17.977  0.00  0.00    +0.136 HD
BRANCH  11  13
ATOM     13  C   UNL     1      31.071 -23.017 -15.961  0.00  0.00    +0.064 C 
ATOM     14  C   UNL     1      30.248 -24.305 -16.007  0.00  0.00    +0.017 C 
ATOM     15  C   UNL     1      32.126 -23.067 -14.855  0.00  0.00    +0.017 C 
ATOM     16  C   UNL     1      29.622 -24.616 -14.649  0.00  0.00    +0.001 C 
ATOM     17  C   UNL     1      31.500 -23.379 -13.499  0.00  0.00    +0.001 C 
ATOM     18  C   UNL     1      30.671 -24.660 -13.542  0.00  0.00    +0.000 C 
ENDBRANCH  11  13
ENDBRANCH   1  11
TORSDOF 3
ENDMDL
MODEL 8
REMARK VINA RESULT:      -8.4      5.771     10.812
REMARK  Name = 7232
REMARK  3 active torsions:
REMARK  status: ('A' for Active; 'I' for Inactive)
REMARK    1  A    between atoms: S_1  and  C_4
REMARK    2  A    between atoms: S_1  and  N_11
REMARK    3  A    between atoms: N_11  and  C_13
REMARK                            x       y       z     vdW  Elec       q    Type
REMARK                         _______ _______ _______ _____ _____    ______ ____
ROOT
ATOM      1  S   UNL     1      33.666 -23.170 -17.274  0.00  0.00    -0.003 S 
ENDROOT
BRANCH   1   4
ATOM      2  S   UNL     1      33.880 -23.949 -14.351  0.00  0.00    -0.046 S 
ATOM      3  N   UNL     1      35.902 -23.807 -15.947  0.00  0.00    -0.391 NA
ATOM      4  C   UNL     1      34.609 -23.658 -15.860  0.00  0.00    +0.201 C 
ATOM      5  C   UNL     1      35.434 -24.322 -13.701  0.00  0.00    +0.058 C 
ATOM      6  C   UNL     1      36.395 -24.190 -14.708  0.00  0.00    +0.121 C 
ATOM      7  C   UNL     1      35.778 -24.703 -12.394  0.00  0.00    +0.008 C 
ATOM      8  C   UNL     1      37.746 -24.450 -14.394  0.00  0.00    +0.085 C 
ATOM      9  C   UNL     1      37.122 -24.954 -12.110  0.00  0.00    -0.004 C 
ATOM     10  C   UNL     1      38.096 -24.830 -13.095  0.00  0.00    -0.019 C 
ENDBRANCH   1   4
BRANCH   1  11
ATOM     11  N   UNL     1      34.912 -22.686 -18.247  0.00  0.00    -0.248 NA
ATOM     12  H   UNL     1      35.431 -23.525 -18.505  0.00  0.00    +0.136 HD
BRANCH  11  13
ATOM     13  C   UNL     1      34.617 -21.958 -19.506  0.00  0.00    +0.064 C 
ATOM     14  C   UNL     1      33.254 -21.276 -19.383  0.00  0.00    +0.017 C 
ATOM     15  C   UNL     1      35.729 -20.941 -19.769  0.00  0.00    +0.017 C 
ATOM     16  C   UNL     1      32.948 -20.416 -20.607  0.00  0.00    +0.001 C 
ATOM     17  C   UNL     1      35.422 -20.081 -20.991  0.00  0.00    +0.001 C 
ATOM     18  C   UNL     1      34.059 -19.404 -20.876  0.00  0.00    +0.000 C 
ENDBRANCH  11  13
ENDBRANCH   1  11
TORSDOF 3
ENDMDL
MODEL 9
REMARK VINA RESULT:      -8.3      3.686      5.641
REMARK  Name = 7232
REMARK  3 active torsions:
REMARK  status: ('A' for Active; 'I' for Inactive)
REMARK    1  A    between atoms: S_1  and  C_4
REMARK    2  A    between atoms: S_1  and  N_11
REMARK    3  A    between atoms: N_11  and  C_13
REMARK                            x       y       z     vdW  Elec       q    Type
REMARK                         _______ _______ _______ _____ _____    ______ ____
ROOT
ATOM      1  S   UNL     1      32.926 -13.875 -23.790  0.00  0.00    -0.003 S 
ENDROOT
BRANCH   1   4
ATOM      2  S   UNL     1      32.078 -11.236 -22.560  0.00  0.00    -0.046 S 
ATOM      3  N   UNL     1      34.076 -11.488 -24.172  0.00  0.00    -0.391 NA
ATOM      4  C   UNL     1      33.118 -12.132 -23.564  0.00  0.00    +0.201 C 
ATOM      5  C   UNL     1      32.971  -9.812 -22.948  0.00  0.00    +0.058 C 
ATOM      6  C   UNL     1      34.005 -10.146 -23.828  0.00  0.00    +0.121 C 
ATOM      7  C   UNL     1      32.770  -8.494 -22.507  0.00  0.00    +0.008 C 
ATOM      8  C   UNL     1      34.867  -9.124 -24.279  0.00  0.00    +0.085 C 
ATOM      9  C   UNL     1      33.637  -7.502 -22.969  0.00  0.00    -0.004 C 
ATOM     10  C   UNL     1      34.673  -7.810 -23.843  0.00  0.00    -0.019 C 
ENDBRANCH   1   4
BRANCH   1  11
ATOM     11  N   UNL     1      34.357 -14.369 -23.125  0.00  0.00    -0.248 NA
ATOM     12  H   UNL     1      34.211 -14.430 -22.118  0.00  0.00    +0.136 HD
BRANCH  11  13
ATOM     13  C   UNL     1      34.955 -15.659 -23.553  0.00  0.00    +0.064 C 
ATOM     14  C   UNL     1      34.961 -16.626 -22.368  0.00  0.00    +0.017 C 
ATOM     15  C   UNL     1      34.151 -16.220 -24.726  0.00  0.00    +0.017 C 
ATOM     16  C   UNL     1      35.460 -18.009 -22.778  0.00  0.00    +0.001 C 
ATOM     17  C   UNL     1      34.649 -17.603 -25.136  0.00  0.00    +0.001 C 
ATOM     18  C   UNL     1      34.664 -18.569 -23.954  0.00  0.00    +0.000 C 
ENDBRANCH  11  13
ENDBRANCH   1  11
TORSDOF 3
ENDMDL
