MODEL 1
REMARK VINA RESULT:      -5.9      0.000      0.000
REMARK  Name = 89508529
REMARK  6 active torsions:
REMARK  status: ('A' for Active; 'I' for Inactive)
REMARK    1  A    between atoms: N_2  and  C_31
REMARK    2  A    between atoms: C_3  and  C_13
REMARK    3  A    between atoms: C_4  and  C_20
REMARK    4  A    between atoms: N_19  and  C_23
REMARK    5  A    between atoms: C_26  and  C_30
REMARK    6  A    between atoms: C_31  and  C_35
REMARK                            x       y       z     vdW  Elec       q    Type
REMARK                         _______ _______ _______ _____ _____    ______ ____
ROOT
ATOM      1  O   UNL     1      35.342  -7.444 -22.527  0.00  0.00    -0.270 OA
ATOM      2  N   UNL     1      33.123  -7.832 -21.937  0.00  0.00    -0.265 N 
ATOM      3  C   UNL     1      31.896  -8.634 -22.109  0.00  0.00    +0.113 C 
ATOM      4  C   UNL     1      31.687  -9.050 -23.578  0.00  0.00    +0.122 C 
ATOM      5  C   UNL     1      32.962  -9.563 -24.187  0.00  0.00    -0.008 C 
ATOM      6  C   UNL     1      34.203  -9.066 -23.769  0.00  0.00    +0.050 C 
ATOM      7  C   UNL     1      34.281  -8.043 -22.694  0.00  0.00    +0.249 C 
ATOM      8  C   UNL     1      32.919 -10.518 -25.214  0.00  0.00    -0.004 C 
ATOM      9  C   UNL     1      35.383  -9.525 -24.367  0.00  0.00    +0.004 C 
ATOM     10  C   UNL     1      34.096 -10.977 -25.805  0.00  0.00    -0.000 C 
ATOM     11  C   UNL     1      35.326 -10.482 -25.381  0.00  0.00    +0.000 C 
ENDROOT
BRANCH   3  13
ATOM     12  N   UNL     1      31.667 -12.225 -20.873  0.00  0.00    -0.243 NA
ATOM     13  C   UNL     1      31.806  -9.828 -21.165  0.00  0.00    +0.016 C 
ATOM     14  C   UNL     1      31.777  -9.651 -19.786  0.00  0.00    +0.000 C 
ATOM     15  C   UNL     1      31.748 -11.124 -21.654  0.00  0.00    +0.096 C 
ATOM     16  C   UNL     1      31.694 -10.760 -18.950  0.00  0.00    +0.020 C 
ATOM     17  C   UNL     1      31.641 -12.014 -19.537  0.00  0.00    +0.099 C 
ENDBRANCH   3  13
BRANCH   4  20
ATOM     18  O   UNL     1      30.068  -7.934 -24.914  0.00  0.00    -0.274 OA
ATOM     19  N   UNL     1      32.091  -6.848 -24.400  0.00  0.00    -0.284 N 
ATOM     20  C   UNL     1      31.170  -7.887 -24.378  0.00  0.00    +0.232 C 
ATOM     21  H   UNL     1      32.930  -6.998 -23.908  0.00  0.00    +0.155 HD
BRANCH  19  23
ATOM     22  F   UNL     1      31.565  -1.939 -26.927  0.00  0.00    -0.203 F 
ATOM     23  C   UNL     1      31.960  -5.596 -25.048  0.00  0.00    +0.051 C 
ATOM     24  C   UNL     1      32.847  -5.240 -26.064  0.00  0.00    +0.027 C 
ATOM     25  C   UNL     1      30.944  -4.717 -24.669  0.00  0.00    +0.017 C 
ATOM     26  C   UNL     1      32.718  -4.007 -26.702  0.00  0.00    +0.097 C 
ATOM     27  C   UNL     1      30.815  -3.484 -25.308  0.00  0.00    +0.032 C 
ATOM     28  C   UNL     1      31.702  -3.128 -26.323  0.00  0.00    +0.150 C 
BRANCH  26  30
ATOM     29  N   UNL     1      34.370  -3.353 -28.586  0.00  0.00    -0.191 NA
ATOM     30  C   UNL     1      33.629  -3.646 -27.742  0.00  0.00    +0.103 C 
ENDBRANCH  26  30
ENDBRANCH  19  23
ENDBRANCH   4  20
BRANCH   2  31
ATOM     31  C   UNL     1      33.124  -6.844 -20.865  0.00  0.00    +0.198 C 
BRANCH  31  35
ATOM     32  F   UNL     1      32.356  -4.837 -21.849  0.00  0.00    -0.168 F 
ATOM     33  F   UNL     1      30.894  -6.430 -21.528  0.00  0.00    -0.168 F 
ATOM     34  F   UNL     1      31.677  -5.307 -19.831  0.00  0.00    -0.168 F 
ATOM     35  C   UNL     1      32.003  -5.848 -21.025  0.00  0.00    +0.416 C 
ENDBRANCH  31  35
ENDBRANCH   2  31
TORSDOF 6
ENDMDL
MODEL 2
REMARK VINA RESULT:      -5.7     14.259     18.277
REMARK  Name = 89508529
REMARK  6 active torsions:
REMARK  status: ('A' for Active; 'I' for Inactive)
REMARK    1  A    between atoms: N_2  and  C_31
REMARK    2  A    between atoms: C_3  and  C_13
REMARK    3  A    between atoms: C_4  and  C_20
REMARK    4  A    between atoms: N_19  and  C_23
REMARK    5  A    between atoms: C_26  and  C_30
REMARK    6  A    between atoms: C_31  and  C_35
REMARK                            x       y       z     vdW  Elec       q    Type
REMARK                         _______ _______ _______ _____ _____    ______ ____
ROOT
ATOM      1  O   UNL     1      35.423 -26.595 -15.876  0.00  0.00    -0.270 OA
ATOM      2  N   UNL     1      36.704 -24.961 -14.821  0.00  0.00    -0.265 N 
ATOM      3  C   UNL     1      36.759 -23.668 -14.113  0.00  0.00    +0.113 C 
ATOM      4  C   UNL     1      35.757 -22.653 -14.696  0.00  0.00    +0.122 C 
ATOM      5  C   UNL     1      34.410 -23.283 -14.921  0.00  0.00    -0.008 C 
ATOM      6  C   UNL     1      34.303 -24.641 -15.246  0.00  0.00    +0.050 C 
ATOM      7  C   UNL     1      35.519 -25.489 -15.346  0.00  0.00    +0.249 C 
ATOM      8  C   UNL     1      33.246 -22.503 -14.847  0.00  0.00    -0.004 C 
ATOM      9  C   UNL     1      33.047 -25.210 -15.487  0.00  0.00    +0.004 C 
ATOM     10  C   UNL     1      31.995 -23.073 -15.083  0.00  0.00    -0.000 C 
ATOM     11  C   UNL     1      31.896 -24.425 -15.401  0.00  0.00    +0.000 C 
ENDROOT
BRANCH   3  13
ATOM     12  N   UNL     1      37.181 -22.955 -10.400  0.00  0.00    -0.243 NA
ATOM     13  C   UNL     1      36.622 -23.791 -12.599  0.00  0.00    +0.016 C 
ATOM     14  C   UNL     1      35.856 -24.802 -12.028  0.00  0.00    +0.000 C 
ATOM     15  C   UNL     1      37.259 -22.901 -11.748  0.00  0.00    +0.096 C 
ATOM     16  C   UNL     1      35.751 -24.889 -10.644  0.00  0.00    +0.020 C 
ATOM     17  C   UNL     1      36.427 -23.950  -9.881  0.00  0.00    +0.099 C 
ENDBRANCH   3  13
BRANCH   4  20
ATOM     18  O   UNL     1      37.443 -21.712 -16.085  0.00  0.00    -0.274 OA
ATOM     19  N   UNL     1      35.291 -22.080 -16.964  0.00  0.00    -0.284 N 
ATOM     20  C   UNL     1      36.280 -22.092 -15.989  0.00  0.00    +0.232 C 
ATOM     21  H   UNL     1      34.410 -22.427 -16.696  0.00  0.00    +0.155 HD
BRANCH  19  23
ATOM     22  F   UNL     1      35.758 -20.310 -22.200  0.00  0.00    -0.203 F 
ATOM     23  C   UNL     1      35.406 -21.627 -18.301  0.00  0.00    +0.051 C 
ATOM     24  C   UNL     1      34.285 -21.136 -18.969  0.00  0.00    +0.027 C 
ATOM     25  C   UNL     1      36.641 -21.672 -18.949  0.00  0.00    +0.017 C 
ATOM     26  C   UNL     1      34.398 -20.690 -20.286  0.00  0.00    +0.097 C 
ATOM     27  C   UNL     1      36.754 -21.226 -20.265  0.00  0.00    +0.032 C 
ATOM     28  C   UNL     1      35.633 -20.736 -20.934  0.00  0.00    +0.150 C 
BRANCH  26  30
ATOM     29  N   UNL     1      32.312 -19.781 -21.521  0.00  0.00    -0.191 NA
ATOM     30  C   UNL     1      33.246 -20.189 -20.968  0.00  0.00    +0.103 C 
ENDBRANCH  26  30
ENDBRANCH  19  23
ENDBRANCH   4  20
BRANCH   2  31
ATOM     31  C   UNL     1      37.937 -25.736 -14.884  0.00  0.00    +0.198 C 
BRANCH  31  35
ATOM     32  F   UNL     1      38.924 -23.740 -15.676  0.00  0.00    -0.168 F 
ATOM     33  F   UNL     1      39.526 -24.451 -13.698  0.00  0.00    -0.168 F 
ATOM     34  F   UNL     1      40.197 -25.501 -15.487  0.00  0.00    -0.168 F 
ATOM     35  C   UNL     1      39.153 -24.846 -14.934  0.00  0.00    +0.416 C 
ENDBRANCH  31  35
ENDBRANCH   2  31
TORSDOF 6
ENDMDL
MODEL 3
REMARK VINA RESULT:      -5.3     16.387     18.803
REMARK  Name = 89508529
REMARK  6 active torsions:
REMARK  status: ('A' for Active; 'I' for Inactive)
REMARK    1  A    between atoms: N_2  and  C_31
REMARK    2  A    between atoms: C_3  and  C_13
REMARK    3  A    between atoms: C_4  and  C_20
REMARK    4  A    between atoms: N_19  and  C_23
REMARK    5  A    between atoms: C_26  and  C_30
REMARK    6  A    between atoms: C_31  and  C_35
REMARK                            x       y       z     vdW  Elec       q    Type
REMARK                         _______ _______ _______ _____ _____    ______ ____
ROOT
ATOM      1  O   UNL     1      37.520 -21.315 -14.164  0.00  0.00    -0.270 OA
ATOM      2  N   UNL     1      36.326 -23.295 -13.886  0.00  0.00    -0.265 N 
ATOM      3  C   UNL     1      35.560 -24.399 -14.495  0.00  0.00    +0.113 C 
ATOM      4  C   UNL     1      34.676 -23.908 -15.657  0.00  0.00    +0.122 C 
ATOM      5  C   UNL     1      35.436 -22.983 -16.568  0.00  0.00    -0.008 C 
ATOM      6  C   UNL     1      36.453 -22.162 -16.064  0.00  0.00    +0.050 C 
ATOM      7  C   UNL     1      36.817 -22.212 -14.625  0.00  0.00    +0.249 C 
ATOM      8  C   UNL     1      35.104 -22.904 -17.929  0.00  0.00    -0.004 C 
ATOM      9  C   UNL     1      37.131 -21.280 -16.914  0.00  0.00    +0.004 C 
ATOM     10  C   UNL     1      35.784 -22.028 -18.775  0.00  0.00    -0.000 C 
ATOM     11  C   UNL     1      36.797 -21.218 -18.268  0.00  0.00    +0.000 C 
ENDROOT
BRANCH   3  13
ATOM     12  N   UNL     1      36.674 -27.596 -16.229  0.00  0.00    -0.243 NA
ATOM     13  C   UNL     1      36.419 -25.591 -14.902  0.00  0.00    +0.016 C 
ATOM     14  C   UNL     1      37.684 -25.782 -14.357  0.00  0.00    +0.000 C 
ATOM     15  C   UNL     1      35.964 -26.518 -15.826  0.00  0.00    +0.096 C 
ATOM     16  C   UNL     1      38.444 -26.880 -14.747  0.00  0.00    +0.020 C 
ATOM     17  C   UNL     1      37.899 -27.750 -15.678  0.00  0.00    +0.099 C 
ENDBRANCH   3  13
BRANCH   4  20
ATOM     18  O   UNL     1      33.547 -22.398 -14.208  0.00  0.00    -0.274 OA
ATOM     19  N   UNL     1      32.312 -23.620 -15.795  0.00  0.00    -0.284 N 
ATOM     20  C   UNL     1      33.456 -23.210 -15.124  0.00  0.00    +0.232 C 
ATOM     21  H   UNL     1      32.439 -24.289 -16.507  0.00  0.00    +0.155 HD
BRANCH  19  23
ATOM     22  F   UNL     1      27.108 -21.917 -14.915  0.00  0.00    -0.203 F 
ATOM     23  C   UNL     1      30.982 -23.187 -15.575  0.00  0.00    +0.051 C 
ATOM     24  C   UNL     1      30.064 -23.193 -16.624  0.00  0.00    +0.027 C 
ATOM     25  C   UNL     1      30.592 -22.752 -14.308  0.00  0.00    +0.017 C 
ATOM     26  C   UNL     1      28.754 -22.765 -16.407  0.00  0.00    +0.097 C 
ATOM     27  C   UNL     1      29.282 -22.325 -14.091  0.00  0.00    +0.032 C 
ATOM     28  C   UNL     1      28.363 -22.331 -15.140  0.00  0.00    +0.150 C 
BRANCH  26  30
ATOM     29  N   UNL     1      27.054 -22.778 -18.360  0.00  0.00    -0.191 NA
ATOM     30  C   UNL     1      27.816 -22.772 -17.485  0.00  0.00    +0.103 C 
ENDBRANCH  26  30
ENDBRANCH  19  23
ENDBRANCH   4  20
BRANCH   2  31
ATOM     31  C   UNL     1      36.642 -23.410 -12.467  0.00  0.00    +0.198 C 
BRANCH  31  35
ATOM     32  F   UNL     1      34.328 -23.483 -11.996  0.00  0.00    -0.168 F 
ATOM     33  F   UNL     1      35.427 -25.371 -11.958  0.00  0.00    -0.168 F 
ATOM     34  F   UNL     1      35.712 -23.909 -10.367  0.00  0.00    -0.168 F 
ATOM     35  C   UNL     1      35.516 -24.051 -11.696  0.00  0.00    +0.416 C 
ENDBRANCH  31  35
ENDBRANCH   2  31
TORSDOF 6
ENDMDL
MODEL 4
REMARK VINA RESULT:      -5.1     14.384     18.272
REMARK  Name = 89508529
REMARK  6 active torsions:
REMARK  status: ('A' for Active; 'I' for Inactive)
REMARK    1  A    between atoms: N_2  and  C_31
REMARK    2  A    between atoms: C_3  and  C_13
REMARK    3  A    between atoms: C_4  and  C_20
REMARK    4  A    between atoms: N_19  and  C_23
REMARK    5  A    between atoms: C_26  and  C_30
REMARK    6  A    between atoms: C_31  and  C_35
REMARK                            x       y       z     vdW  Elec       q    Type
REMARK                         _______ _______ _______ _____ _____    ______ ____
ROOT
ATOM      1  O   UNL     1      35.623 -26.525 -16.007  0.00  0.00    -0.270 OA
ATOM      2  N   UNL     1      36.764 -24.715 -15.088  0.00  0.00    -0.265 N 
ATOM      3  C   UNL     1      36.710 -23.392 -14.437  0.00  0.00    +0.113 C 
ATOM      4  C   UNL     1      35.576 -22.520 -15.008  0.00  0.00    +0.122 C 
ATOM      5  C   UNL     1      34.297 -23.302 -15.136  0.00  0.00    -0.008 C 
ATOM      6  C   UNL     1      34.326 -24.677 -15.399  0.00  0.00    +0.050 C 
ATOM      7  C   UNL     1      35.621 -25.392 -15.528  0.00  0.00    +0.249 C 
ATOM      8  C   UNL     1      33.059 -22.650 -15.033  0.00  0.00    -0.004 C 
ATOM      9  C   UNL     1      33.130 -25.389 -15.550  0.00  0.00    +0.004 C 
ATOM     10  C   UNL     1      31.869 -23.363 -15.179  0.00  0.00    -0.000 C 
ATOM     11  C   UNL     1      31.905 -24.731 -15.436  0.00  0.00    +0.000 C 
ENDROOT
BRANCH   3  13
ATOM     12  N   UNL     1      37.584 -22.779 -10.786  0.00  0.00    -0.243 NA
ATOM     13  C   UNL     1      36.660 -23.459 -12.914  0.00  0.00    +0.016 C 
ATOM     14  C   UNL     1      35.700 -24.224 -12.261  0.00  0.00    +0.000 C 
ATOM     15  C   UNL     1      37.572 -22.762 -12.137  0.00  0.00    +0.096 C 
ATOM     16  C   UNL     1      35.681 -24.267 -10.871  0.00  0.00    +0.020 C 
ATOM     17  C   UNL     1      36.636 -23.533 -10.186  0.00  0.00    +0.099 C 
ENDBRANCH   3  13
BRANCH   4  20
ATOM     18  O   UNL     1      37.130 -21.635 -16.575  0.00  0.00    -0.274 OA
ATOM     19  N   UNL     1      34.878 -21.899 -17.203  0.00  0.00    -0.284 N 
ATOM     20  C   UNL     1      35.971 -21.966 -16.348  0.00  0.00    +0.232 C 
ATOM     21  H   UNL     1      34.019 -22.211 -16.838  0.00  0.00    +0.155 HD
BRANCH  19  23
ATOM     22  F   UNL     1      34.785 -20.086 -22.444  0.00  0.00    -0.203 F 
ATOM     23  C   UNL     1      34.859 -21.435 -18.540  0.00  0.00    +0.051 C 
ATOM     24  C   UNL     1      35.974 -20.787 -19.070  0.00  0.00    +0.027 C 
ATOM     25  C   UNL     1      33.723 -21.626 -19.328  0.00  0.00    +0.017 C 
ATOM     26  C   UNL     1      35.955 -20.329 -20.387  0.00  0.00    +0.097 C 
ATOM     27  C   UNL     1      33.704 -21.168 -20.646  0.00  0.00    +0.032 C 
ATOM     28  C   UNL     1      34.819 -20.520 -21.175  0.00  0.00    +0.150 C 
BRANCH  26  30
ATOM     29  N   UNL     1      38.030 -19.126 -21.363  0.00  0.00    -0.191 NA
ATOM     30  C   UNL     1      37.100 -19.665 -20.926  0.00  0.00    +0.103 C 
ENDBRANCH  26  30
ENDBRANCH  19  23
ENDBRANCH   4  20
BRANCH   2  31
ATOM     31  C   UNL     1      38.071 -25.354 -15.184  0.00  0.00    +0.198 C 
BRANCH  31  35
ATOM     32  F   UNL     1      38.954 -27.409 -14.420  0.00  0.00    -0.168 F 
ATOM     33  F   UNL     1      39.081 -25.690 -13.075  0.00  0.00    -0.168 F 
ATOM     34  F   UNL     1      37.158 -26.647 -13.447  0.00  0.00    -0.168 F 
ATOM     35  C   UNL     1      38.324 -26.282 -14.023  0.00  0.00    +0.416 C 
ENDBRANCH  31  35
ENDBRANCH   2  31
TORSDOF 6
ENDMDL
MODEL 5
REMARK VINA RESULT:      -4.5      3.391      6.998
REMARK  Name = 89508529
REMARK  6 active torsions:
REMARK  status: ('A' for Active; 'I' for Inactive)
REMARK    1  A    between atoms: N_2  and  C_31
REMARK    2  A    between atoms: C_3  and  C_13
REMARK    3  A    between atoms: C_4  and  C_20
REMARK    4  A    between atoms: N_19  and  C_23
REMARK    5  A    between atoms: C_26  and  C_30
REMARK    6  A    between atoms: C_31  and  C_35
REMARK                            x       y       z     vdW  Elec       q    Type
REMARK                         _______ _______ _______ _____ _____    ______ ____
ROOT
ATOM      1  O   UNL     1      30.196  -8.095 -24.963  0.00  0.00    -0.270 OA
ATOM      2  N   UNL     1      31.454  -8.991 -23.220  0.00  0.00    -0.265 N 
ATOM      3  C   UNL     1      32.698  -8.972 -22.427  0.00  0.00    +0.113 C 
ATOM      4  C   UNL     1      33.931  -8.677 -23.303  0.00  0.00    +0.122 C 
ATOM      5  C   UNL     1      33.671  -7.533 -24.244  0.00  0.00    -0.008 C 
ATOM      6  C   UNL     1      32.383  -7.297 -24.742  0.00  0.00    +0.050 C 
ATOM      7  C   UNL     1      31.246  -8.158 -24.325  0.00  0.00    +0.249 C 
ATOM      8  C   UNL     1      34.728  -6.712 -24.666  0.00  0.00    -0.004 C 
ATOM      9  C   UNL     1      32.158  -6.250 -25.644  0.00  0.00    +0.004 C 
ATOM     10  C   UNL     1      34.500  -5.667 -25.561  0.00  0.00    -0.000 C 
ATOM     11  C   UNL     1      33.217  -5.436 -26.048  0.00  0.00    +0.000 C 
ENDROOT
BRANCH   3  13
ATOM     12  N   UNL     1      32.311  -7.802 -18.827  0.00  0.00    -0.243 NA
ATOM     13  C   UNL     1      32.636  -8.054 -21.210  0.00  0.00    +0.016 C 
ATOM     14  C   UNL     1      32.833  -6.683 -21.336  0.00  0.00    +0.000 C 
ATOM     15  C   UNL     1      32.380  -8.559 -19.945  0.00  0.00    +0.096 C 
ATOM     16  C   UNL     1      32.769  -5.871 -20.208  0.00  0.00    +0.020 C 
ATOM     17  C   UNL     1      32.507  -6.474 -18.988  0.00  0.00    +0.099 C 
ENDBRANCH   3  13
BRANCH   4  20
ATOM     18  O   UNL     1      35.241  -9.866 -24.891  0.00  0.00    -0.274 OA
ATOM     19  N   UNL     1      33.508 -10.981 -23.754  0.00  0.00    -0.284 N 
ATOM     20  C   UNL     1      34.318  -9.902 -24.084  0.00  0.00    +0.232 C 
ATOM     21  H   UNL     1      32.812 -10.814 -23.078  0.00  0.00    +0.155 HD
BRANCH  19  23
ATOM     22  F   UNL     1      33.747 -16.121 -25.823  0.00  0.00    -0.203 F 
ATOM     23  C   UNL     1      33.570 -12.295 -24.278  0.00  0.00    +0.051 C 
ATOM     24  C   UNL     1      33.910 -13.361 -23.447  0.00  0.00    +0.027 C 
ATOM     25  C   UNL     1      33.291 -12.522 -25.626  0.00  0.00    +0.017 C 
ATOM     26  C   UNL     1      33.971 -14.656 -23.964  0.00  0.00    +0.097 C 
ATOM     27  C   UNL     1      33.352 -13.816 -26.142  0.00  0.00    +0.032 C 
ATOM     28  C   UNL     1      33.692 -14.883 -25.312  0.00  0.00    +0.150 C 
BRANCH  26  30
ATOM     29  N   UNL     1      34.606 -16.631 -22.414  0.00  0.00    -0.191 NA
ATOM     30  C   UNL     1      34.322 -15.746 -23.109  0.00  0.00    +0.103 C 
ENDBRANCH  26  30
ENDBRANCH  19  23
ENDBRANCH   4  20
BRANCH   2  31
ATOM     31  C   UNL     1      30.384  -9.864 -22.754  0.00  0.00    +0.198 C 
BRANCH  31  35
ATOM     32  F   UNL     1      30.876 -12.174 -22.693  0.00  0.00    -0.168 F 
ATOM     33  F   UNL     1      32.200 -10.828 -21.591  0.00  0.00    -0.168 F 
ATOM     34  F   UNL     1      30.189 -11.231 -20.852  0.00  0.00    -0.168 F 
ATOM     35  C   UNL     1      30.921 -11.034 -21.970  0.00  0.00    +0.416 C 
ENDBRANCH  31  35
ENDBRANCH   2  31
TORSDOF 6
ENDMDL
MODEL 6
REMARK VINA RESULT:      -4.4      3.059      7.461
REMARK  Name = 89508529
REMARK  6 active torsions:
REMARK  status: ('A' for Active; 'I' for Inactive)
REMARK    1  A    between atoms: N_2  and  C_31
REMARK    2  A    between atoms: C_3  and  C_13
REMARK    3  A    between atoms: C_4  and  C_20
REMARK    4  A    between atoms: N_19  and  C_23
REMARK    5  A    between atoms: C_26  and  C_30
REMARK    6  A    between atoms: C_31  and  C_35
REMARK                            x       y       z     vdW  Elec       q    Type
REMARK                         _______ _______ _______ _____ _____    ______ ____
ROOT
ATOM      1  O   UNL     1      35.301  -7.750 -22.400  0.00  0.00    -0.270 OA
ATOM      2  N   UNL     1      33.629  -7.720 -24.021  0.00  0.00    -0.265 N 
ATOM      3  C   UNL     1      32.234  -7.402 -24.385  0.00  0.00    +0.113 C 
ATOM      4  C   UNL     1      31.258  -7.714 -23.235  0.00  0.00    +0.122 C 
ATOM      5  C   UNL     1      31.782  -7.205 -21.921  0.00  0.00    -0.008 C 
ATOM      6  C   UNL     1      33.160  -7.149 -21.676  0.00  0.00    +0.050 C 
ATOM      7  C   UNL     1      34.128  -7.565 -22.723  0.00  0.00    +0.249 C 
ATOM      8  C   UNL     1      30.891  -6.819 -20.908  0.00  0.00    -0.004 C 
ATOM      9  C   UNL     1      33.637  -6.706 -20.436  0.00  0.00    +0.004 C 
ATOM     10  C   UNL     1      31.369  -6.373 -19.676  0.00  0.00    -0.000 C 
ATOM     11  C   UNL     1      32.740  -6.316 -19.441  0.00  0.00    +0.000 C 
ENDROOT
BRANCH   3  13
ATOM     12  N   UNL     1      30.723  -3.963 -24.986  0.00  0.00    -0.243 NA
ATOM     13  C   UNL     1      32.047  -5.986 -24.919  0.00  0.00    +0.016 C 
ATOM     14  C   UNL     1      32.970  -5.420 -25.792  0.00  0.00    +0.000 C 
ATOM     15  C   UNL     1      30.950  -5.222 -24.550  0.00  0.00    +0.096 C 
ATOM     16  C   UNL     1      32.770  -4.127 -26.262  0.00  0.00    +0.020 C 
ATOM     17  C   UNL     1      31.642  -3.447 -25.833  0.00  0.00    +0.099 C 
ENDBRANCH   3  13
BRANCH   4  20
ATOM     18  O   UNL     1      30.020  -9.699 -23.661  0.00  0.00    -0.274 OA
ATOM     19  N   UNL     1      32.027  -9.827 -22.440  0.00  0.00    -0.284 N 
ATOM     20  C   UNL     1      31.013  -9.195 -23.148  0.00  0.00    +0.232 C 
ATOM     21  H   UNL     1      32.748  -9.250 -22.099  0.00  0.00    +0.155 HD
BRANCH  19  23
ATOM     22  F   UNL     1      32.476 -15.237 -21.299  0.00  0.00    -0.203 F 
ATOM     23  C   UNL     1      32.144 -11.209 -22.153  0.00  0.00    +0.051 C 
ATOM     24  C   UNL     1      32.615 -12.087 -23.129  0.00  0.00    +0.027 C 
ATOM     25  C   UNL     1      31.786 -11.692 -20.894  0.00  0.00    +0.017 C 
ATOM     26  C   UNL     1      32.729 -13.448 -22.846  0.00  0.00    +0.097 C 
ATOM     27  C   UNL     1      31.901 -13.053 -20.611  0.00  0.00    +0.032 C 
ATOM     28  C   UNL     1      32.372 -13.931 -21.587  0.00  0.00    +0.150 C 
BRANCH  26  30
ATOM     29  N   UNL     1      33.603 -15.071 -24.664  0.00  0.00    -0.191 NA
ATOM     30  C   UNL     1      33.212 -14.344 -23.849  0.00  0.00    +0.103 C 
ENDBRANCH  26  30
ENDBRANCH  19  23
ENDBRANCH   4  20
BRANCH   2  31
ATOM     31  C   UNL     1      34.520  -8.127 -25.100  0.00  0.00    +0.198 C 
BRANCH  31  35
ATOM     32  F   UNL     1      35.304 -10.049 -23.972  0.00  0.00    -0.168 F 
ATOM     33  F   UNL     1      33.563 -10.280 -25.273  0.00  0.00    -0.168 F 
ATOM     34  F   UNL     1      35.541  -9.973 -26.138  0.00  0.00    -0.168 F 
ATOM     35  C   UNL     1      34.730  -9.620 -25.117  0.00  0.00    +0.416 C 
ENDBRANCH  31  35
ENDBRANCH   2  31
TORSDOF 6
ENDMDL
MODEL 7
REMARK VINA RESULT:      -3.7      2.602      4.596
REMARK  Name = 89508529
REMARK  6 active torsions:
REMARK  status: ('A' for Active; 'I' for Inactive)
REMARK    1  A    between atoms: N_2  and  C_31
REMARK    2  A    between atoms: C_3  and  C_13
REMARK    3  A    between atoms: C_4  and  C_20
REMARK    4  A    between atoms: N_19  and  C_23
REMARK    5  A    between atoms: C_26  and  C_30
REMARK    6  A    between atoms: C_31  and  C_35
REMARK                            x       y       z     vdW  Elec       q    Type
REMARK                         _______ _______ _______ _____ _____    ______ ____
ROOT
ATOM      1  O   UNL     1      30.012  -8.344 -24.602  0.00  0.00    -0.270 OA
ATOM      2  N   UNL     1      31.876  -9.214 -23.511  0.00  0.00    -0.265 N 
ATOM      3  C   UNL     1      32.870  -9.094 -22.427  0.00  0.00    +0.113 C 
ATOM      4  C   UNL     1      33.288  -7.629 -22.195  0.00  0.00    +0.122 C 
ATOM      5  C   UNL     1      32.093  -6.718 -22.167  0.00  0.00    -0.008 C 
ATOM      6  C   UNL     1      30.954  -7.010 -22.929  0.00  0.00    +0.050 C 
ATOM      7  C   UNL     1      30.899  -8.243 -23.757  0.00  0.00    +0.249 C 
ATOM      8  C   UNL     1      32.122  -5.539 -21.406  0.00  0.00    -0.004 C 
ATOM      9  C   UNL     1      29.860  -6.137 -22.923  0.00  0.00    +0.004 C 
ATOM     10  C   UNL     1      31.029  -4.674 -21.398  0.00  0.00    -0.000 C 
ATOM     11  C   UNL     1      29.899  -4.973 -22.154  0.00  0.00    +0.000 C 
ENDROOT
BRANCH   3  13
ATOM     12  N   UNL     1      32.134  -9.641 -18.734  0.00  0.00    -0.243 NA
ATOM     13  C   UNL     1      32.447  -9.774 -21.129  0.00  0.00    +0.016 C 
ATOM     14  C   UNL     1      32.006 -11.092 -21.120  0.00  0.00    +0.000 C 
ATOM     15  C   UNL     1      32.493  -9.097 -19.919  0.00  0.00    +0.096 C 
ATOM     16  C   UNL     1      31.628 -11.686 -19.920  0.00  0.00    +0.020 C 
ATOM     17  C   UNL     1      31.711 -10.924 -18.766  0.00  0.00    +0.099 C 
ENDBRANCH   3  13
BRANCH   4  20
ATOM     18  O   UNL     1      35.438  -7.455 -23.197  0.00  0.00    -0.274 OA
ATOM     19  N   UNL     1      33.582  -6.476 -24.263  0.00  0.00    -0.284 N 
ATOM     20  C   UNL     1      34.243  -7.186 -23.268  0.00  0.00    +0.232 C 
ATOM     21  H   UNL     1      32.612  -6.359 -24.144  0.00  0.00    +0.155 HD
BRANCH  19  23
ATOM     22  F   UNL     1      35.797  -4.239 -28.829  0.00  0.00    -0.203 F 
ATOM     23  C   UNL     1      34.144  -5.903 -25.429  0.00  0.00    +0.051 C 
ATOM     24  C   UNL     1      33.364  -5.088 -26.250  0.00  0.00    +0.027 C 
ATOM     25  C   UNL     1      35.476  -6.154 -25.757  0.00  0.00    +0.017 C 
ATOM     26  C   UNL     1      33.918  -4.524 -27.399  0.00  0.00    +0.097 C 
ATOM     27  C   UNL     1      36.029  -5.589 -26.906  0.00  0.00    +0.032 C 
ATOM     28  C   UNL     1      35.250  -4.775 -27.728  0.00  0.00    +0.150 C 
BRANCH  26  30
ATOM     29  N   UNL     1      32.464  -3.014 -28.920  0.00  0.00    -0.191 NA
ATOM     30  C   UNL     1      33.115  -3.690 -28.238  0.00  0.00    +0.103 C 
ENDBRANCH  26  30
ENDBRANCH  19  23
ENDBRANCH   4  20
BRANCH   2  31
ATOM     31  C   UNL     1      31.885 -10.450 -24.284  0.00  0.00    +0.198 C 
BRANCH  31  35
ATOM     32  F   UNL     1      34.116  -9.827 -24.754  0.00  0.00    -0.168 F 
ATOM     33  F   UNL     1      33.795 -11.696 -23.666  0.00  0.00    -0.168 F 
ATOM     34  F   UNL     1      33.306 -11.568 -25.787  0.00  0.00    -0.168 F 
ATOM     35  C   UNL     1      33.288 -10.887 -24.621  0.00  0.00    +0.416 C 
ENDBRANCH  31  35
ENDBRANCH   2  31
TORSDOF 6
ENDMDL
MODEL 8
REMARK VINA RESULT:      -3.2     16.890     19.642
REMARK  Name = 89508529
REMARK  6 active torsions:
REMARK  status: ('A' for Active; 'I' for Inactive)
REMARK    1  A    between atoms: N_2  and  C_31
REMARK    2  A    between atoms: C_3  and  C_13
REMARK    3  A    between atoms: C_4  and  C_20
REMARK    4  A    between atoms: N_19  and  C_23
REMARK    5  A    between atoms: C_26  and  C_30
REMARK    6  A    between atoms: C_31  and  C_35
REMARK                            x       y       z     vdW  Elec       q    Type
REMARK                         _______ _______ _______ _____ _____    ______ ____
ROOT
ATOM      1  O   UNL     1      37.437 -21.393 -12.935  0.00  0.00    -0.270 OA
ATOM      2  N   UNL     1      36.954 -23.669 -13.037  0.00  0.00    -0.265 N 
ATOM      3  C   UNL     1      36.708 -24.868 -13.862  0.00  0.00    +0.113 C 
ATOM      4  C   UNL     1      35.899 -24.533 -15.129  0.00  0.00    +0.122 C 
ATOM      5  C   UNL     1      36.431 -23.301 -15.808  0.00  0.00    -0.008 C 
ATOM      6  C   UNL     1      37.021 -22.274 -15.061  0.00  0.00    +0.050 C 
ATOM      7  C   UNL     1      37.157 -22.398 -13.586  0.00  0.00    +0.249 C 
ATOM      8  C   UNL     1      36.303 -23.150 -17.197  0.00  0.00    -0.004 C 
ATOM      9  C   UNL     1      37.483 -21.116 -15.698  0.00  0.00    +0.004 C 
ATOM     10  C   UNL     1      36.768 -21.998 -17.830  0.00  0.00    -0.000 C 
ATOM     11  C   UNL     1      37.358 -20.983 -17.081  0.00  0.00    +0.000 C 
ENDROOT
BRANCH   3  13
ATOM     12  N   UNL     1      38.980 -27.730 -14.919  0.00  0.00    -0.243 NA
ATOM     13  C   UNL     1      37.971 -25.657 -14.189  0.00  0.00    +0.016 C 
ATOM     14  C   UNL     1      39.230 -25.078 -14.070  0.00  0.00    +0.000 C 
ATOM     15  C   UNL     1      37.901 -26.975 -14.614  0.00  0.00    +0.096 C 
ATOM     16  C   UNL     1      40.364 -25.824 -14.374  0.00  0.00    +0.020 C 
ATOM     17  C   UNL     1      40.187 -27.134 -14.790  0.00  0.00    +0.099 C 
ENDBRANCH   3  13
BRANCH   4  20
ATOM     18  O   UNL     1      34.050 -24.496 -13.634  0.00  0.00    -0.274 OA
ATOM     19  N   UNL     1      33.710 -23.986 -15.906  0.00  0.00    -0.284 N 
ATOM     20  C   UNL     1      34.448 -24.339 -14.783  0.00  0.00    +0.232 C 
ATOM     21  H   UNL     1      34.210 -23.910 -16.751  0.00  0.00    +0.155 HD
BRANCH  19  23
ATOM     22  F   UNL     1      28.271 -22.936 -16.183  0.00  0.00    -0.203 F 
ATOM     23  C   UNL     1      32.321 -23.721 -15.974  0.00  0.00    +0.051 C 
ATOM     24  C   UNL     1      31.420 -24.546 -15.301  0.00  0.00    +0.027 C 
ATOM     25  C   UNL     1      31.854 -22.635 -16.714  0.00  0.00    +0.017 C 
ATOM     26  C   UNL     1      30.052 -24.286 -15.368  0.00  0.00    +0.097 C 
ATOM     27  C   UNL     1      30.485 -22.374 -16.781  0.00  0.00    +0.032 C 
ATOM     28  C   UNL     1      29.584 -23.200 -16.109  0.00  0.00    +0.150 C 
BRANCH  26  30
ATOM     29  N   UNL     1      28.385 -25.824 -14.118  0.00  0.00    -0.191 NA
ATOM     30  C   UNL     1      29.132 -25.135 -14.678  0.00  0.00    +0.103 C 
ENDBRANCH  26  30
ENDBRANCH  19  23
ENDBRANCH   4  20
BRANCH   2  31
ATOM     31  C   UNL     1      37.071 -23.867 -11.598  0.00  0.00    +0.198 C 
BRANCH  31  35
ATOM     32  F   UNL     1      35.778 -23.994  -9.623  0.00  0.00    -0.168 F 
ATOM     33  F   UNL     1      34.775 -23.331 -11.448  0.00  0.00    -0.168 F 
ATOM     34  F   UNL     1      35.348 -25.421 -11.214  0.00  0.00    -0.168 F 
ATOM     35  C   UNL     1      35.732 -24.150 -10.964  0.00  0.00    +0.416 C 
ENDBRANCH  31  35
ENDBRANCH   2  31
TORSDOF 6
ENDMDL
