MODEL 1
REMARK VINA RESULT:     -11.4      0.000      0.000
REMARK  Name = 24894158
REMARK  7 active torsions:
REMARK  status: ('A' for Active; 'I' for Inactive)
REMARK    1  A    between atoms: C_5  and  N_22
REMARK    2  A    between atoms: C_12  and  C_15
REMARK    3  A    between atoms: C_23  and  C_25
REMARK    4  A    between atoms: C_25  and  C_27
REMARK    5  A    between atoms: C_25  and  C_33
REMARK    6  A    between atoms: C_33  and  C_34
REMARK    7  A    between atoms: C_34  and  N_35
REMARK                            x       y       z     vdW  Elec       q    Type
REMARK                         _______ _______ _______ _____ _____    ______ ____
ROOT
ATOM      1  O   UNL     1      32.233  -5.606 -21.833  0.00  0.00    -0.270 OA
ATOM      2  N   UNL     1      31.702  -9.175 -19.606  0.00  0.00    -0.275 N 
ATOM      3  N   UNL     1      31.859  -8.083 -20.373  0.00  0.00    -0.157 NA
ATOM      4  N   UNL     1      32.268  -7.793 -22.703  0.00  0.00    -0.264 N 
ATOM      5  C   UNL     1      32.069 -12.343 -22.179  0.00  0.00    +0.050 C 
ATOM      6  C   UNL     1      32.027 -10.000 -21.611  0.00  0.00    +0.052 A 
ATOM      7  C   UNL     1      31.791 -10.358 -20.288  0.00  0.00    +0.077 A 
ATOM      8  C   UNL     1      32.172 -11.006 -22.581  0.00  0.00    +0.019 C 
ATOM      9  C   UNL     1      31.831 -12.675 -20.843  0.00  0.00    +0.016 C 
ATOM     10  C   UNL     1      32.058  -8.589 -21.592  0.00  0.00    +0.155 A 
ATOM     11  C   UNL     1      31.686 -11.685 -19.866  0.00  0.00    +0.020 C 
ATOM     12  C   UNL     1      32.343  -6.389 -22.771  0.00  0.00    +0.251 C 
ATOM     13  H   UNL     1      31.536  -9.128 -18.636  0.00  0.00    +0.189 HD
ATOM     14  H   UNL     1      32.380  -8.271 -23.556  0.00  0.00    +0.157 HD
ENDROOT
BRANCH  12  15
ATOM     15  C   UNL     1      32.609  -5.820 -24.119  0.00  0.00    +0.054 C 
ATOM     16  C   UNL     1      31.750  -4.859 -24.652  0.00  0.00    +0.005 C 
ATOM     17  C   UNL     1      33.717  -6.249 -24.851  0.00  0.00    +0.005 C 
ATOM     18  C   UNL     1      32.000  -4.326 -25.917  0.00  0.00    +0.000 C 
ATOM     19  C   UNL     1      33.967  -5.715 -26.115  0.00  0.00    +0.000 C 
ATOM     20  C   UNL     1      33.108  -4.753 -26.648  0.00  0.00    +0.000 C 
ENDBRANCH  12  15
BRANCH   5  22
ATOM     21  O   UNL     1      34.296 -12.899 -24.109  0.00  0.00    -0.274 OA
ATOM     22  N   UNL     1      32.211 -13.372 -23.139  0.00  0.00    -0.284 N 
ATOM     23  C   UNL     1      33.280 -13.581 -24.008  0.00  0.00    +0.230 C 
ATOM     24  H   UNL     1      31.469 -14.015 -23.200  0.00  0.00    +0.155 HD
BRANCH  23  25
ATOM     25  C   UNL     1      33.046 -14.813 -24.896  0.00  0.00    +0.097 C 
BRANCH  25  27
ATOM     26 CL   UNL     1      35.264 -17.236 -20.833  0.00  0.00    -0.082 Cl
ATOM     27  C   UNL     1      33.813 -16.008 -24.354  0.00  0.00    -0.013 C 
ATOM     28  C   UNL     1      34.145 -16.067 -23.000  0.00  0.00    +0.008 C 
ATOM     29  C   UNL     1      34.187 -17.043 -25.210  0.00  0.00    -0.004 C 
ATOM     30  C   UNL     1      34.852 -17.162 -22.503  0.00  0.00    +0.057 C 
ATOM     31  C   UNL     1      34.892 -18.139 -24.713  0.00  0.00    +0.001 C 
ATOM     32  C   UNL     1      35.225 -18.198 -23.360  0.00  0.00    +0.011 C 
ENDBRANCH  25  27
BRANCH  25  33
ATOM     33  C   UNL     1      33.398 -14.493 -26.366  0.00  0.00    -0.010 C 
BRANCH  33  34
ATOM     34  C   UNL     1      32.791 -13.170 -26.845  0.00  0.00    -0.085 C 
BRANCH  34  35
ATOM     35  N   UNL     1      33.844 -12.187 -27.075  0.00  0.00    +0.380 N 
ATOM     36  H   UNL     1      33.427 -11.305 -27.370  0.00  0.00    -0.089 HD
ATOM     37  H   UNL     1      34.472 -12.527 -27.804  0.00  0.00    -0.089 HD
ATOM     38  H   UNL     1      34.370 -12.044 -26.213  0.00  0.00    -0.089 HD
ENDBRANCH  34  35
ENDBRANCH  33  34
ENDBRANCH  25  33
ENDBRANCH  23  25
ENDBRANCH   5  22
TORSDOF 7
ENDMDL
MODEL 2
REMARK VINA RESULT:     -10.0      1.465      2.210
REMARK  Name = 24894158
REMARK  7 active torsions:
REMARK  status: ('A' for Active; 'I' for Inactive)
REMARK    1  A    between atoms: C_5  and  N_22
REMARK    2  A    between atoms: C_12  and  C_15
REMARK    3  A    between atoms: C_23  and  C_25
REMARK    4  A    between atoms: C_25  and  C_27
REMARK    5  A    between atoms: C_25  and  C_33
REMARK    6  A    between atoms: C_33  and  C_34
REMARK    7  A    between atoms: C_34  and  N_35
REMARK                            x       y       z     vdW  Elec       q    Type
REMARK                         _______ _______ _______ _____ _____    ______ ____
ROOT
ATOM      1  O   UNL     1      31.976  -4.036 -22.890  0.00  0.00    -0.270 OA
ATOM      2  N   UNL     1      31.685  -7.137 -20.012  0.00  0.00    -0.275 N 
ATOM      3  N   UNL     1      31.767  -6.205 -20.976  0.00  0.00    -0.157 NA
ATOM      4  N   UNL     1      32.103  -6.345 -23.331  0.00  0.00    -0.264 N 
ATOM      5  C   UNL     1      32.153 -10.717 -21.951  0.00  0.00    +0.050 C 
ATOM      6  C   UNL     1      32.004  -8.313 -21.835  0.00  0.00    +0.052 A 
ATOM      7  C   UNL     1      31.819  -8.423 -20.461  0.00  0.00    +0.077 A 
ATOM      8  C   UNL     1      32.177  -9.477 -22.602  0.00  0.00    +0.019 C 
ATOM      9  C   UNL     1      31.966 -10.799 -20.570  0.00  0.00    +0.016 C 
ATOM     10  C   UNL     1      31.962  -6.924 -22.084  0.00  0.00    +0.155 A 
ATOM     11  C   UNL     1      31.793  -9.649 -19.792  0.00  0.00    +0.020 C 
ATOM     12  C   UNL     1      32.104  -4.977 -23.666  0.00  0.00    +0.251 C 
ATOM     13  H   UNL     1      31.541  -6.914 -19.063  0.00  0.00    +0.189 HD
ATOM     14  H   UNL     1      32.219  -6.970 -24.082  0.00  0.00    +0.157 HD
ENDROOT
BRANCH  12  15
ATOM     15  C   UNL     1      32.307  -4.664 -25.105  0.00  0.00    +0.054 C 
ATOM     16  C   UNL     1      33.273  -5.353 -25.840  0.00  0.00    +0.005 C 
ATOM     17  C   UNL     1      31.532  -3.680 -25.721  0.00  0.00    +0.005 C 
ATOM     18  C   UNL     1      33.462  -5.058 -27.190  0.00  0.00    +0.000 C 
ATOM     19  C   UNL     1      31.722  -3.387 -27.071  0.00  0.00    +0.000 C 
ATOM     20  C   UNL     1      32.688  -4.076 -27.806  0.00  0.00    +0.000 C 
ENDBRANCH  12  15
BRANCH   5  22
ATOM     21  O   UNL     1      34.260 -11.452 -23.955  0.00  0.00    -0.274 OA
ATOM     22  N   UNL     1      32.325 -11.902 -22.704  0.00  0.00    -0.284 N 
ATOM     23  C   UNL     1      33.334 -12.187 -23.621  0.00  0.00    +0.230 C 
ATOM     24  H   UNL     1      31.653 -12.607 -22.564  0.00  0.00    +0.155 HD
BRANCH  23  25
ATOM     25  C   UNL     1      33.160 -13.588 -24.226  0.00  0.00    +0.097 C 
BRANCH  25  27
ATOM     26 CL   UNL     1      35.380 -18.286 -23.674  0.00  0.00    -0.082 Cl
ATOM     27  C   UNL     1      33.781 -14.636 -23.316  0.00  0.00    -0.013 C 
ATOM     28  C   UNL     1      34.244 -15.838 -23.851  0.00  0.00    +0.008 C 
ATOM     29  C   UNL     1      33.884 -14.396 -21.946  0.00  0.00    -0.004 C 
ATOM     30  C   UNL     1      34.810 -16.801 -23.015  0.00  0.00    +0.057 C 
ATOM     31  C   UNL     1      34.452 -15.358 -21.111  0.00  0.00    +0.001 C 
ATOM     32  C   UNL     1      34.915 -16.560 -21.645  0.00  0.00    +0.011 C 
ENDBRANCH  25  27
BRANCH  25  33
ATOM     33  C   UNL     1      33.730 -13.630 -25.662  0.00  0.00    -0.010 C 
BRANCH  33  34
ATOM     34  C   UNL     1      32.653 -13.898 -26.718  0.00  0.00    -0.085 C 
BRANCH  34  35
ATOM     35  N   UNL     1      32.286 -15.310 -26.716  0.00  0.00    +0.380 N 
ATOM     36  H   UNL     1      31.279 -15.400 -26.851  0.00  0.00    -0.089 HD
ATOM     37  H   UNL     1      32.548 -15.727 -25.822  0.00  0.00    -0.089 HD
ATOM     38  H   UNL     1      32.775 -15.789 -27.472  0.00  0.00    -0.089 HD
ENDBRANCH  34  35
ENDBRANCH  33  34
ENDBRANCH  25  33
ENDBRANCH  23  25
ENDBRANCH   5  22
TORSDOF 7
ENDMDL
MODEL 3
REMARK VINA RESULT:      -9.6      7.656     12.912
REMARK  Name = 24894158
REMARK  7 active torsions:
REMARK  status: ('A' for Active; 'I' for Inactive)
REMARK    1  A    between atoms: C_5  and  N_22
REMARK    2  A    between atoms: C_12  and  C_15
REMARK    3  A    between atoms: C_23  and  C_25
REMARK    4  A    between atoms: C_25  and  C_27
REMARK    5  A    between atoms: C_25  and  C_33
REMARK    6  A    between atoms: C_33  and  C_34
REMARK    7  A    between atoms: C_34  and  N_35
REMARK                            x       y       z     vdW  Elec       q    Type
REMARK                         _______ _______ _______ _____ _____    ______ ____
ROOT
ATOM      1  O   UNL     1      31.677 -24.157 -15.146  0.00  0.00    -0.270 OA
ATOM      2  N   UNL     1      35.530 -23.362 -16.730  0.00  0.00    -0.275 N 
ATOM      3  N   UNL     1      34.280 -23.587 -16.290  0.00  0.00    -0.157 NA
ATOM      4  N   UNL     1      32.150 -22.791 -17.004  0.00  0.00    -0.264 N 
ATOM      5  C   UNL     1      35.097 -20.782 -19.884  0.00  0.00    +0.050 C 
ATOM      6  C   UNL     1      34.288 -22.153 -18.074  0.00  0.00    +0.052 A 
ATOM      7  C   UNL     1      35.604 -22.510 -17.798  0.00  0.00    +0.077 A 
ATOM      8  C   UNL     1      34.021 -21.271 -19.134  0.00  0.00    +0.019 C 
ATOM      9  C   UNL     1      36.409 -21.157 -19.586  0.00  0.00    +0.016 C 
ATOM     10  C   UNL     1      33.528 -22.849 -17.109  0.00  0.00    +0.155 A 
ATOM     11  C   UNL     1      36.691 -22.033 -18.533  0.00  0.00    +0.020 C 
ATOM     12  C   UNL     1      31.317 -23.424 -16.062  0.00  0.00    +0.251 C 
ATOM     13  H   UNL     1      36.324 -23.774 -16.318  0.00  0.00    +0.189 HD
ATOM     14  H   UNL     1      31.693 -22.234 -17.675  0.00  0.00    +0.157 HD
ENDROOT
BRANCH  12  15
ATOM     15  C   UNL     1      29.863 -23.144 -16.192  0.00  0.00    +0.054 C 
ATOM     16  C   UNL     1      29.155 -23.630 -17.292  0.00  0.00    +0.005 C 
ATOM     17  C   UNL     1      29.207 -22.394 -15.215  0.00  0.00    +0.005 C 
ATOM     18  C   UNL     1      27.790 -23.366 -17.413  0.00  0.00    +0.000 C 
ATOM     19  C   UNL     1      27.842 -22.131 -15.338  0.00  0.00    +0.000 C 
ATOM     20  C   UNL     1      27.134 -22.617 -16.437  0.00  0.00    +0.000 C 
ENDBRANCH  12  15
BRANCH   5  22
ATOM     21  O   UNL     1      36.303 -18.105 -20.498  0.00  0.00    -0.274 OA
ATOM     22  N   UNL     1      34.852 -19.893 -20.957  0.00  0.00    -0.284 N 
ATOM     23  C   UNL     1      35.453 -18.658 -21.191  0.00  0.00    +0.230 C 
ATOM     24  H   UNL     1      34.178 -20.180 -21.614  0.00  0.00    +0.155 HD
BRANCH  23  25
ATOM     25  C   UNL     1      34.906 -18.003 -22.468  0.00  0.00    +0.097 C 
BRANCH  25  27
ATOM     26 CL   UNL     1      33.855 -12.989 -23.495  0.00  0.00    -0.082 Cl
ATOM     27  C   UNL     1      34.138 -16.737 -22.124  0.00  0.00    -0.013 C 
ATOM     28  C   UNL     1      34.325 -15.581 -22.881  0.00  0.00    +0.008 C 
ATOM     29  C   UNL     1      33.248 -16.732 -21.051  0.00  0.00    -0.004 C 
ATOM     30  C   UNL     1      33.623 -14.418 -22.563  0.00  0.00    +0.057 C 
ATOM     31  C   UNL     1      32.544 -15.570 -20.734  0.00  0.00    +0.001 C 
ATOM     32  C   UNL     1      32.732 -14.413 -21.489  0.00  0.00    +0.011 C 
ENDBRANCH  25  27
BRANCH  25  33
ATOM     33  C   UNL     1      34.061 -19.015 -23.274  0.00  0.00    -0.010 C 
BRANCH  33  34
ATOM     34  C   UNL     1      34.552 -19.181 -24.715  0.00  0.00    -0.085 C 
BRANCH  34  35
ATOM     35  N   UNL     1      34.516 -17.899 -25.410  0.00  0.00    +0.380 N 
ATOM     36  H   UNL     1      35.150 -17.245 -24.951  0.00  0.00    -0.089 HD
ATOM     37  H   UNL     1      33.567 -17.526 -25.386  0.00  0.00    -0.089 HD
ATOM     38  H   UNL     1      34.806 -18.029 -26.379  0.00  0.00    -0.089 HD
ENDBRANCH  34  35
ENDBRANCH  33  34
ENDBRANCH  25  33
ENDBRANCH  23  25
ENDBRANCH   5  22
TORSDOF 7
ENDMDL
MODEL 4
REMARK VINA RESULT:      -9.6      7.080     12.394
REMARK  Name = 24894158
REMARK  7 active torsions:
REMARK  status: ('A' for Active; 'I' for Inactive)
REMARK    1  A    between atoms: C_5  and  N_22
REMARK    2  A    between atoms: C_12  and  C_15
REMARK    3  A    between atoms: C_23  and  C_25
REMARK    4  A    between atoms: C_25  and  C_27
REMARK    5  A    between atoms: C_25  and  C_33
REMARK    6  A    between atoms: C_33  and  C_34
REMARK    7  A    between atoms: C_34  and  N_35
REMARK                            x       y       z     vdW  Elec       q    Type
REMARK                         _______ _______ _______ _____ _____    ______ ____
ROOT
ATOM      1  O   UNL     1      31.695 -24.264 -16.437  0.00  0.00    -0.270 OA
ATOM      2  N   UNL     1      35.005 -23.074 -18.806  0.00  0.00    -0.275 N 
ATOM      3  N   UNL     1      33.915 -23.403 -18.092  0.00  0.00    -0.157 NA
ATOM      4  N   UNL     1      31.809 -22.332 -17.777  0.00  0.00    -0.264 N 
ATOM      5  C   UNL     1      34.067 -19.510 -20.597  0.00  0.00    +0.050 C 
ATOM      6  C   UNL     1      33.620 -21.419 -19.194  0.00  0.00    +0.052 A 
ATOM      7  C   UNL     1      34.893 -21.895 -19.491  0.00  0.00    +0.077 A 
ATOM      8  C   UNL     1      33.192 -20.203 -19.753  0.00  0.00    +0.019 C 
ATOM      9  C   UNL     1      35.340 -20.011 -20.879  0.00  0.00    +0.016 C 
ATOM     10  C   UNL     1      33.075 -22.393 -18.330  0.00  0.00    +0.155 A 
ATOM     11  C   UNL     1      35.782 -21.219 -20.330  0.00  0.00    +0.020 C 
ATOM     12  C   UNL     1      31.198 -23.237 -16.888  0.00  0.00    +0.251 C 
ATOM     13  H   UNL     1      35.815 -23.634 -18.834  0.00  0.00    +0.189 HD
ATOM     14  H   UNL     1      31.265 -21.554 -18.039  0.00  0.00    +0.157 HD
ENDROOT
BRANCH  12  15
ATOM     15  C   UNL     1      29.825 -22.880 -16.445  0.00  0.00    +0.054 C 
ATOM     16  C   UNL     1      28.754 -22.992 -17.332  0.00  0.00    +0.005 C 
ATOM     17  C   UNL     1      29.607 -22.433 -15.141  0.00  0.00    +0.005 C 
ATOM     18  C   UNL     1      27.466 -22.657 -16.915  0.00  0.00    +0.000 C 
ATOM     19  C   UNL     1      28.318 -22.099 -14.725  0.00  0.00    +0.000 C 
ATOM     20  C   UNL     1      27.247 -22.211 -15.612  0.00  0.00    +0.000 C 
ENDBRANCH  12  15
BRANCH   5  22
ATOM     21  O   UNL     1      35.220 -16.756 -20.316  0.00  0.00    -0.274 OA
ATOM     22  N   UNL     1      33.657 -18.284 -21.171  0.00  0.00    -0.284 N 
ATOM     23  C   UNL     1      34.242 -17.030 -21.005  0.00  0.00    +0.230 C 
ATOM     24  H   UNL     1      32.866 -18.321 -21.756  0.00  0.00    +0.155 HD
BRANCH  23  25
ATOM     25  C   UNL     1      33.490 -15.952 -21.801  0.00  0.00    +0.097 C 
BRANCH  25  27
ATOM     26 CL   UNL     1      33.021 -14.061 -26.649  0.00  0.00    -0.082 Cl
ATOM     27  C   UNL     1      33.805 -16.077 -23.283  0.00  0.00    -0.013 C 
ATOM     28  C   UNL     1      33.326 -15.122 -24.180  0.00  0.00    +0.008 C 
ATOM     29  C   UNL     1      34.571 -17.147 -23.746  0.00  0.00    -0.004 C 
ATOM     30  C   UNL     1      33.613 -15.237 -25.541  0.00  0.00    +0.057 C 
ATOM     31  C   UNL     1      34.859 -17.262 -25.106  0.00  0.00    +0.001 C 
ATOM     32  C   UNL     1      34.380 -16.308 -26.003  0.00  0.00    +0.011 C 
ENDBRANCH  25  27
BRANCH  25  33
ATOM     33  C   UNL     1      33.805 -14.549 -21.238  0.00  0.00    -0.010 C 
BRANCH  33  34
ATOM     34  C   UNL     1      32.563 -13.839 -20.690  0.00  0.00    -0.085 C 
BRANCH  34  35
ATOM     35  N   UNL     1      31.954 -13.016 -21.729  0.00  0.00    +0.380 N 
ATOM     36  H   UNL     1      32.118 -13.442 -22.641  0.00  0.00    -0.089 HD
ATOM     37  H   UNL     1      32.369 -12.084 -21.710  0.00  0.00    -0.089 HD
ATOM     38  H   UNL     1      30.950 -12.945 -21.562  0.00  0.00    -0.089 HD
ENDBRANCH  34  35
ENDBRANCH  33  34
ENDBRANCH  25  33
ENDBRANCH  23  25
ENDBRANCH   5  22
TORSDOF 7
ENDMDL
MODEL 5
REMARK VINA RESULT:      -9.5      6.314     12.173
REMARK  Name = 24894158
REMARK  7 active torsions:
REMARK  status: ('A' for Active; 'I' for Inactive)
REMARK    1  A    between atoms: C_5  and  N_22
REMARK    2  A    between atoms: C_12  and  C_15
REMARK    3  A    between atoms: C_23  and  C_25
REMARK    4  A    between atoms: C_25  and  C_27
REMARK    5  A    between atoms: C_25  and  C_33
REMARK    6  A    between atoms: C_33  and  C_34
REMARK    7  A    between atoms: C_34  and  N_35
REMARK                            x       y       z     vdW  Elec       q    Type
REMARK                         _______ _______ _______ _____ _____    ______ ____
ROOT
ATOM      1  O   UNL     1      33.859 -23.902 -17.550  0.00  0.00    -0.270 OA
ATOM      2  N   UNL     1      36.115 -21.798 -20.461  0.00  0.00    -0.275 N 
ATOM      3  N   UNL     1      35.343 -22.421 -19.554  0.00  0.00    -0.157 NA
ATOM      4  N   UNL     1      33.297 -21.819 -18.491  0.00  0.00    -0.264 N 
ATOM      5  C   UNL     1      34.193 -18.264 -21.243  0.00  0.00    +0.050 C 
ATOM      6  C   UNL     1      34.458 -20.396 -20.149  0.00  0.00    +0.052 A 
ATOM      7  C   UNL     1      35.638 -20.579 -20.860  0.00  0.00    +0.077 A 
ATOM      8  C   UNL     1      33.715 -19.218 -20.337  0.00  0.00    +0.019 C 
ATOM      9  C   UNL     1      35.383 -18.473 -21.945  0.00  0.00    +0.016 C 
ATOM     10  C   UNL     1      34.337 -21.564 -19.365  0.00  0.00    +0.155 A 
ATOM     11  C   UNL     1      36.133 -19.639 -21.768  0.00  0.00    +0.020 C 
ATOM     12  C   UNL     1      33.111 -22.936 -17.653  0.00  0.00    +0.251 C 
ATOM     13  H   UNL     1      36.950 -22.186 -20.809  0.00  0.00    +0.189 HD
ATOM     14  H   UNL     1      32.596 -21.129 -18.448  0.00  0.00    +0.157 HD
ENDROOT
BRANCH  12  15
ATOM     15  C   UNL     1      31.896 -22.908 -16.798  0.00  0.00    +0.054 C 
ATOM     16  C   UNL     1      31.986 -23.240 -15.446  0.00  0.00    +0.005 C 
ATOM     17  C   UNL     1      30.664 -22.550 -17.348  0.00  0.00    +0.005 C 
ATOM     18  C   UNL     1      30.845 -23.213 -14.644  0.00  0.00    +0.000 C 
ATOM     19  C   UNL     1      29.523 -22.524 -16.545  0.00  0.00    +0.000 C 
ATOM     20  C   UNL     1      29.614 -22.856 -15.193  0.00  0.00    +0.000 C 
ENDBRANCH  12  15
BRANCH   5  22
ATOM     21  O   UNL     1      34.914 -15.419 -20.626  0.00  0.00    -0.274 OA
ATOM     22  N   UNL     1      33.462 -17.071 -21.448  0.00  0.00    -0.284 N 
ATOM     23  C   UNL     1      33.857 -15.770 -21.144  0.00  0.00    +0.230 C 
ATOM     24  H   UNL     1      32.571 -17.171 -21.854  0.00  0.00    +0.155 HD
BRANCH  23  25
ATOM     25  C   UNL     1      32.770 -14.752 -21.523  0.00  0.00    +0.097 C 
BRANCH  25  27
ATOM     26 CL   UNL     1      34.167 -10.586 -24.350  0.00  0.00    -0.082 Cl
ATOM     27  C   UNL     1      33.070 -14.143 -22.883  0.00  0.00    -0.013 C 
ATOM     28  C   UNL     1      33.440 -12.802 -22.980  0.00  0.00    +0.008 C 
ATOM     29  C   UNL     1      32.974 -14.926 -24.034  0.00  0.00    -0.004 C 
ATOM     30  C   UNL     1      33.713 -12.242 -24.229  0.00  0.00    +0.057 C 
ATOM     31  C   UNL     1      33.248 -14.367 -25.282  0.00  0.00    +0.001 C 
ATOM     32  C   UNL     1      33.617 -13.026 -25.380  0.00  0.00    +0.011 C 
ENDBRANCH  25  27
BRANCH  25  33
ATOM     33  C   UNL     1      32.615 -13.689 -20.413  0.00  0.00    -0.010 C 
BRANCH  33  34
ATOM     34  C   UNL     1      31.563 -12.629 -20.752  0.00  0.00    -0.085 C 
BRANCH  34  35
ATOM     35  N   UNL     1      31.579 -11.566 -19.753  0.00  0.00    +0.380 N 
ATOM     36  H   UNL     1      30.621 -11.322 -19.501  0.00  0.00    -0.089 HD
ATOM     37  H   UNL     1      32.049 -10.746 -20.138  0.00  0.00    -0.089 HD
ATOM     38  H   UNL     1      32.078 -11.887 -18.923  0.00  0.00    -0.089 HD
ENDBRANCH  34  35
ENDBRANCH  33  34
ENDBRANCH  25  33
ENDBRANCH  23  25
ENDBRANCH   5  22
TORSDOF 7
ENDMDL
MODEL 6
REMARK VINA RESULT:      -9.3      3.547     10.602
REMARK  Name = 24894158
REMARK  7 active torsions:
REMARK  status: ('A' for Active; 'I' for Inactive)
REMARK    1  A    between atoms: C_5  and  N_22
REMARK    2  A    between atoms: C_12  and  C_15
REMARK    3  A    between atoms: C_23  and  C_25
REMARK    4  A    between atoms: C_25  and  C_27
REMARK    5  A    between atoms: C_25  and  C_33
REMARK    6  A    between atoms: C_33  and  C_34
REMARK    7  A    between atoms: C_34  and  N_35
REMARK                            x       y       z     vdW  Elec       q    Type
REMARK                         _______ _______ _______ _____ _____    ______ ____
ROOT
ATOM      1  O   UNL     1      35.187 -19.790 -23.917  0.00  0.00    -0.270 OA
ATOM      2  N   UNL     1      34.595 -16.249 -26.176  0.00  0.00    -0.275 N 
ATOM      3  N   UNL     1      34.734 -17.345 -25.411  0.00  0.00    -0.157 NA
ATOM      4  N   UNL     1      34.166 -17.814 -23.145  0.00  0.00    -0.264 N 
ATOM      5  C   UNL     1      32.817 -13.473 -23.741  0.00  0.00    +0.050 C 
ATOM      6  C   UNL     1      33.751 -15.638 -24.246  0.00  0.00    +0.052 A 
ATOM      7  C   UNL     1      34.011 -15.189 -25.536  0.00  0.00    +0.077 A 
ATOM      8  C   UNL     1      33.144 -14.769 -23.324  0.00  0.00    +0.019 C 
ATOM      9  C   UNL     1      33.089 -13.048 -25.043  0.00  0.00    +0.016 C 
ATOM     10  C   UNL     1      34.221 -16.969 -24.237  0.00  0.00    +0.155 A 
ATOM     11  C   UNL     1      33.694 -13.901 -25.972  0.00  0.00    +0.020 C 
ATOM     12  C   UNL     1      34.634 -19.138 -23.037  0.00  0.00    +0.251 C 
ATOM     13  H   UNL     1      34.887 -16.212 -27.115  0.00  0.00    +0.189 HD
ATOM     14  H   UNL     1      33.745 -17.441 -22.336  0.00  0.00    +0.157 HD
ENDROOT
BRANCH  12  15
ATOM     15  C   UNL     1      34.453 -19.782 -21.710  0.00  0.00    +0.054 C 
ATOM     16  C   UNL     1      35.559 -20.284 -21.022  0.00  0.00    +0.005 C 
ATOM     17  C   UNL     1      33.178 -19.885 -21.152  0.00  0.00    +0.005 C 
ATOM     18  C   UNL     1      35.388 -20.888 -19.776  0.00  0.00    +0.000 C 
ATOM     19  C   UNL     1      33.009 -20.490 -19.906  0.00  0.00    +0.000 C 
ATOM     20  C   UNL     1      34.115 -20.992 -19.218  0.00  0.00    +0.000 C 
ENDBRANCH  12  15
BRANCH   5  22
ATOM     21  O   UNL     1      33.229 -10.531 -23.335  0.00  0.00    -0.274 OA
ATOM     22  N   UNL     1      32.205 -12.582 -22.829  0.00  0.00    -0.284 N 
ATOM     23  C   UNL     1      32.437 -11.215 -22.693  0.00  0.00    +0.230 C 
ATOM     24  H   UNL     1      31.538 -12.973 -22.220  0.00  0.00    +0.155 HD
BRANCH  23  25
ATOM     25  C   UNL     1      31.567 -10.608 -21.581  0.00  0.00    +0.097 C 
BRANCH  25  27
ATOM     26 CL   UNL     1      31.015  -5.880 -23.734  0.00  0.00    -0.082 Cl
ATOM     27  C   UNL     1      31.788  -9.106 -21.499  0.00  0.00    -0.013 C 
ATOM     28  C   UNL     1      31.349  -8.279 -22.533  0.00  0.00    +0.008 C 
ATOM     29  C   UNL     1      32.432  -8.557 -20.391  0.00  0.00    -0.004 C 
ATOM     30  C   UNL     1      31.554  -6.901 -22.459  0.00  0.00    +0.057 C 
ATOM     31  C   UNL     1      32.637  -7.179 -20.316  0.00  0.00    +0.001 C 
ATOM     32  C   UNL     1      32.199  -6.352 -21.349  0.00  0.00    +0.011 C 
ENDBRANCH  25  27
BRANCH  25  33
ATOM     33  C   UNL     1      31.828 -11.326 -20.239  0.00  0.00    -0.010 C 
BRANCH  33  34
ATOM     34  C   UNL     1      30.806 -10.954 -19.160  0.00  0.00    -0.085 C 
BRANCH  34  35
ATOM     35  N   UNL     1      31.461 -10.844 -17.862  0.00  0.00    +0.380 N 
ATOM     36  H   UNL     1      30.900 -11.321 -17.156  0.00  0.00    -0.089 HD
ATOM     37  H   UNL     1      31.556  -9.859 -17.612  0.00  0.00    -0.089 HD
ATOM     38  H   UNL     1      32.385 -11.274 -17.909  0.00  0.00    -0.089 HD
ENDBRANCH  34  35
ENDBRANCH  33  34
ENDBRANCH  25  33
ENDBRANCH  23  25
ENDBRANCH   5  22
TORSDOF 7
ENDMDL
MODEL 7
REMARK VINA RESULT:      -9.2      5.711      9.339
REMARK  Name = 24894158
REMARK  7 active torsions:
REMARK  status: ('A' for Active; 'I' for Inactive)
REMARK    1  A    between atoms: C_5  and  N_22
REMARK    2  A    between atoms: C_12  and  C_15
REMARK    3  A    between atoms: C_23  and  C_25
REMARK    4  A    between atoms: C_25  and  C_27
REMARK    5  A    between atoms: C_25  and  C_33
REMARK    6  A    between atoms: C_33  and  C_34
REMARK    7  A    between atoms: C_34  and  N_35
REMARK                            x       y       z     vdW  Elec       q    Type
REMARK                         _______ _______ _______ _____ _____    ______ ____
ROOT
ATOM      1  O   UNL     1      33.609 -13.371 -24.057  0.00  0.00    -0.270 OA
ATOM      2  N   UNL     1      35.304 -17.208 -24.680  0.00  0.00    -0.275 N 
ATOM      3  N   UNL     1      34.764 -16.007 -24.411  0.00  0.00    -0.157 NA
ATOM      4  N   UNL     1      33.624 -15.142 -22.506  0.00  0.00    -0.264 N 
ATOM      5  C   UNL     1      34.625 -19.456 -21.321  0.00  0.00    +0.050 C 
ATOM      6  C   UNL     1      34.502 -17.450 -22.654  0.00  0.00    +0.052 A 
ATOM      7  C   UNL     1      35.181 -18.119 -23.666  0.00  0.00    +0.077 A 
ATOM      8  C   UNL     1      34.213 -18.124 -21.455  0.00  0.00    +0.019 C 
ATOM      9  C   UNL     1      35.306 -20.104 -22.354  0.00  0.00    +0.016 C 
ATOM     10  C   UNL     1      34.276 -16.159 -23.178  0.00  0.00    +0.155 A 
ATOM     11  C   UNL     1      35.600 -19.447 -23.553  0.00  0.00    +0.020 C 
ATOM     12  C   UNL     1      33.330 -13.841 -22.959  0.00  0.00    +0.251 C 
ATOM     13  H   UNL     1      35.750 -17.414 -25.533  0.00  0.00    +0.189 HD
ATOM     14  H   UNL     1      33.325 -15.355 -21.592  0.00  0.00    +0.157 HD
ENDROOT
BRANCH  12  15
ATOM     15  C   UNL     1      32.585 -12.977 -22.006  0.00  0.00    +0.054 C 
ATOM     16  C   UNL     1      32.586 -13.279 -20.643  0.00  0.00    +0.005 C 
ATOM     17  C   UNL     1      31.886 -11.864 -22.473  0.00  0.00    +0.005 C 
ATOM     18  C   UNL     1      31.887 -12.467 -19.750  0.00  0.00    +0.000 C 
ATOM     19  C   UNL     1      31.187 -11.053 -21.579  0.00  0.00    +0.000 C 
ATOM     20  C   UNL     1      31.188 -11.355 -20.216  0.00  0.00    +0.000 C 
ENDBRANCH  12  15
BRANCH   5  22
ATOM     21  O   UNL     1      35.839 -21.963 -20.211  0.00  0.00    -0.274 OA
ATOM     22  N   UNL     1      34.346 -20.154 -20.123  0.00  0.00    -0.284 N 
ATOM     23  C   UNL     1      34.953 -21.318 -19.658  0.00  0.00    +0.230 C 
ATOM     24  H   UNL     1      33.640 -19.773 -19.553  0.00  0.00    +0.155 HD
BRANCH  23  25
ATOM     25  C   UNL     1      34.360 -21.758 -18.310  0.00  0.00    +0.097 C 
BRANCH  25  27
ATOM     26 CL   UNL     1      35.954 -24.690 -14.290  0.00  0.00    -0.082 Cl
ATOM     27  C   UNL     1      35.469 -22.161 -17.353  0.00  0.00    -0.013 C 
ATOM     28  C   UNL     1      35.230 -23.129 -16.377  0.00  0.00    +0.008 C 
ATOM     29  C   UNL     1      36.725 -21.562 -17.449  0.00  0.00    -0.004 C 
ATOM     30  C   UNL     1      36.248 -23.498 -15.496  0.00  0.00    +0.057 C 
ATOM     31  C   UNL     1      37.743 -21.932 -16.570  0.00  0.00    +0.001 C 
ATOM     32  C   UNL     1      37.505 -22.899 -15.594  0.00  0.00    +0.011 C 
ENDBRANCH  25  27
BRANCH  25  33
ATOM     33  C   UNL     1      33.314 -22.875 -18.520  0.00  0.00    -0.010 C 
BRANCH  33  34
ATOM     34  C   UNL     1      32.501 -23.169 -17.255  0.00  0.00    -0.085 C 
BRANCH  34  35
ATOM     35  N   UNL     1      31.235 -22.445 -17.291  0.00  0.00    +0.380 N 
ATOM     36  H   UNL     1      30.563 -22.963 -17.857  0.00  0.00    -0.089 HD
ATOM     37  H   UNL     1      31.384 -21.522 -17.700  0.00  0.00    -0.089 HD
ATOM     38  H   UNL     1      30.875 -22.343 -16.343  0.00  0.00    -0.089 HD
ENDBRANCH  34  35
ENDBRANCH  33  34
ENDBRANCH  25  33
ENDBRANCH  23  25
ENDBRANCH   5  22
TORSDOF 7
ENDMDL
MODEL 8
REMARK VINA RESULT:      -9.1      3.312      8.834
REMARK  Name = 24894158
REMARK  7 active torsions:
REMARK  status: ('A' for Active; 'I' for Inactive)
REMARK    1  A    between atoms: C_5  and  N_22
REMARK    2  A    between atoms: C_12  and  C_15
REMARK    3  A    between atoms: C_23  and  C_25
REMARK    4  A    between atoms: C_25  and  C_27
REMARK    5  A    between atoms: C_25  and  C_33
REMARK    6  A    between atoms: C_33  and  C_34
REMARK    7  A    between atoms: C_34  and  N_35
REMARK                            x       y       z     vdW  Elec       q    Type
REMARK                         _______ _______ _______ _____ _____    ______ ____
ROOT
ATOM      1  O   UNL     1      32.573 -14.742 -21.752  0.00  0.00    -0.270 OA
ATOM      2  N   UNL     1      31.761 -11.476 -19.170  0.00  0.00    -0.275 N 
ATOM      3  N   UNL     1      32.043 -12.463 -20.038  0.00  0.00    -0.157 NA
ATOM      4  N   UNL     1      32.483 -12.475 -22.380  0.00  0.00    -0.264 N 
ATOM      5  C   UNL     1      31.773  -8.049 -21.417  0.00  0.00    +0.050 C 
ATOM      6  C   UNL     1      31.994 -10.426 -21.081  0.00  0.00    +0.052 A 
ATOM      7  C   UNL     1      31.718 -10.230 -19.733  0.00  0.00    +0.077 A 
ATOM      8  C   UNL     1      32.023  -9.321 -21.947  0.00  0.00    +0.019 C 
ATOM      9  C   UNL     1      31.498  -7.880 -20.058  0.00  0.00    +0.016 C 
ATOM     10  C   UNL     1      32.183 -11.820 -21.200  0.00  0.00    +0.155 A 
ATOM     11  C   UNL     1      31.465  -8.970 -19.184  0.00  0.00    +0.020 C 
ATOM     12  C   UNL     1      32.658 -13.855 -22.596  0.00  0.00    +0.251 C 
ATOM     13  H   UNL     1      31.601 -11.637 -18.212  0.00  0.00    +0.189 HD
ATOM     14  H   UNL     1      32.587 -11.900 -23.173  0.00  0.00    +0.157 HD
ENDROOT
BRANCH  12  15
ATOM     15  C   UNL     1      32.949 -14.259 -23.996  0.00  0.00    +0.054 C 
ATOM     16  C   UNL     1      33.573 -15.481 -24.255  0.00  0.00    +0.005 C 
ATOM     17  C   UNL     1      32.599 -13.417 -25.053  0.00  0.00    +0.005 C 
ATOM     18  C   UNL     1      33.845 -15.859 -25.570  0.00  0.00    +0.000 C 
ATOM     19  C   UNL     1      32.872 -13.797 -26.367  0.00  0.00    +0.000 C 
ATOM     20  C   UNL     1      33.496 -15.018 -26.625  0.00  0.00    +0.000 C 
ENDBRANCH  12  15
BRANCH   5  22
ATOM     21  O   UNL     1      30.587  -7.656 -24.143  0.00  0.00    -0.274 OA
ATOM     22  N   UNL     1      31.797  -6.921 -22.270  0.00  0.00    -0.284 N 
ATOM     23  C   UNL     1      31.218  -6.798 -23.532  0.00  0.00    +0.230 C 
ATOM     24  H   UNL     1      32.280  -6.132 -21.934  0.00  0.00    +0.155 HD
BRANCH  23  25
ATOM     25  C   UNL     1      31.475  -5.407 -24.131  0.00  0.00    +0.097 C 
BRANCH  25  27
ATOM     26 CL   UNL     1      33.808  -3.743 -28.500  0.00  0.00    -0.082 Cl
ATOM     27  C   UNL     1      32.676  -5.448 -25.062  0.00  0.00    -0.013 C 
ATOM     28  C   UNL     1      32.689  -4.666 -26.217  0.00  0.00    +0.008 C 
ATOM     29  C   UNL     1      33.763  -6.269 -24.762  0.00  0.00    -0.004 C 
ATOM     30  C   UNL     1      33.791  -4.705 -27.073  0.00  0.00    +0.057 C 
ATOM     31  C   UNL     1      34.864  -6.307 -25.617  0.00  0.00    +0.001 C 
ATOM     32  C   UNL     1      34.878  -5.526 -26.772  0.00  0.00    +0.011 C 
ENDBRANCH  25  27
BRANCH  25  33
ATOM     33  C   UNL     1      31.622  -4.355 -23.010  0.00  0.00    -0.010 C 
BRANCH  33  34
ATOM     34  C   UNL     1      31.092  -2.977 -23.418  0.00  0.00    -0.085 C 
BRANCH  34  35
ATOM     35  N   UNL     1      30.164  -2.476 -22.411  0.00  0.00    +0.380 N 
ATOM     36  H   UNL     1      29.590  -3.245 -22.065  0.00  0.00    -0.089 HD
ATOM     37  H   UNL     1      29.563  -1.764 -22.828  0.00  0.00    -0.089 HD
ATOM     38  H   UNL     1      30.688  -2.068 -21.637  0.00  0.00    -0.089 HD
ENDBRANCH  34  35
ENDBRANCH  33  34
ENDBRANCH  25  33
ENDBRANCH  23  25
ENDBRANCH   5  22
TORSDOF 7
ENDMDL
MODEL 9
REMARK VINA RESULT:      -9.0      3.739      9.177
REMARK  Name = 24894158
REMARK  7 active torsions:
REMARK  status: ('A' for Active; 'I' for Inactive)
REMARK    1  A    between atoms: C_5  and  N_22
REMARK    2  A    between atoms: C_12  and  C_15
REMARK    3  A    between atoms: C_23  and  C_25
REMARK    4  A    between atoms: C_25  and  C_27
REMARK    5  A    between atoms: C_25  and  C_33
REMARK    6  A    between atoms: C_33  and  C_34
REMARK    7  A    between atoms: C_34  and  N_35
REMARK                            x       y       z     vdW  Elec       q    Type
REMARK                         _______ _______ _______ _____ _____    ______ ____
ROOT
ATOM      1  O   UNL     1      32.810 -13.534 -22.290  0.00  0.00    -0.270 OA
ATOM      2  N   UNL     1      32.066 -10.234 -19.731  0.00  0.00    -0.275 N 
ATOM      3  N   UNL     1      32.323 -11.233 -20.594  0.00  0.00    -0.157 NA
ATOM      4  N   UNL     1      32.624 -11.284 -22.957  0.00  0.00    -0.264 N 
ATOM      5  C   UNL     1      31.856  -6.857 -22.043  0.00  0.00    +0.050 C 
ATOM      6  C   UNL     1      32.159  -9.221 -21.673  0.00  0.00    +0.052 A 
ATOM      7  C   UNL     1      31.957  -9.002 -20.315  0.00  0.00    +0.077 A 
ATOM      8  C   UNL     1      32.108  -8.133 -22.561  0.00  0.00    +0.019 C 
ATOM      9  C   UNL     1      31.657  -6.665 -20.674  0.00  0.00    +0.016 C 
ATOM     10  C   UNL     1      32.376 -10.612 -21.775  0.00  0.00    +0.155 A 
ATOM     11  C   UNL     1      31.704  -7.738 -19.777  0.00  0.00    +0.020 C 
ATOM     12  C   UNL     1      32.822 -12.664 -23.155  0.00  0.00    +0.251 C 
ATOM     13  H   UNL     1      31.967 -10.378 -18.762  0.00  0.00    +0.189 HD
ATOM     14  H   UNL     1      32.665 -10.724 -23.766  0.00  0.00    +0.157 HD
ENDROOT
BRANCH  12  15
ATOM     15  C   UNL     1      33.041 -13.091 -24.562  0.00  0.00    +0.054 C 
ATOM     16  C   UNL     1      33.446 -12.160 -25.519  0.00  0.00    +0.005 C 
ATOM     17  C   UNL     1      32.840 -14.423 -24.925  0.00  0.00    +0.005 C 
ATOM     18  C   UNL     1      33.651 -12.561 -26.839  0.00  0.00    +0.000 C 
ATOM     19  C   UNL     1      33.046 -14.824 -26.246  0.00  0.00    +0.000 C 
ATOM     20  C   UNL     1      33.451 -13.892 -27.203  0.00  0.00    +0.000 C 
ENDBRANCH  12  15
BRANCH   5  22
ATOM     21  O   UNL     1      30.697  -6.620 -24.798  0.00  0.00    -0.274 OA
ATOM     22  N   UNL     1      31.800  -5.748 -22.919  0.00  0.00    -0.284 N 
ATOM     23  C   UNL     1      31.239  -5.700 -24.193  0.00  0.00    +0.230 C 
ATOM     24  H   UNL     1      32.206  -4.914 -22.589  0.00  0.00    +0.155 HD
BRANCH  23  25
ATOM     25  C   UNL     1      31.387  -4.303 -24.816  0.00  0.00    +0.097 C 
BRANCH  25  27
ATOM     26 CL   UNL     1      32.627  -2.795 -29.662  0.00  0.00    -0.082 Cl
ATOM     27  C   UNL     1      32.357  -4.348 -25.985  0.00  0.00    -0.013 C 
ATOM     28  C   UNL     1      32.080  -3.632 -27.149  0.00  0.00    +0.008 C 
ATOM     29  C   UNL     1      33.524  -5.106 -25.893  0.00  0.00    -0.004 C 
ATOM     30  C   UNL     1      32.970  -3.675 -28.223  0.00  0.00    +0.057 C 
ATOM     31  C   UNL     1      34.415  -5.148 -26.966  0.00  0.00    +0.001 C 
ATOM     32  C   UNL     1      34.137  -4.434 -28.131  0.00  0.00    +0.011 C 
ENDBRANCH  25  27
BRANCH  25  33
ATOM     33  C   UNL     1      31.793  -3.272 -23.740  0.00  0.00    -0.010 C 
BRANCH  33  34
ATOM     34  C   UNL     1      30.733  -2.187 -23.531  0.00  0.00    -0.085 C 
BRANCH  34  35
ATOM     35  N   UNL     1      29.988  -2.440 -22.302  0.00  0.00    +0.380 N 
ATOM     36  H   UNL     1      29.898  -1.573 -21.774  0.00  0.00    -0.089 HD
ATOM     37  H   UNL     1      30.486  -3.131 -21.740  0.00  0.00    -0.089 HD
ATOM     38  H   UNL     1      29.060  -2.795 -22.534  0.00  0.00    -0.089 HD
ENDBRANCH  34  35
ENDBRANCH  33  34
ENDBRANCH  25  33
ENDBRANCH  23  25
ENDBRANCH   5  22
TORSDOF 7
ENDMDL
