MODEL 1
REMARK VINA RESULT:      -7.4      0.000      0.000
REMARK  Name = 9942657
REMARK  8 active torsions:
REMARK  status: ('A' for Active; 'I' for Inactive)
REMARK    1  A    between atoms: N_2  and  C_12
REMARK    2  A    between atoms: C_3  and  C_5
REMARK    3  A    between atoms: C_5  and  C_6
REMARK    4  A    between atoms: C_6  and  C_7
REMARK    5  A    between atoms: C_7  and  C_9
REMARK    6  A    between atoms: C_9  and  O_10
REMARK    7  A    between atoms: C_12  and  C_13
REMARK    8  A    between atoms: C_13  and  C_16
REMARK                            x       y       z     vdW  Elec       q    Type
REMARK                         _______ _______ _______ _____ _____    ______ ____
ROOT
ATOM      1  O   UNL     1      34.402 -23.488 -17.199  0.00  0.00    -0.275 OA
ATOM      2  N   UNL     1      32.761 -22.380 -18.408  0.00  0.00    -0.304 N 
ATOM      3  C   UNL     1      33.235 -23.130 -17.342  0.00  0.00    +0.222 C 
ATOM      4  H   UNL     1      31.805 -22.143 -18.433  0.00  0.00    +0.149 HD
ENDROOT
BRANCH   3   5
ATOM      5  C   UNL     1      32.125 -23.489 -16.370  0.00  0.00    +0.086 C 
BRANCH   5   6
ATOM      6  C   UNL     1      30.840 -22.691 -16.582  0.00  0.00    +0.021 C 
BRANCH   6   7
ATOM      7  C   UNL     1      29.590 -23.485 -16.193  0.00  0.00    +0.110 C 
BRANCH   7   9
ATOM      8  O   UNL     1      27.982 -21.802 -16.908  0.00  0.00    -0.250 OA
ATOM      9  C   UNL     1      28.355 -22.967 -16.893  0.00  0.00    +0.314 C 
BRANCH   9  10
ATOM     10  O   UNL     1      27.688 -23.968 -17.526  0.00  0.00    -0.480 OA
ATOM     11  H   UNL     1      26.930 -24.350 -17.129  0.00  0.00    +0.295 HD
ENDBRANCH   9  10
ENDBRANCH   7   9
ENDBRANCH   6   7
ENDBRANCH   5   6
ENDBRANCH   3   5
BRANCH   2  12
ATOM     12  C   UNL     1      33.617 -21.936 -19.482  0.00  0.00    +0.095 C 
BRANCH  12  13
ATOM     13  C   UNL     1      33.154 -20.618 -20.098  0.00  0.00    +0.063 C 
BRANCH  13  16
ATOM     14  N   UNL     1      35.573 -20.056 -20.279  0.00  0.00    -0.319 N 
ATOM     15  N   UNL     1      35.614 -18.324 -21.670  0.00  0.00    -0.315 N 
ATOM     16  C   UNL     1      34.301 -19.794 -20.632  0.00  0.00    +0.039 C 
ATOM     17  C   UNL     1      34.322 -18.744 -21.477  0.00  0.00    +0.069 C 
ATOM     18  C   UNL     1      36.342 -19.135 -20.935  0.00  0.00    +0.182 C 
ATOM     19  H   UNL     1      35.886 -20.765 -19.673  0.00  0.00    +0.148 HD
ATOM     20  H   UNL     1      35.927 -17.580 -22.235  0.00  0.00    +0.148 HD
ENDBRANCH  13  16
ENDBRANCH  12  13
ENDBRANCH   2  12
TORSDOF 8
ENDMDL
MODEL 2
REMARK VINA RESULT:      -7.4      6.369      8.412
REMARK  Name = 9942657
REMARK  8 active torsions:
REMARK  status: ('A' for Active; 'I' for Inactive)
REMARK    1  A    between atoms: N_2  and  C_12
REMARK    2  A    between atoms: C_3  and  C_5
REMARK    3  A    between atoms: C_5  and  C_6
REMARK    4  A    between atoms: C_6  and  C_7
REMARK    5  A    between atoms: C_7  and  C_9
REMARK    6  A    between atoms: C_9  and  O_10
REMARK    7  A    between atoms: C_12  and  C_13
REMARK    8  A    between atoms: C_13  and  C_16
REMARK                            x       y       z     vdW  Elec       q    Type
REMARK                         _______ _______ _______ _____ _____    ______ ____
ROOT
ATOM      1  O   UNL     1      35.796 -18.469 -20.602  0.00  0.00    -0.275 OA
ATOM      2  N   UNL     1      34.121 -17.098 -21.434  0.00  0.00    -0.304 N 
ATOM      3  C   UNL     1      34.896 -18.247 -21.408  0.00  0.00    +0.222 C 
ATOM      4  H   UNL     1      33.421 -17.012 -22.122  0.00  0.00    +0.149 HD
ENDROOT
BRANCH   3   5
ATOM      5  C   UNL     1      34.520 -19.204 -22.526  0.00  0.00    +0.086 C 
BRANCH   5   6
ATOM      6  C   UNL     1      35.282 -18.958 -23.827  0.00  0.00    +0.021 C 
BRANCH   6   7
ATOM      7  C   UNL     1      34.394 -18.349 -24.915  0.00  0.00    +0.110 C 
BRANCH   7   9
ATOM      8  O   UNL     1      34.137 -16.153 -25.935  0.00  0.00    -0.250 OA
ATOM      9  C   UNL     1      34.662 -16.872 -25.097  0.00  0.00    +0.314 C 
BRANCH   9  10
ATOM     10  O   UNL     1      35.573 -16.419 -24.196  0.00  0.00    -0.480 OA
ATOM     11  H   UNL     1      36.405 -16.103 -24.490  0.00  0.00    +0.295 HD
ENDBRANCH   9  10
ENDBRANCH   7   9
ENDBRANCH   6   7
ENDBRANCH   5   6
ENDBRANCH   3   5
BRANCH   2  12
ATOM     12  C   UNL     1      34.302 -16.022 -20.488  0.00  0.00    +0.095 C 
BRANCH  12  13
ATOM     13  C   UNL     1      34.819 -14.743 -21.144  0.00  0.00    +0.063 C 
BRANCH  13  16
ATOM     14  N   UNL     1      34.236 -13.841 -23.391  0.00  0.00    -0.319 N 
ATOM     15  N   UNL     1      32.068 -13.385 -23.235  0.00  0.00    -0.315 N 
ATOM     16  C   UNL     1      33.845 -14.173 -22.147  0.00  0.00    +0.039 C 
ATOM     17  C   UNL     1      32.529 -13.897 -22.049  0.00  0.00    +0.069 C 
ATOM     18  C   UNL     1      33.121 -13.364 -24.022  0.00  0.00    +0.182 C 
ATOM     19  H   UNL     1      35.141 -13.925 -23.770  0.00  0.00    +0.148 HD
ATOM     20  H   UNL     1      31.151 -13.096 -23.450  0.00  0.00    +0.148 HD
ENDBRANCH  13  16
ENDBRANCH  12  13
ENDBRANCH   2  12
TORSDOF 8
ENDMDL
MODEL 3
REMARK VINA RESULT:      -7.2      1.545      2.295
REMARK  Name = 9942657
REMARK  8 active torsions:
REMARK  status: ('A' for Active; 'I' for Inactive)
REMARK    1  A    between atoms: N_2  and  C_12
REMARK    2  A    between atoms: C_3  and  C_5
REMARK    3  A    between atoms: C_5  and  C_6
REMARK    4  A    between atoms: C_6  and  C_7
REMARK    5  A    between atoms: C_7  and  C_9
REMARK    6  A    between atoms: C_9  and  O_10
REMARK    7  A    between atoms: C_12  and  C_13
REMARK    8  A    between atoms: C_13  and  C_16
REMARK                            x       y       z     vdW  Elec       q    Type
REMARK                         _______ _______ _______ _____ _____    ______ ____
ROOT
ATOM      1  O   UNL     1      31.406 -22.311 -17.421  0.00  0.00    -0.275 OA
ATOM      2  N   UNL     1      33.273 -23.386 -16.558  0.00  0.00    -0.304 N 
ATOM      3  C   UNL     1      31.916 -23.112 -16.641  0.00  0.00    +0.222 C 
ATOM      4  H   UNL     1      33.584 -24.046 -15.897  0.00  0.00    +0.149 HD
ENDROOT
BRANCH   3   5
ATOM      5  C   UNL     1      31.119 -23.907 -15.620  0.00  0.00    +0.086 C 
BRANCH   5   6
ATOM      6  C   UNL     1      29.892 -23.168 -15.088  0.00  0.00    +0.021 C 
BRANCH   6   7
ATOM      7  C   UNL     1      28.581 -23.812 -15.545  0.00  0.00    +0.110 C 
BRANCH   7   9
ATOM      8  O   UNL     1      27.538 -23.928 -17.742  0.00  0.00    -0.250 OA
ATOM      9  C   UNL     1      28.136 -23.286 -16.891  0.00  0.00    +0.314 C 
BRANCH   9  10
ATOM     10  O   UNL     1      28.481 -21.981 -17.052  0.00  0.00    -0.480 OA
ATOM     11  H   UNL     1      28.076 -21.321 -16.523  0.00  0.00    +0.295 HD
ENDBRANCH   9  10
ENDBRANCH   7   9
ENDBRANCH   6   7
ENDBRANCH   5   6
ENDBRANCH   3   5
BRANCH   2  12
ATOM     12  C   UNL     1      34.244 -22.736 -17.406  0.00  0.00    +0.095 C 
BRANCH  12  13
ATOM     13  C   UNL     1      33.946 -22.922 -18.892  0.00  0.00    +0.063 C 
BRANCH  13  16
ATOM     14  N   UNL     1      32.672 -21.061 -19.948  0.00  0.00    -0.319 N 
ATOM     15  N   UNL     1      34.254 -19.699 -20.709  0.00  0.00    -0.315 N 
ATOM     16  C   UNL     1      33.861 -21.610 -19.633  0.00  0.00    +0.039 C 
ATOM     17  C   UNL     1      34.823 -20.785 -20.094  0.00  0.00    +0.069 C 
ATOM     18  C   UNL     1      32.958 -19.896 -20.604  0.00  0.00    +0.182 C 
ATOM     19  H   UNL     1      31.780 -21.424 -19.746  0.00  0.00    +0.148 HD
ATOM     20  H   UNL     1      34.714 -18.940 -21.136  0.00  0.00    +0.148 HD
ENDBRANCH  13  16
ENDBRANCH  12  13
ENDBRANCH   2  12
TORSDOF 8
ENDMDL
MODEL 4
REMARK VINA RESULT:      -7.1      5.581      6.064
REMARK  Name = 9942657
REMARK  8 active torsions:
REMARK  status: ('A' for Active; 'I' for Inactive)
REMARK    1  A    between atoms: N_2  and  C_12
REMARK    2  A    between atoms: C_3  and  C_5
REMARK    3  A    between atoms: C_5  and  C_6
REMARK    4  A    between atoms: C_6  and  C_7
REMARK    5  A    between atoms: C_7  and  C_9
REMARK    6  A    between atoms: C_9  and  O_10
REMARK    7  A    between atoms: C_12  and  C_13
REMARK    8  A    between atoms: C_13  and  C_16
REMARK                            x       y       z     vdW  Elec       q    Type
REMARK                         _______ _______ _______ _____ _____    ______ ____
ROOT
ATOM      1  O   UNL     1      31.172 -23.491 -12.883  0.00  0.00    -0.275 OA
ATOM      2  N   UNL     1      32.490 -24.961 -14.102  0.00  0.00    -0.304 N 
ATOM      3  C   UNL     1      31.284 -24.428 -13.669  0.00  0.00    +0.222 C 
ATOM      4  H   UNL     1      32.476 -25.715 -14.735  0.00  0.00    +0.149 HD
ENDROOT
BRANCH   3   5
ATOM      5  C   UNL     1      30.098 -25.167 -14.265  0.00  0.00    +0.086 C 
BRANCH   5   6
ATOM      6  C   UNL     1      29.788 -24.770 -15.707  0.00  0.00    +0.021 C 
BRANCH   6   7
ATOM      7  C   UNL     1      29.323 -23.316 -15.823  0.00  0.00    +0.110 C 
BRANCH   7   9
ATOM      8  O   UNL     1      27.740 -24.059 -17.517  0.00  0.00    -0.250 OA
ATOM      9  C   UNL     1      28.245 -23.153 -16.869  0.00  0.00    +0.314 C 
BRANCH   9  10
ATOM     10  O   UNL     1      27.884 -21.850 -17.011  0.00  0.00    -0.480 OA
ATOM     11  H   UNL     1      28.344 -21.183 -16.541  0.00  0.00    +0.295 HD
ENDBRANCH   9  10
ENDBRANCH   7   9
ENDBRANCH   6   7
ENDBRANCH   5   6
ENDBRANCH   3   5
BRANCH   2  12
ATOM     12  C   UNL     1      33.764 -24.448 -13.657  0.00  0.00    +0.095 C 
BRANCH  12  13
ATOM     13  C   UNL     1      34.663 -24.021 -14.815  0.00  0.00    +0.063 C 
BRANCH  13  16
ATOM     14  N   UNL     1      35.746 -26.244 -15.121  0.00  0.00    -0.319 N 
ATOM     15  N   UNL     1      37.917 -25.778 -15.148  0.00  0.00    -0.315 N 
ATOM     16  C   UNL     1      35.873 -24.912 -14.967  0.00  0.00    +0.039 C 
ATOM     17  C   UNL     1      37.190 -24.626 -14.983  0.00  0.00    +0.069 C 
ATOM     18  C   UNL     1      37.018 -26.733 -15.227  0.00  0.00    +0.182 C 
ATOM     19  H   UNL     1      34.908 -26.759 -15.150  0.00  0.00    +0.148 HD
ATOM     20  H   UNL     1      38.897 -25.869 -15.196  0.00  0.00    +0.148 HD
ENDBRANCH  13  16
ENDBRANCH  12  13
ENDBRANCH   2  12
TORSDOF 8
ENDMDL
MODEL 5
REMARK VINA RESULT:      -7.1      4.656      6.332
REMARK  Name = 9942657
REMARK  8 active torsions:
REMARK  status: ('A' for Active; 'I' for Inactive)
REMARK    1  A    between atoms: N_2  and  C_12
REMARK    2  A    between atoms: C_3  and  C_5
REMARK    3  A    between atoms: C_5  and  C_6
REMARK    4  A    between atoms: C_6  and  C_7
REMARK    5  A    between atoms: C_7  and  C_9
REMARK    6  A    between atoms: C_9  and  O_10
REMARK    7  A    between atoms: C_12  and  C_13
REMARK    8  A    between atoms: C_13  and  C_16
REMARK                            x       y       z     vdW  Elec       q    Type
REMARK                         _______ _______ _______ _____ _____    ______ ____
ROOT
ATOM      1  O   UNL     1      34.806 -18.239 -20.781  0.00  0.00    -0.275 OA
ATOM      2  N   UNL     1      34.506 -19.355 -22.793  0.00  0.00    -0.304 N 
ATOM      3  C   UNL     1      34.264 -19.117 -21.449  0.00  0.00    +0.222 C 
ATOM      4  H   UNL     1      34.019 -20.085 -23.241  0.00  0.00    +0.149 HD
ENDROOT
BRANCH   3   5
ATOM      5  C   UNL     1      33.257 -20.100 -20.876  0.00  0.00    +0.086 C 
BRANCH   5   6
ATOM      6  C   UNL     1      33.789 -20.903 -19.690  0.00  0.00    +0.021 C 
BRANCH   6   7
ATOM      7  C   UNL     1      35.093 -21.633 -20.020  0.00  0.00    +0.110 C 
BRANCH   7   9
ATOM      8  O   UNL     1      36.552 -21.903 -18.089  0.00  0.00    -0.250 OA
ATOM      9  C   UNL     1      36.204 -21.255 -19.066  0.00  0.00    +0.314 C 
BRANCH   9  10
ATOM     10  O   UNL     1      36.793 -20.085 -19.429  0.00  0.00    -0.480 OA
ATOM     11  H   UNL     1      37.161 -19.992 -20.285  0.00  0.00    +0.295 HD
ENDBRANCH   9  10
ENDBRANCH   7   9
ENDBRANCH   6   7
ENDBRANCH   5   6
ENDBRANCH   3   5
BRANCH   2  12
ATOM     12  C   UNL     1      35.445 -18.571 -23.560  0.00  0.00    +0.095 C 
BRANCH  12  13
ATOM     13  C   UNL     1      34.764 -17.710 -24.622  0.00  0.00    +0.063 C 
BRANCH  13  16
ATOM     14  N   UNL     1      34.910 -15.878 -22.941  0.00  0.00    -0.319 N 
ATOM     15  N   UNL     1      33.695 -14.243 -23.829  0.00  0.00    -0.315 N 
ATOM     16  C   UNL     1      34.439 -16.323 -24.121  0.00  0.00    +0.039 C 
ATOM     17  C   UNL     1      33.702 -15.333 -24.663  0.00  0.00    +0.069 C 
ATOM     18  C   UNL     1      34.432 -14.604 -22.802  0.00  0.00    +0.182 C 
ATOM     19  H   UNL     1      35.482 -16.369 -22.308  0.00  0.00    +0.148 HD
ATOM     20  H   UNL     1      33.240 -13.381 -23.969  0.00  0.00    +0.148 HD
ENDBRANCH  13  16
ENDBRANCH  12  13
ENDBRANCH   2  12
TORSDOF 8
ENDMDL
MODEL 6
REMARK VINA RESULT:      -7.1      5.222      8.269
REMARK  Name = 9942657
REMARK  8 active torsions:
REMARK  status: ('A' for Active; 'I' for Inactive)
REMARK    1  A    between atoms: N_2  and  C_12
REMARK    2  A    between atoms: C_3  and  C_5
REMARK    3  A    between atoms: C_5  and  C_6
REMARK    4  A    between atoms: C_6  and  C_7
REMARK    5  A    between atoms: C_7  and  C_9
REMARK    6  A    between atoms: C_9  and  O_10
REMARK    7  A    between atoms: C_12  and  C_13
REMARK    8  A    between atoms: C_13  and  C_16
REMARK                            x       y       z     vdW  Elec       q    Type
REMARK                         _______ _______ _______ _____ _____    ______ ____
ROOT
ATOM      1  O   UNL     1      35.216 -16.662 -20.363  0.00  0.00    -0.275 OA
ATOM      2  N   UNL     1      34.579 -17.584 -22.394  0.00  0.00    -0.304 N 
ATOM      3  C   UNL     1      34.707 -16.553 -21.476  0.00  0.00    +0.222 C 
ATOM      4  H   UNL     1      34.154 -17.396 -23.263  0.00  0.00    +0.149 HD
ENDROOT
BRANCH   3   5
ATOM      5  C   UNL     1      34.111 -15.257 -21.999  0.00  0.00    +0.086 C 
BRANCH   5   6
ATOM      6  C   UNL     1      34.572 -14.893 -23.409  0.00  0.00    +0.021 C 
BRANCH   6   7
ATOM      7  C   UNL     1      33.422 -14.904 -24.419  0.00  0.00    +0.110 C 
BRANCH   7   9
ATOM      8  O   UNL     1      34.094 -16.982 -25.495  0.00  0.00    -0.250 OA
ATOM      9  C   UNL     1      33.705 -15.825 -25.583  0.00  0.00    +0.314 C 
BRANCH   9  10
ATOM     10  O   UNL     1      33.467 -15.211 -26.771  0.00  0.00    -0.480 OA
ATOM     11  H   UNL     1      33.735 -14.322 -26.901  0.00  0.00    +0.295 HD
ENDBRANCH   9  10
ENDBRANCH   7   9
ENDBRANCH   6   7
ENDBRANCH   5   6
ENDBRANCH   3   5
BRANCH   2  12
ATOM     12  C   UNL     1      35.045 -18.923 -22.122  0.00  0.00    +0.095 C 
BRANCH  12  13
ATOM     13  C   UNL     1      34.074 -19.718 -21.252  0.00  0.00    +0.063 C 
BRANCH  13  16
ATOM     14  N   UNL     1      36.079 -20.371 -19.926  0.00  0.00    -0.319 N 
ATOM     15  N   UNL     1      35.362 -22.062 -18.677  0.00  0.00    -0.315 N 
ATOM     16  C   UNL     1      34.782 -20.571 -20.227  0.00  0.00    +0.039 C 
ATOM     17  C   UNL     1      34.344 -21.597 -19.470  0.00  0.00    +0.069 C 
ATOM     18  C   UNL     1      36.392 -21.303 -18.976  0.00  0.00    +0.182 C 
ATOM     19  H   UNL     1      36.678 -19.692 -20.312  0.00  0.00    +0.148 HD
ATOM     20  H   UNL     1      35.329 -22.801 -18.027  0.00  0.00    +0.148 HD
ENDBRANCH  13  16
ENDBRANCH  12  13
ENDBRANCH   2  12
TORSDOF 8
ENDMDL
MODEL 7
REMARK VINA RESULT:      -7.0      3.744      5.687
REMARK  Name = 9942657
REMARK  8 active torsions:
REMARK  status: ('A' for Active; 'I' for Inactive)
REMARK    1  A    between atoms: N_2  and  C_12
REMARK    2  A    between atoms: C_3  and  C_5
REMARK    3  A    between atoms: C_5  and  C_6
REMARK    4  A    between atoms: C_6  and  C_7
REMARK    5  A    between atoms: C_7  and  C_9
REMARK    6  A    between atoms: C_9  and  O_10
REMARK    7  A    between atoms: C_12  and  C_13
REMARK    8  A    between atoms: C_13  and  C_16
REMARK                            x       y       z     vdW  Elec       q    Type
REMARK                         _______ _______ _______ _____ _____    ______ ____
ROOT
ATOM      1  O   UNL     1      35.561 -17.908 -20.606  0.00  0.00    -0.275 OA
ATOM      2  N   UNL     1      35.284 -19.690 -22.064  0.00  0.00    -0.304 N 
ATOM      3  C   UNL     1      35.798 -19.067 -20.937  0.00  0.00    +0.222 C 
ATOM      4  H   UNL     1      35.534 -20.626 -22.245  0.00  0.00    +0.149 HD
ENDROOT
BRANCH   3   5
ATOM      5  C   UNL     1      36.726 -19.985 -20.161  0.00  0.00    +0.086 C 
BRANCH   5   6
ATOM      6  C   UNL     1      36.257 -21.438 -20.117  0.00  0.00    +0.021 C 
BRANCH   6   7
ATOM      7  C   UNL     1      35.370 -21.727 -18.903  0.00  0.00    +0.110 C 
BRANCH   7   9
ATOM      8  O   UNL     1      33.029 -21.398 -19.483  0.00  0.00    -0.250 OA
ATOM      9  C   UNL     1      33.978 -22.150 -19.312  0.00  0.00    +0.314 C 
BRANCH   9  10
ATOM     10  O   UNL     1      33.897 -23.497 -19.478  0.00  0.00    -0.480 OA
ATOM     11  H   UNL     1      33.691 -24.047 -18.748  0.00  0.00    +0.295 HD
ENDBRANCH   9  10
ENDBRANCH   7   9
ENDBRANCH   6   7
ENDBRANCH   5   6
ENDBRANCH   3   5
BRANCH   2  12
ATOM     12  C   UNL     1      34.396 -19.017 -22.982  0.00  0.00    +0.095 C 
BRANCH  12  13
ATOM     13  C   UNL     1      35.140 -18.120 -23.969  0.00  0.00    +0.063 C 
BRANCH  13  16
ATOM     14  N   UNL     1      34.951 -15.900 -22.855  0.00  0.00    -0.319 N 
ATOM     15  N   UNL     1      33.776 -14.681 -24.294  0.00  0.00    -0.315 N 
ATOM     16  C   UNL     1      34.671 -16.685 -23.912  0.00  0.00    +0.039 C 
ATOM     17  C   UNL     1      33.958 -15.948 -24.788  0.00  0.00    +0.069 C 
ATOM     18  C   UNL     1      34.386 -14.685 -23.129  0.00  0.00    +0.182 C 
ATOM     19  H   UNL     1      35.458 -16.150 -22.050  0.00  0.00    +0.148 HD
ATOM     20  H   UNL     1      33.296 -13.934 -24.718  0.00  0.00    +0.148 HD
ENDBRANCH  13  16
ENDBRANCH  12  13
ENDBRANCH   2  12
TORSDOF 8
ENDMDL
MODEL 8
REMARK VINA RESULT:      -7.0      5.027      7.224
REMARK  Name = 9942657
REMARK  8 active torsions:
REMARK  status: ('A' for Active; 'I' for Inactive)
REMARK    1  A    between atoms: N_2  and  C_12
REMARK    2  A    between atoms: C_3  and  C_5
REMARK    3  A    between atoms: C_5  and  C_6
REMARK    4  A    between atoms: C_6  and  C_7
REMARK    5  A    between atoms: C_7  and  C_9
REMARK    6  A    between atoms: C_9  and  O_10
REMARK    7  A    between atoms: C_12  and  C_13
REMARK    8  A    between atoms: C_13  and  C_16
REMARK                            x       y       z     vdW  Elec       q    Type
REMARK                         _______ _______ _______ _____ _____    ______ ____
ROOT
ATOM      1  O   UNL     1      34.819 -22.881 -17.212  0.00  0.00    -0.275 OA
ATOM      2  N   UNL     1      36.870 -22.426 -16.228  0.00  0.00    -0.304 N 
ATOM      3  C   UNL     1      35.933 -22.363 -17.248  0.00  0.00    +0.222 C 
ATOM      4  H   UNL     1      37.738 -21.977 -16.352  0.00  0.00    +0.149 HD
ENDROOT
BRANCH   3   5
ATOM      5  C   UNL     1      36.457 -21.591 -18.447  0.00  0.00    +0.086 C 
BRANCH   5   6
ATOM      6  C   UNL     1      35.651 -21.817 -19.724  0.00  0.00    +0.021 C 
BRANCH   6   7
ATOM      7  C   UNL     1      34.797 -20.602 -20.096  0.00  0.00    +0.110 C 
BRANCH   7   9
ATOM      8  O   UNL     1      32.421 -20.169 -20.401  0.00  0.00    -0.250 OA
ATOM      9  C   UNL     1      33.320 -20.915 -20.036  0.00  0.00    +0.314 C 
BRANCH   9  10
ATOM     10  O   UNL     1      33.094 -22.152 -19.522  0.00  0.00    -0.480 OA
ATOM     11  H   UNL     1      32.771 -22.837 -20.073  0.00  0.00    +0.295 HD
ENDBRANCH   9  10
ENDBRANCH   7   9
ENDBRANCH   6   7
ENDBRANCH   5   6
ENDBRANCH   3   5
BRANCH   2  12
ATOM     12  C   UNL     1      36.620 -23.128 -14.992  0.00  0.00    +0.095 C 
BRANCH  12  13
ATOM     13  C   UNL     1      36.781 -24.640 -15.130  0.00  0.00    +0.063 C 
BRANCH  13  16
ATOM     14  N   UNL     1      39.230 -24.888 -15.516  0.00  0.00    -0.319 N 
ATOM     15  N   UNL     1      39.941 -25.993 -13.725  0.00  0.00    -0.315 N 
ATOM     16  C   UNL     1      38.159 -25.114 -14.732  0.00  0.00    +0.039 C 
ATOM     17  C   UNL     1      38.587 -25.785 -13.644  0.00  0.00    +0.069 C 
ATOM     18  C   UNL     1      40.296 -25.441 -14.864  0.00  0.00    +0.182 C 
ATOM     19  H   UNL     1      39.241 -24.419 -16.381  0.00  0.00    +0.148 HD
ATOM     20  H   UNL     1      40.519 -26.455 -13.075  0.00  0.00    +0.148 HD
ENDBRANCH  13  16
ENDBRANCH  12  13
ENDBRANCH   2  12
TORSDOF 8
ENDMDL
MODEL 9
REMARK VINA RESULT:      -6.9      3.790      6.151
REMARK  Name = 9942657
REMARK  8 active torsions:
REMARK  status: ('A' for Active; 'I' for Inactive)
REMARK    1  A    between atoms: N_2  and  C_12
REMARK    2  A    between atoms: C_3  and  C_5
REMARK    3  A    between atoms: C_5  and  C_6
REMARK    4  A    between atoms: C_6  and  C_7
REMARK    5  A    between atoms: C_7  and  C_9
REMARK    6  A    between atoms: C_9  and  O_10
REMARK    7  A    between atoms: C_12  and  C_13
REMARK    8  A    between atoms: C_13  and  C_16
REMARK                            x       y       z     vdW  Elec       q    Type
REMARK                         _______ _______ _______ _____ _____    ______ ____
ROOT
ATOM      1  O   UNL     1      34.160 -19.601 -21.289  0.00  0.00    -0.275 OA
ATOM      2  N   UNL     1      35.699 -17.867 -21.378  0.00  0.00    -0.304 N 
ATOM      3  C   UNL     1      35.277 -19.147 -21.052  0.00  0.00    +0.222 C 
ATOM      4  H   UNL     1      36.617 -17.596 -21.144  0.00  0.00    +0.149 HD
ENDROOT
BRANCH   3   5
ATOM      5  C   UNL     1      36.361 -19.930 -20.329  0.00  0.00    +0.086 C 
BRANCH   5   6
ATOM      6  C   UNL     1      36.084 -21.430 -20.246  0.00  0.00    +0.021 C 
BRANCH   6   7
ATOM      7  C   UNL     1      35.392 -21.822 -18.938  0.00  0.00    +0.110 C 
BRANCH   7   9
ATOM      8  O   UNL     1      33.874 -23.695 -19.277  0.00  0.00    -0.250 OA
ATOM      9  C   UNL     1      34.059 -22.490 -19.186  0.00  0.00    +0.314 C 
BRANCH   9  10
ATOM     10  O   UNL     1      33.059 -21.575 -19.295  0.00  0.00    -0.480 OA
ATOM     11  H   UNL     1      32.193 -21.853 -19.519  0.00  0.00    +0.295 HD
ENDBRANCH   9  10
ENDBRANCH   7   9
ENDBRANCH   6   7
ENDBRANCH   5   6
ENDBRANCH   3   5
BRANCH   2  12
ATOM     12  C   UNL     1      34.842 -16.918 -22.046  0.00  0.00    +0.095 C 
BRANCH  12  13
ATOM     13  C   UNL     1      34.548 -15.687 -21.192  0.00  0.00    +0.063 C 
BRANCH  13  16
ATOM     14  N   UNL     1      34.292 -13.892 -22.900  0.00  0.00    -0.319 N 
ATOM     15  N   UNL     1      32.164 -13.282 -22.716  0.00  0.00    -0.315 N 
ATOM     16  C   UNL     1      33.740 -14.648 -21.933  0.00  0.00    +0.039 C 
ATOM     17  C   UNL     1      32.448 -14.280 -21.819  0.00  0.00    +0.069 C 
ATOM     18  C   UNL     1      33.296 -13.072 -23.351  0.00  0.00    +0.182 C 
ATOM     19  H   UNL     1      35.223 -13.924 -23.217  0.00  0.00    +0.148 HD
ATOM     20  H   UNL     1      31.304 -12.824 -22.854  0.00  0.00    +0.148 HD
ENDBRANCH  13  16
ENDBRANCH  12  13
ENDBRANCH   2  12
TORSDOF 8
ENDMDL
