MODEL 1
REMARK VINA RESULT:      -8.6      0.000      0.000
REMARK  Name = 6030
REMARK  8 active torsions:
REMARK  status: ('A' for Active; 'I' for Inactive)
REMARK    1  A    between atoms: C_2  and  O_15
REMARK    2  A    between atoms: C_3  and  O_17
REMARK    3  A    between atoms: C_4  and  C_19
REMARK    4  A    between atoms: C_5  and  N_8
REMARK    5  A    between atoms: C_19  and  O_20
REMARK    6  A    between atoms: O_20  and  P_21
REMARK    7  A    between atoms: P_21  and  O_23
REMARK    8  A    between atoms: P_21  and  O_25
REMARK                            x       y       z     vdW  Elec       q    Type
REMARK                         _______ _______ _______ _____ _____    ______ ____
ROOT
ATOM      1  O   UNL     1      35.895 -24.950 -15.811  0.00  0.00    -0.333 OA
ATOM      2  C   UNL     1      37.506 -23.527 -14.816  0.00  0.00    +0.171 C 
ATOM      3  C   UNL     1      36.379 -22.675 -15.361  0.00  0.00    +0.187 C 
ATOM      4  C   UNL     1      36.856 -24.901 -14.734  0.00  0.00    +0.176 C 
ATOM      5  C   UNL     1      35.707 -23.626 -16.336  0.00  0.00    +0.229 C 
ENDROOT
BRANCH   5   8
ATOM      6  O   UNL     1      34.432 -22.957 -18.766  0.00  0.00    -0.252 OA
ATOM      7  O   UNL     1      30.306 -22.671 -16.733  0.00  0.00    -0.270 OA
ATOM      8  N   UNL     1      34.302 -23.372 -16.471  0.00  0.00    -0.217 N 
ATOM      9  N   UNL     1      32.379 -22.815 -17.752  0.00  0.00    -0.236 N 
ATOM     10  C   UNL     1      33.761 -23.043 -17.736  0.00  0.00    +0.315 C 
ATOM     11  C   UNL     1      33.473 -23.450 -15.357  0.00  0.00    +0.076 C 
ATOM     12  C   UNL     1      32.157 -23.230 -15.388  0.00  0.00    +0.074 C 
ATOM     13  C   UNL     1      31.514 -22.880 -16.671  0.00  0.00    +0.254 C 
ATOM     14  H   UNL     1      31.980 -22.584 -18.622  0.00  0.00    +0.159 HD
ENDBRANCH   5   8
BRANCH   2  15
ATOM     15  O   UNL     1      38.572 -23.601 -15.763  0.00  0.00    -0.379 OA
ATOM     16  H   UNL     1      39.018 -24.458 -15.681  0.00  0.00    +0.211 HD
ENDBRANCH   2  15
BRANCH   3  17
ATOM     17  O   UNL     1      36.849 -21.498 -15.985  0.00  0.00    -0.378 OA
ATOM     18  H   UNL     1      37.535 -21.726 -16.632  0.00  0.00    +0.211 HD
ENDBRANCH   3  17
BRANCH   4  19
ATOM     19  C   UNL     1      36.113 -25.138 -13.426  0.00  0.00    +0.186 C 
BRANCH  19  20
ATOM     20  O   UNL     1      36.921 -24.680 -12.355  0.00  0.00    -0.271 OA
BRANCH  20  21
ATOM     21  P   UNL     1      36.258 -23.694 -11.256  0.00  0.00    +0.473 P 
ATOM     22  O   UNL     1      36.181 -24.256  -9.866  0.00  0.00    -0.227 OA
BRANCH  21  23
ATOM     23  O   UNL     1      34.840 -23.281 -11.915  0.00  0.00    -0.303 OA
ATOM     24  H   UNL     1      34.992 -22.898 -12.793  0.00  0.00    +0.222 HD
ENDBRANCH  21  23
BRANCH  21  25
ATOM     25  O   UNL     1      37.141 -22.347 -11.399  0.00  0.00    -0.303 OA
ATOM     26  H   UNL     1      37.021 -21.796 -10.609  0.00  0.00    +0.222 HD
ENDBRANCH  21  25
ENDBRANCH  20  21
ENDBRANCH  19  20
ENDBRANCH   4  19
TORSDOF 8
ENDMDL
MODEL 2
REMARK VINA RESULT:      -8.4      3.020      6.571
REMARK  Name = 6030
REMARK  8 active torsions:
REMARK  status: ('A' for Active; 'I' for Inactive)
REMARK    1  A    between atoms: C_2  and  O_15
REMARK    2  A    between atoms: C_3  and  O_17
REMARK    3  A    between atoms: C_4  and  C_19
REMARK    4  A    between atoms: C_5  and  N_8
REMARK    5  A    between atoms: C_19  and  O_20
REMARK    6  A    between atoms: O_20  and  P_21
REMARK    7  A    between atoms: P_21  and  O_23
REMARK    8  A    between atoms: P_21  and  O_25
REMARK                            x       y       z     vdW  Elec       q    Type
REMARK                         _______ _______ _______ _____ _____    ______ ____
ROOT
ATOM      1  O   UNL     1      34.931 -25.148 -15.186  0.00  0.00    -0.333 OA
ATOM      2  C   UNL     1      33.547 -23.952 -13.681  0.00  0.00    +0.171 C 
ATOM      3  C   UNL     1      34.890 -24.183 -13.022  0.00  0.00    +0.187 C 
ATOM      4  C   UNL     1      33.872 -24.165 -15.153  0.00  0.00    +0.176 C 
ATOM      5  C   UNL     1      35.463 -25.313 -13.861  0.00  0.00    +0.229 C 
ENDROOT
BRANCH   5   8
ATOM      6  O   UNL     1      37.176 -26.519 -11.967  0.00  0.00    -0.252 OA
ATOM      7  O   UNL     1      40.947 -25.106 -14.209  0.00  0.00    -0.270 OA
ATOM      8  N   UNL     1      36.895 -25.276 -13.926  0.00  0.00    -0.217 N 
ATOM      9  N   UNL     1      39.053 -25.814 -13.084  0.00  0.00    -0.236 N 
ATOM     10  C   UNL     1      37.664 -25.913 -12.924  0.00  0.00    +0.315 C 
ATOM     11  C   UNL     1      37.526 -24.615 -14.974  0.00  0.00    +0.076 C 
ATOM     12  C   UNL     1      38.851 -24.529 -15.113  0.00  0.00    +0.074 C 
ATOM     13  C   UNL     1      39.725 -25.167 -14.109  0.00  0.00    +0.254 C 
ATOM     14  H   UNL     1      39.608 -26.250 -12.399  0.00  0.00    +0.159 HD
ENDBRANCH   5   8
BRANCH   2  15
ATOM     15  O   UNL     1      32.619 -24.963 -13.285  0.00  0.00    -0.379 OA
ATOM     16  H   UNL     1      32.389 -24.841 -12.350  0.00  0.00    +0.211 HD
ENDBRANCH   2  15
BRANCH   3  17
ATOM     17  O   UNL     1      34.766 -24.529 -11.658  0.00  0.00    -0.378 OA
ATOM     18  H   UNL     1      34.276 -23.834 -11.191  0.00  0.00    +0.211 HD
ENDBRANCH   3  17
BRANCH   4  19
ATOM     19  C   UNL     1      34.373 -22.906 -15.848  0.00  0.00    +0.186 C 
BRANCH  19  20
ATOM     20  O   UNL     1      34.763 -23.241 -17.169  0.00  0.00    -0.271 OA
BRANCH  20  21
ATOM     21  P   UNL     1      33.790 -22.816 -18.391  0.00  0.00    +0.473 P 
ATOM     22  O   UNL     1      32.370 -22.530 -18.000  0.00  0.00    -0.227 OA
BRANCH  21  23
ATOM     23  O   UNL     1      33.984 -24.008 -19.468  0.00  0.00    -0.303 OA
ATOM     24  H   UNL     1      33.532 -24.806 -19.150  0.00  0.00    +0.222 HD
ENDBRANCH  21  23
BRANCH  21  25
ATOM     25  O   UNL     1      34.577 -21.575 -19.065  0.00  0.00    -0.303 OA
ATOM     26  H   UNL     1      34.133 -21.321 -19.890  0.00  0.00    +0.222 HD
ENDBRANCH  21  25
ENDBRANCH  20  21
ENDBRANCH  19  20
ENDBRANCH   4  19
TORSDOF 8
ENDMDL
MODEL 3
REMARK VINA RESULT:      -8.4      3.181      6.671
REMARK  Name = 6030
REMARK  8 active torsions:
REMARK  status: ('A' for Active; 'I' for Inactive)
REMARK    1  A    between atoms: C_2  and  O_15
REMARK    2  A    between atoms: C_3  and  O_17
REMARK    3  A    between atoms: C_4  and  C_19
REMARK    4  A    between atoms: C_5  and  N_8
REMARK    5  A    between atoms: C_19  and  O_20
REMARK    6  A    between atoms: O_20  and  P_21
REMARK    7  A    between atoms: P_21  and  O_23
REMARK    8  A    between atoms: P_21  and  O_25
REMARK                            x       y       z     vdW  Elec       q    Type
REMARK                         _______ _______ _______ _____ _____    ______ ____
ROOT
ATOM      1  O   UNL     1      31.993 -25.423 -14.385  0.00  0.00    -0.333 OA
ATOM      2  C   UNL     1      30.384 -23.993 -13.396  0.00  0.00    +0.171 C 
ATOM      3  C   UNL     1      31.708 -23.262 -13.457  0.00  0.00    +0.187 C 
ATOM      4  C   UNL     1      30.585 -25.102 -14.419  0.00  0.00    +0.176 C 
ATOM      5  C   UNL     1      32.691 -24.403 -13.651  0.00  0.00    +0.229 C 
ENDROOT
BRANCH   5   8
ATOM      6  O   UNL     1      35.344 -24.655 -12.716  0.00  0.00    -0.252 OA
ATOM      7  O   UNL     1      37.074 -22.847 -16.586  0.00  0.00    -0.270 OA
ATOM      8  N   UNL     1      33.853 -24.007 -14.394  0.00  0.00    -0.217 N 
ATOM      9  N   UNL     1      36.204 -23.755 -14.644  0.00  0.00    -0.236 N 
ATOM     10  C   UNL     1      35.141 -24.176 -13.833  0.00  0.00    +0.315 C 
ATOM     11  C   UNL     1      33.711 -23.458 -15.663  0.00  0.00    +0.076 C 
ATOM     12  C   UNL     1      34.734 -23.062 -16.424  0.00  0.00    +0.074 C 
ATOM     13  C   UNL     1      36.111 -23.203 -15.912  0.00  0.00    +0.254 C 
ATOM     14  H   UNL     1      37.109 -23.862 -14.274  0.00  0.00    +0.159 HD
ENDBRANCH   5   8
BRANCH   2  15
ATOM     15  O   UNL     1      30.213 -24.602 -12.116  0.00  0.00    -0.379 OA
ATOM     16  H   UNL     1      30.068 -25.554 -12.228  0.00  0.00    +0.211 HD
ENDBRANCH   2  15
BRANCH   3  17
ATOM     17  O   UNL     1      31.965 -22.518 -12.284  0.00  0.00    -0.378 OA
ATOM     18  H   UNL     1      32.628 -22.979 -11.746  0.00  0.00    +0.211 HD
ENDBRANCH   3  17
BRANCH   4  19
ATOM     19  C   UNL     1      30.230 -24.683 -15.840  0.00  0.00    +0.186 C 
BRANCH  19  20
ATOM     20  O   UNL     1      28.843 -24.397 -15.896  0.00  0.00    -0.271 OA
BRANCH  20  21
ATOM     21  P   UNL     1      28.373 -22.977 -16.514  0.00  0.00    +0.473 P 
ATOM     22  O   UNL     1      27.688 -22.059 -15.543  0.00  0.00    -0.227 OA
BRANCH  21  23
ATOM     23  O   UNL     1      27.496 -23.393 -17.808  0.00  0.00    -0.303 OA
ATOM     24  H   UNL     1      27.109 -22.596 -18.205  0.00  0.00    +0.222 HD
ENDBRANCH  21  23
BRANCH  21  25
ATOM     25  O   UNL     1      29.735 -22.393 -17.160  0.00  0.00    -0.303 OA
ATOM     26  H   UNL     1      29.585 -21.484 -17.462  0.00  0.00    +0.222 HD
ENDBRANCH  21  25
ENDBRANCH  20  21
ENDBRANCH  19  20
ENDBRANCH   4  19
TORSDOF 8
ENDMDL
MODEL 4
REMARK VINA RESULT:      -8.3      0.975      1.392
REMARK  Name = 6030
REMARK  8 active torsions:
REMARK  status: ('A' for Active; 'I' for Inactive)
REMARK    1  A    between atoms: C_2  and  O_15
REMARK    2  A    between atoms: C_3  and  O_17
REMARK    3  A    between atoms: C_4  and  C_19
REMARK    4  A    between atoms: C_5  and  N_8
REMARK    5  A    between atoms: C_19  and  O_20
REMARK    6  A    between atoms: O_20  and  P_21
REMARK    7  A    between atoms: P_21  and  O_23
REMARK    8  A    between atoms: P_21  and  O_25
REMARK                            x       y       z     vdW  Elec       q    Type
REMARK                         _______ _______ _______ _____ _____    ______ ____
ROOT
ATOM      1  O   UNL     1      35.796 -24.297 -15.163  0.00  0.00    -0.333 OA
ATOM      2  C   UNL     1      37.520 -22.681 -15.324  0.00  0.00    +0.171 C 
ATOM      3  C   UNL     1      36.354 -22.230 -16.178  0.00  0.00    +0.187 C 
ATOM      4  C   UNL     1      36.864 -23.696 -14.398  0.00  0.00    +0.176 C 
ATOM      5  C   UNL     1      35.573 -23.521 -16.352  0.00  0.00    +0.229 C 
ENDROOT
BRANCH   5   8
ATOM      6  O   UNL     1      34.310 -22.908 -18.802  0.00  0.00    -0.252 OA
ATOM      7  O   UNL     1      30.160 -22.666 -16.813  0.00  0.00    -0.270 OA
ATOM      8  N   UNL     1      34.164 -23.294 -16.503  0.00  0.00    -0.217 N 
ATOM      9  N   UNL     1      32.244 -22.787 -17.810  0.00  0.00    -0.236 N 
ATOM     10  C   UNL     1      33.631 -22.992 -17.777  0.00  0.00    +0.315 C 
ATOM     11  C   UNL     1      33.326 -23.371 -15.396  0.00  0.00    +0.076 C 
ATOM     12  C   UNL     1      32.007 -23.173 -15.443  0.00  0.00    +0.074 C 
ATOM     13  C   UNL     1      31.371 -22.853 -16.736  0.00  0.00    +0.254 C 
ATOM     14  H   UNL     1      31.850 -22.576 -18.686  0.00  0.00    +0.159 HD
ENDBRANCH   5   8
BRANCH   2  15
ATOM     15  O   UNL     1      38.482 -23.371 -16.122  0.00  0.00    -0.379 OA
ATOM     16  H   UNL     1      39.119 -22.735 -16.482  0.00  0.00    +0.211 HD
ENDBRANCH   2  15
BRANCH   3  17
ATOM     17  O   UNL     1      36.773 -21.679 -17.409  0.00  0.00    -0.378 OA
ATOM     18  H   UNL     1      36.133 -21.010 -17.699  0.00  0.00    +0.211 HD
ENDBRANCH   3  17
BRANCH   4  19
ATOM     19  C   UNL     1      36.257 -23.069 -13.150  0.00  0.00    +0.186 C 
BRANCH  19  20
ATOM     20  O   UNL     1      35.469 -24.043 -12.489  0.00  0.00    -0.271 OA
BRANCH  20  21
ATOM     21  P   UNL     1      36.120 -24.848 -11.244  0.00  0.00    +0.473 P 
ATOM     22  O   UNL     1      35.209 -25.033 -10.065  0.00  0.00    -0.227 OA
BRANCH  21  23
ATOM     23  O   UNL     1      37.490 -24.044 -10.941  0.00  0.00    -0.303 OA
ATOM     24  H   UNL     1      37.879 -23.743 -11.777  0.00  0.00    +0.222 HD
ENDBRANCH  21  23
BRANCH  21  25
ATOM     25  O   UNL     1      36.636 -26.219 -11.930  0.00  0.00    -0.303 OA
ATOM     26  H   UNL     1      35.878 -26.709 -12.284  0.00  0.00    +0.222 HD
ENDBRANCH  21  25
ENDBRANCH  20  21
ENDBRANCH  19  20
ENDBRANCH   4  19
TORSDOF 8
ENDMDL
MODEL 5
REMARK VINA RESULT:      -8.3      2.454      4.190
REMARK  Name = 6030
REMARK  8 active torsions:
REMARK  status: ('A' for Active; 'I' for Inactive)
REMARK    1  A    between atoms: C_2  and  O_15
REMARK    2  A    between atoms: C_3  and  O_17
REMARK    3  A    between atoms: C_4  and  C_19
REMARK    4  A    between atoms: C_5  and  N_8
REMARK    5  A    between atoms: C_19  and  O_20
REMARK    6  A    between atoms: O_20  and  P_21
REMARK    7  A    between atoms: P_21  and  O_23
REMARK    8  A    between atoms: P_21  and  O_25
REMARK                            x       y       z     vdW  Elec       q    Type
REMARK                         _______ _______ _______ _____ _____    ______ ____
ROOT
ATOM      1  O   UNL     1      36.579 -23.106 -13.818  0.00  0.00    -0.333 OA
ATOM      2  C   UNL     1      36.840 -24.911 -12.306  0.00  0.00    +0.171 C 
ATOM      3  C   UNL     1      35.405 -24.889 -12.789  0.00  0.00    +0.187 C 
ATOM      4  C   UNL     1      37.547 -24.080 -13.368  0.00  0.00    +0.176 C 
ATOM      5  C   UNL     1      35.278 -23.477 -13.333  0.00  0.00    +0.229 C 
ENDROOT
BRANCH   5   8
ATOM      6  O   UNL     1      32.472 -23.464 -13.005  0.00  0.00    -0.252 OA
ATOM      7  O   UNL     1      31.759 -23.136 -17.546  0.00  0.00    -0.270 OA
ATOM      8  N   UNL     1      34.336 -23.388 -14.412  0.00  0.00    -0.217 N 
ATOM      9  N   UNL     1      32.119 -23.301 -15.266  0.00  0.00    -0.236 N 
ATOM     10  C   UNL     1      32.948 -23.391 -14.140  0.00  0.00    +0.315 C 
ATOM     11  C   UNL     1      34.789 -23.300 -15.724  0.00  0.00    +0.076 C 
ATOM     12  C   UNL     1      33.987 -23.215 -16.787  0.00  0.00    +0.074 C 
ATOM     13  C   UNL     1      32.524 -23.212 -16.589  0.00  0.00    +0.254 C 
ATOM     14  H   UNL     1      31.149 -23.301 -15.101  0.00  0.00    +0.159 HD
ENDBRANCH   5   8
BRANCH   2  15
ATOM     15  O   UNL     1      36.955 -24.224 -11.060  0.00  0.00    -0.379 OA
ATOM     16  H   UNL     1      37.477 -23.416 -11.185  0.00  0.00    +0.211 HD
ENDBRANCH   2  15
BRANCH   3  17
ATOM     17  O   UNL     1      34.486 -25.156 -11.750  0.00  0.00    -0.378 OA
ATOM     18  H   UNL     1      33.680 -24.635 -11.889  0.00  0.00    +0.211 HD
ENDBRANCH   3  17
BRANCH   4  19
ATOM     19  C   UNL     1      37.993 -24.896 -14.574  0.00  0.00    +0.186 C 
BRANCH  19  20
ATOM     20  O   UNL     1      38.961 -25.840 -14.150  0.00  0.00    -0.271 OA
BRANCH  20  21
ATOM     21  P   UNL     1      40.491 -25.651 -14.642  0.00  0.00    +0.473 P 
ATOM     22  O   UNL     1      41.133 -24.357 -14.230  0.00  0.00    -0.227 OA
BRANCH  21  23
ATOM     23  O   UNL     1      40.417 -25.908 -16.237  0.00  0.00    -0.303 OA
ATOM     24  H   UNL     1      40.306 -26.857 -16.406  0.00  0.00    +0.222 HD
ENDBRANCH  21  23
BRANCH  21  25
ATOM     25  O   UNL     1      41.219 -26.982 -14.084  0.00  0.00    -0.303 OA
ATOM     26  H   UNL     1      40.550 -27.657 -13.887  0.00  0.00    +0.222 HD
ENDBRANCH  21  25
ENDBRANCH  20  21
ENDBRANCH  19  20
ENDBRANCH   4  19
TORSDOF 8
ENDMDL
MODEL 6
REMARK VINA RESULT:      -8.2      2.446      4.574
REMARK  Name = 6030
REMARK  8 active torsions:
REMARK  status: ('A' for Active; 'I' for Inactive)
REMARK    1  A    between atoms: C_2  and  O_15
REMARK    2  A    between atoms: C_3  and  O_17
REMARK    3  A    between atoms: C_4  and  C_19
REMARK    4  A    between atoms: C_5  and  N_8
REMARK    5  A    between atoms: C_19  and  O_20
REMARK    6  A    between atoms: O_20  and  P_21
REMARK    7  A    between atoms: P_21  and  O_23
REMARK    8  A    between atoms: P_21  and  O_25
REMARK                            x       y       z     vdW  Elec       q    Type
REMARK                         _______ _______ _______ _____ _____    ______ ____
ROOT
ATOM      1  O   UNL     1      37.265 -23.411 -12.684  0.00  0.00    -0.333 OA
ATOM      2  C   UNL     1      36.033 -25.173 -11.690  0.00  0.00    +0.171 C 
ATOM      3  C   UNL     1      35.319 -24.736 -12.951  0.00  0.00    +0.187 C 
ATOM      4  C   UNL     1      37.433 -24.617 -11.907  0.00  0.00    +0.176 C 
ATOM      5  C   UNL     1      35.923 -23.364 -13.197  0.00  0.00    +0.229 C 
ENDROOT
BRANCH   5   8
ATOM      6  O   UNL     1      33.646 -23.075 -14.843  0.00  0.00    -0.252 OA
ATOM      7  O   UNL     1      36.216 -22.066 -18.532  0.00  0.00    -0.270 OA
ATOM      8  N   UNL     1      35.968 -23.026 -14.590  0.00  0.00    -0.217 N 
ATOM      9  N   UNL     1      34.927 -22.573 -16.679  0.00  0.00    -0.236 N 
ATOM     10  C   UNL     1      34.767 -22.906 -15.327  0.00  0.00    +0.315 C 
ATOM     11  C   UNL     1      37.193 -22.817 -15.214  0.00  0.00    +0.076 C 
ATOM     12  C   UNL     1      37.330 -22.500 -16.504  0.00  0.00    +0.074 C 
ATOM     13  C   UNL     1      36.125 -22.356 -17.343  0.00  0.00    +0.254 C 
ATOM     14  H   UNL     1      34.105 -22.484 -17.212  0.00  0.00    +0.159 HD
ENDBRANCH   5   8
BRANCH   2  15
ATOM     15  O   UNL     1      35.471 -24.520 -10.551  0.00  0.00    -0.379 OA
ATOM     16  H   UNL     1      35.395 -25.153  -9.820  0.00  0.00    +0.211 HD
ENDBRANCH   2  15
BRANCH   3  17
ATOM     17  O   UNL     1      33.917 -24.691 -12.786  0.00  0.00    -0.378 OA
ATOM     18  H   UNL     1      33.510 -25.431 -13.264  0.00  0.00    +0.211 HD
ENDBRANCH   3  17
BRANCH   4  19
ATOM     19  C   UNL     1      38.342 -25.559 -12.686  0.00  0.00    +0.186 C 
BRANCH  19  20
ATOM     20  O   UNL     1      39.376 -24.799 -13.286  0.00  0.00    -0.271 OA
BRANCH  20  21
ATOM     21  P   UNL     1      40.327 -25.518 -14.381  0.00  0.00    +0.473 P 
ATOM     22  O   UNL     1      41.025 -26.756 -13.897  0.00  0.00    -0.227 OA
BRANCH  21  23
ATOM     23  O   UNL     1      41.300 -24.329 -14.885  0.00  0.00    -0.303 OA
ATOM     24  H   UNL     1      41.108 -24.127 -15.815  0.00  0.00    +0.222 HD
ENDBRANCH  21  23
BRANCH  21  25
ATOM     25  O   UNL     1      39.330 -25.741 -15.634  0.00  0.00    -0.303 OA
ATOM     26  H   UNL     1      39.815 -25.595 -16.462  0.00  0.00    +0.222 HD
ENDBRANCH  21  25
ENDBRANCH  20  21
ENDBRANCH  19  20
ENDBRANCH   4  19
TORSDOF 8
ENDMDL
MODEL 7
REMARK VINA RESULT:      -8.1      7.360      9.939
REMARK  Name = 6030
REMARK  8 active torsions:
REMARK  status: ('A' for Active; 'I' for Inactive)
REMARK    1  A    between atoms: C_2  and  O_15
REMARK    2  A    between atoms: C_3  and  O_17
REMARK    3  A    between atoms: C_4  and  C_19
REMARK    4  A    between atoms: C_5  and  N_8
REMARK    5  A    between atoms: C_19  and  O_20
REMARK    6  A    between atoms: O_20  and  P_21
REMARK    7  A    between atoms: P_21  and  O_23
REMARK    8  A    between atoms: P_21  and  O_25
REMARK                            x       y       z     vdW  Elec       q    Type
REMARK                         _______ _______ _______ _____ _____    ______ ____
ROOT
ATOM      1  O   UNL     1      35.253 -17.461 -20.706  0.00  0.00    -0.333 OA
ATOM      2  C   UNL     1      34.762 -16.899 -22.954  0.00  0.00    +0.171 C 
ATOM      3  C   UNL     1      34.527 -18.383 -22.765  0.00  0.00    +0.187 C 
ATOM      4  C   UNL     1      34.736 -16.387 -21.521  0.00  0.00    +0.176 C 
ATOM      5  C   UNL     1      35.303 -18.665 -21.490  0.00  0.00    +0.229 C 
ENDROOT
BRANCH   5   8
ATOM      6  O   UNL     1      36.813 -20.624 -20.126  0.00  0.00    -0.252 OA
ATOM      7  O   UNL     1      33.018 -22.750 -18.602  0.00  0.00    -0.270 OA
ATOM      8  N   UNL     1      34.735 -19.741 -20.728  0.00  0.00    -0.217 N 
ATOM      9  N   UNL     1      34.922 -21.681 -19.368  0.00  0.00    -0.236 N 
ATOM     10  C   UNL     1      35.582 -20.672 -20.082  0.00  0.00    +0.315 C 
ATOM     11  C   UNL     1      33.354 -19.866 -20.627  0.00  0.00    +0.076 C 
ATOM     12  C   UNL     1      32.740 -20.834 -19.943  0.00  0.00    +0.074 C 
ATOM     13  C   UNL     1      33.552 -21.847 -19.240  0.00  0.00    +0.254 C 
ATOM     14  H   UNL     1      35.491 -22.341 -18.911  0.00  0.00    +0.159 HD
ENDBRANCH   5   8
BRANCH   2  15
ATOM     15  O   UNL     1      36.069 -16.668 -23.480  0.00  0.00    -0.379 OA
ATOM     16  H   UNL     1      36.733 -16.910 -22.815  0.00  0.00    +0.211 HD
ENDBRANCH   2  15
BRANCH   3  17
ATOM     17  O   UNL     1      34.990 -19.144 -23.861  0.00  0.00    -0.378 OA
ATOM     18  H   UNL     1      35.945 -19.291 -23.774  0.00  0.00    +0.211 HD
ENDBRANCH   3  17
BRANCH   4  19
ATOM     19  C   UNL     1      33.335 -16.050 -21.027  0.00  0.00    +0.186 C 
BRANCH  19  20
ATOM     20  O   UNL     1      32.665 -15.309 -22.032  0.00  0.00    -0.271 OA
BRANCH  20  21
ATOM     21  P   UNL     1      32.739 -13.693 -21.979  0.00  0.00    +0.473 P 
ATOM     22  O   UNL     1      32.505 -13.093 -20.622  0.00  0.00    -0.227 OA
BRANCH  21  23
ATOM     23  O   UNL     1      31.705 -13.222 -23.130  0.00  0.00    -0.303 OA
ATOM     24  H   UNL     1      32.151 -12.607 -23.733  0.00  0.00    +0.222 HD
ENDBRANCH  21  23
BRANCH  21  25
ATOM     25  O   UNL     1      34.186 -13.374 -22.625  0.00  0.00    -0.303 OA
ATOM     26  H   UNL     1      34.875 -13.502 -21.954  0.00  0.00    +0.222 HD
ENDBRANCH  21  25
ENDBRANCH  20  21
ENDBRANCH  19  20
ENDBRANCH   4  19
TORSDOF 8
ENDMDL
MODEL 8
REMARK VINA RESULT:      -8.1      3.346      6.765
REMARK  Name = 6030
REMARK  8 active torsions:
REMARK  status: ('A' for Active; 'I' for Inactive)
REMARK    1  A    between atoms: C_2  and  O_15
REMARK    2  A    between atoms: C_3  and  O_17
REMARK    3  A    between atoms: C_4  and  C_19
REMARK    4  A    between atoms: C_5  and  N_8
REMARK    5  A    between atoms: C_19  and  O_20
REMARK    6  A    between atoms: O_20  and  P_21
REMARK    7  A    between atoms: P_21  and  O_23
REMARK    8  A    between atoms: P_21  and  O_25
REMARK                            x       y       z     vdW  Elec       q    Type
REMARK                         _______ _______ _______ _____ _____    ______ ____
ROOT
ATOM      1  O   UNL     1      31.074 -24.169 -15.843  0.00  0.00    -0.333 OA
ATOM      2  C   UNL     1      30.782 -23.517 -13.584  0.00  0.00    +0.171 C 
ATOM      3  C   UNL     1      32.194 -23.172 -14.008  0.00  0.00    +0.187 C 
ATOM      4  C   UNL     1      30.076 -23.673 -14.924  0.00  0.00    +0.176 C 
ATOM      5  C   UNL     1      32.373 -24.039 -15.243  0.00  0.00    +0.229 C 
ENDROOT
BRANCH   5   8
ATOM      6  O   UNL     1      35.153 -23.740 -14.843  0.00  0.00    -0.252 OA
ATOM      7  O   UNL     1      35.721 -21.779 -18.975  0.00  0.00    -0.270 OA
ATOM      8  N   UNL     1      33.271 -23.454 -16.198  0.00  0.00    -0.217 N 
ATOM      9  N   UNL     1      35.434 -22.764 -16.901  0.00  0.00    -0.236 N 
ATOM     10  C   UNL     1      34.650 -23.351 -15.899  0.00  0.00    +0.315 C 
ATOM     11  C   UNL     1      32.784 -22.991 -17.415  0.00  0.00    +0.076 C 
ATOM     12  C   UNL     1      33.544 -22.434 -18.360  0.00  0.00    +0.074 C 
ATOM     13  C   UNL     1      34.995 -22.288 -18.126  0.00  0.00    +0.254 C 
ATOM     14  H   UNL     1      36.397 -22.681 -16.715  0.00  0.00    +0.159 HD
ENDBRANCH   5   8
BRANCH   2  15
ATOM     15  O   UNL     1      30.758 -24.783 -12.925  0.00  0.00    -0.379 OA
ATOM     16  H   UNL     1      29.839 -25.044 -12.760  0.00  0.00    +0.211 HD
ENDBRANCH   2  15
BRANCH   3  17
ATOM     17  O   UNL     1      33.142 -23.459 -13.001  0.00  0.00    -0.378 OA
ATOM     18  H   UNL     1      33.883 -23.955 -13.385  0.00  0.00    +0.211 HD
ENDBRANCH   3  17
BRANCH   4  19
ATOM     19  C   UNL     1      29.535 -22.360 -15.476  0.00  0.00    +0.186 C 
BRANCH  19  20
ATOM     20  O   UNL     1      29.195 -22.547 -16.839  0.00  0.00    -0.271 OA
BRANCH  20  21
ATOM     21  P   UNL     1      27.672 -22.957 -17.204  0.00  0.00    +0.473 P 
ATOM     22  O   UNL     1      27.093 -22.247 -18.394  0.00  0.00    -0.227 OA
BRANCH  21  23
ATOM     23  O   UNL     1      26.872 -22.744 -15.815  0.00  0.00    -0.303 OA
ATOM     24  H   UNL     1      25.942 -22.993 -15.936  0.00  0.00    +0.222 HD
ENDBRANCH  21  23
BRANCH  21  25
ATOM     25  O   UNL     1      27.754 -24.566 -17.343  0.00  0.00    -0.303 OA
ATOM     26  H   UNL     1      27.300 -24.844 -18.155  0.00  0.00    +0.222 HD
ENDBRANCH  21  25
ENDBRANCH  20  21
ENDBRANCH  19  20
ENDBRANCH   4  19
TORSDOF 8
ENDMDL
MODEL 9
REMARK VINA RESULT:      -8.0      2.344      4.266
REMARK  Name = 6030
REMARK  8 active torsions:
REMARK  status: ('A' for Active; 'I' for Inactive)
REMARK    1  A    between atoms: C_2  and  O_15
REMARK    2  A    between atoms: C_3  and  O_17
REMARK    3  A    between atoms: C_4  and  C_19
REMARK    4  A    between atoms: C_5  and  N_8
REMARK    5  A    between atoms: C_19  and  O_20
REMARK    6  A    between atoms: O_20  and  P_21
REMARK    7  A    between atoms: P_21  and  O_23
REMARK    8  A    between atoms: P_21  and  O_25
REMARK                            x       y       z     vdW  Elec       q    Type
REMARK                         _______ _______ _______ _____ _____    ______ ____
ROOT
ATOM      1  O   UNL     1      37.718 -23.621 -13.467  0.00  0.00    -0.333 OA
ATOM      2  C   UNL     1      36.683 -24.695 -11.627  0.00  0.00    +0.171 C 
ATOM      3  C   UNL     1      35.604 -24.212 -12.573  0.00  0.00    +0.187 C 
ATOM      4  C   UNL     1      37.915 -24.695 -12.521  0.00  0.00    +0.176 C 
ATOM      5  C   UNL     1      36.351 -23.181 -13.402  0.00  0.00    +0.229 C 
ENDROOT
BRANCH   5   8
ATOM      6  O   UNL     1      37.755 -22.033 -15.567  0.00  0.00    -0.252 OA
ATOM      7  O   UNL     1      34.265 -22.804 -18.476  0.00  0.00    -0.270 OA
ATOM      8  N   UNL     1      35.834 -23.070 -14.735  0.00  0.00    -0.217 N 
ATOM      9  N   UNL     1      36.016 -22.417 -17.014  0.00  0.00    -0.236 N 
ATOM     10  C   UNL     1      36.620 -22.475 -15.751  0.00  0.00    +0.315 C 
ATOM     11  C   UNL     1      34.561 -23.546 -15.028  0.00  0.00    +0.076 C 
ATOM     12  C   UNL     1      33.999 -23.484 -16.237  0.00  0.00    +0.074 C 
ATOM     13  C   UNL     1      34.753 -22.877 -17.352  0.00  0.00    +0.254 C 
ATOM     14  H   UNL     1      36.544 -22.008 -17.736  0.00  0.00    +0.159 HD
ENDBRANCH   5   8
BRANCH   2  15
ATOM     15  O   UNL     1      36.894 -23.741 -10.586  0.00  0.00    -0.379 OA
ATOM     16  H   UNL     1      37.769 -23.337 -10.691  0.00  0.00    +0.211 HD
ENDBRANCH   2  15
BRANCH   3  17
ATOM     17  O   UNL     1      34.498 -23.660 -11.889  0.00  0.00    -0.378 OA
ATOM     18  H   UNL     1      33.976 -24.373 -11.488  0.00  0.00    +0.211 HD
ENDBRANCH   3  17
BRANCH   4  19
ATOM     19  C   UNL     1      38.092 -25.989 -13.304  0.00  0.00    +0.186 C 
BRANCH  19  20
ATOM     20  O   UNL     1      38.611 -25.677 -14.585  0.00  0.00    -0.271 OA
BRANCH  20  21
ATOM     21  P   UNL     1      40.217 -25.689 -14.791  0.00  0.00    +0.473 P 
ATOM     22  O   UNL     1      40.944 -24.534 -14.167  0.00  0.00    -0.227 OA
BRANCH  21  23
ATOM     23  O   UNL     1      40.397 -25.835 -16.392  0.00  0.00    -0.303 OA
ATOM     24  H   UNL     1      40.916 -26.632 -16.587  0.00  0.00    +0.222 HD
ENDBRANCH  21  23
BRANCH  21  25
ATOM     25  O   UNL     1      40.642 -27.146 -14.234  0.00  0.00    -0.303 OA
ATOM     26  H   UNL     1      40.420 -27.822 -14.894  0.00  0.00    +0.222 HD
ENDBRANCH  21  25
ENDBRANCH  20  21
ENDBRANCH  19  20
ENDBRANCH   4  19
TORSDOF 8
ENDMDL
