MODEL 1
REMARK VINA RESULT:      -5.2      0.000      0.000
REMARK  Name = 189821
REMARK  5 active torsions:
REMARK  status: ('A' for Active; 'I' for Inactive)
REMARK    1  A    between atoms: C_7  and  C_28
REMARK    2  A    between atoms: C_12  and  O_25
REMARK    3  A    between atoms: C_28  and  C_29
REMARK    4  A    between atoms: C_29  and  O_30
REMARK    5  A    between atoms: O_30  and  C_32
REMARK                            x       y       z     vdW  Elec       q    Type
REMARK                         _______ _______ _______ _____ _____    ______ ____
ROOT
ATOM      1  O   UNL     1      32.001 -15.952 -21.139  0.00  0.00    -0.465 OA
ATOM      2  O   UNL     1      35.960 -22.932 -15.271  0.00  0.00    -0.287 OA
ATOM      3  N   UNL     1      34.263 -15.755 -20.841  0.00  0.00    -0.235 NA
ATOM      4  C   UNL     1      34.694 -18.063 -21.775  0.00  0.00    +0.031 C 
ATOM      5  C   UNL     1      33.647 -18.698 -20.833  0.00  0.00    +0.006 C 
ATOM      6  C   UNL     1      33.944 -20.163 -20.484  0.00  0.00    +0.003 C 
ATOM      7  C   UNL     1      34.066 -16.661 -21.988  0.00  0.00    +0.178 C 
ATOM      8  C   UNL     1      35.337 -20.235 -19.765  0.00  0.00    +0.034 C 
ATOM      9  C   UNL     1      32.315 -18.343 -21.496  0.00  0.00    +0.046 C 
ATOM     10  C   UNL     1      36.056 -18.098 -21.055  0.00  0.00    +0.032 C 
ATOM     11  C   UNL     1      32.549 -16.915 -22.034  0.00  0.00    +0.194 C 
ATOM     12  C   UNL     1      36.456 -19.515 -20.583  0.00  0.00    +0.111 C 
ATOM     13  C   UNL     1      35.676 -21.696 -19.267  0.00  0.00    +0.036 C 
ATOM     14  C   UNL     1      32.828 -20.741 -19.596  0.00  0.00    +0.004 C 
ATOM     15  C   UNL     1      34.791 -18.784 -23.151  0.00  0.00    +0.002 C 
ATOM     16  C   UNL     1      33.144 -22.153 -19.115  0.00  0.00    +0.022 C 
ATOM     17  C   UNL     1      34.485 -22.181 -18.431  0.00  0.00    -0.038 C 
ATOM     18  C   UNL     1      35.908 -22.713 -20.407  0.00  0.00    +0.009 C 
ATOM     19  C   UNL     1      36.955 -21.683 -18.443  0.00  0.00    -0.020 C 
ATOM     20  C   UNL     1      33.063 -15.418 -20.498  0.00  0.00    +0.196 C 
ATOM     21  C   UNL     1      34.582 -22.573 -17.151  0.00  0.00    +0.034 C 
ATOM     22  C   UNL     1      37.058 -22.070 -17.168  0.00  0.00    +0.038 C 
ATOM     23  C   UNL     1      32.720 -14.476 -19.403  0.00  0.00    +0.094 C 
ATOM     24  C   UNL     1      35.875 -22.557 -16.436  0.00  0.00    +0.195 C 
ENDROOT
BRANCH  12  25
ATOM     25  O   UNL     1      36.859 -20.292 -21.702  0.00  0.00    -0.384 OA
ATOM     26  H   UNL     1      37.122 -19.704 -22.427  0.00  0.00    +0.210 HD
ENDBRANCH  12  25
BRANCH   7  28
ATOM     27  O   UNL     1      35.789 -15.751 -23.365  0.00  0.00    -0.290 OA
ATOM     28  C   UNL     1      34.583 -15.906 -23.179  0.00  0.00    +0.218 C 
BRANCH  28  29
ATOM     29  C   UNL     1      33.539 -15.353 -24.127  0.00  0.00    +0.274 C 
BRANCH  29  30
ATOM     30  O   UNL     1      33.825 -14.010 -24.455  0.00  0.00    -0.440 OA
BRANCH  30  32
ATOM     31  O   UNL     1      32.173 -13.261 -23.025  0.00  0.00    -0.250 OA
ATOM     32  C   UNL     1      33.137 -13.056 -23.750  0.00  0.00    +0.318 C 
ATOM     33  C   UNL     1      33.733 -11.702 -23.991  0.00  0.00    +0.121 C 
ENDBRANCH  30  32
ENDBRANCH  29  30
ENDBRANCH  28  29
ENDBRANCH   7  28
TORSDOF 5
ENDMDL
MODEL 2
REMARK VINA RESULT:      -4.1      1.719      2.408
REMARK  Name = 189821
REMARK  5 active torsions:
REMARK  status: ('A' for Active; 'I' for Inactive)
REMARK    1  A    between atoms: C_7  and  C_28
REMARK    2  A    between atoms: C_12  and  O_25
REMARK    3  A    between atoms: C_28  and  C_29
REMARK    4  A    between atoms: C_29  and  O_30
REMARK    5  A    between atoms: O_30  and  C_32
REMARK                            x       y       z     vdW  Elec       q    Type
REMARK                         _______ _______ _______ _____ _____    ______ ____
ROOT
ATOM      1  O   UNL     1      33.334 -16.842 -21.306  0.00  0.00    -0.465 OA
ATOM      2  O   UNL     1      33.789 -23.266 -13.734  0.00  0.00    -0.287 OA
ATOM      3  N   UNL     1      35.463 -17.401 -20.677  0.00  0.00    -0.235 NA
ATOM      4  C   UNL     1      35.059 -19.857 -21.107  0.00  0.00    +0.031 C 
ATOM      5  C   UNL     1      33.770 -19.849 -20.255  0.00  0.00    +0.006 C 
ATOM      6  C   UNL     1      33.452 -21.206 -19.611  0.00  0.00    +0.003 C 
ATOM      7  C   UNL     1      35.036 -18.409 -21.664  0.00  0.00    +0.178 C 
ATOM      8  C   UNL     1      34.643 -21.606 -18.670  0.00  0.00    +0.034 C 
ATOM      9  C   UNL     1      32.739 -19.202 -21.182  0.00  0.00    +0.046 C 
ATOM     10  C   UNL     1      36.235 -20.212 -20.177  0.00  0.00    +0.032 C 
ATOM     11  C   UNL     1      33.548 -18.111 -21.915  0.00  0.00    +0.194 C 
ATOM     12  C   UNL     1      36.020 -21.534 -19.405  0.00  0.00    +0.111 C 
ATOM     13  C   UNL     1      34.351 -22.940 -17.875  0.00  0.00    +0.036 C 
ATOM     14  C   UNL     1      32.127 -21.134 -18.833  0.00  0.00    +0.004 C 
ATOM     15  C   UNL     1      34.993 -20.854 -22.300  0.00  0.00    +0.002 C 
ATOM     16  C   UNL     1      31.835 -22.419 -18.067  0.00  0.00    +0.022 C 
ATOM     17  C   UNL     1      32.997 -22.769 -17.176  0.00  0.00    -0.038 C 
ATOM     18  C   UNL     1      34.276 -24.201 -18.765  0.00  0.00    +0.009 C 
ATOM     19  C   UNL     1      35.461 -23.198 -16.866  0.00  0.00    -0.020 C 
ATOM     20  C   UNL     1      34.457 -16.591 -20.601  0.00  0.00    +0.196 C 
ATOM     21  C   UNL     1      32.824 -22.872 -15.849  0.00  0.00    +0.034 C 
ATOM     22  C   UNL     1      35.295 -23.301 -15.544  0.00  0.00    +0.038 C 
ATOM     23  C   UNL     1      34.407 -15.369 -19.760  0.00  0.00    +0.094 C 
ATOM     24  C   UNL     1      33.956 -23.157 -14.944  0.00  0.00    +0.195 C 
ENDROOT
BRANCH  12  25
ATOM     25  O   UNL     1      36.191 -22.634 -20.288  0.00  0.00    -0.384 OA
ATOM     26  H   UNL     1      37.135 -22.842 -20.366  0.00  0.00    +0.210 HD
ENDBRANCH  12  25
BRANCH   7  28
ATOM     27  O   UNL     1      37.132 -18.230 -22.790  0.00  0.00    -0.290 OA
ATOM     28  C   UNL     1      35.905 -18.176 -22.866  0.00  0.00    +0.218 C 
BRANCH  28  29
ATOM     29  C   UNL     1      35.186 -17.873 -24.164  0.00  0.00    +0.274 C 
BRANCH  29  30
ATOM     30  O   UNL     1      35.238 -16.492 -24.453  0.00  0.00    -0.440 OA
BRANCH  30  32
ATOM     31  O   UNL     1      33.711 -16.240 -26.168  0.00  0.00    -0.250 OA
ATOM     32  C   UNL     1      34.127 -15.957 -25.052  0.00  0.00    +0.318 C 
ATOM     33  C   UNL     1      33.475 -14.960 -24.142  0.00  0.00    +0.121 C 
ENDBRANCH  30  32
ENDBRANCH  29  30
ENDBRANCH  28  29
ENDBRANCH   7  28
TORSDOF 5
ENDMDL
MODEL 3
REMARK VINA RESULT:      -3.9      7.261     10.770
REMARK  Name = 189821
REMARK  5 active torsions:
REMARK  status: ('A' for Active; 'I' for Inactive)
REMARK    1  A    between atoms: C_7  and  C_28
REMARK    2  A    between atoms: C_12  and  O_25
REMARK    3  A    between atoms: C_28  and  C_29
REMARK    4  A    between atoms: C_29  and  O_30
REMARK    5  A    between atoms: O_30  and  C_32
REMARK                            x       y       z     vdW  Elec       q    Type
REMARK                         _______ _______ _______ _____ _____    ______ ____
ROOT
ATOM      1  O   UNL     1      36.431 -23.929 -16.172  0.00  0.00    -0.465 OA
ATOM      2  O   UNL     1      26.854 -21.661 -17.572  0.00  0.00    -0.287 OA
ATOM      3  N   UNL     1      35.639 -22.299 -14.772  0.00  0.00    -0.235 NA
ATOM      4  C   UNL     1      33.853 -23.822 -13.836  0.00  0.00    +0.031 C 
ATOM      5  C   UNL     1      33.363 -24.204 -15.252  0.00  0.00    +0.006 C 
ATOM      6  C   UNL     1      31.876 -24.584 -15.303  0.00  0.00    +0.003 C 
ATOM      7  C   UNL     1      35.361 -23.590 -14.116  0.00  0.00    +0.178 C 
ATOM      8  C   UNL     1      31.027 -23.355 -14.820  0.00  0.00    +0.034 C 
ATOM      9  C   UNL     1      34.409 -25.214 -15.727  0.00  0.00    +0.046 C 
ATOM     10  C   UNL     1      33.047 -22.593 -13.376  0.00  0.00    +0.032 C 
ATOM     11  C   UNL     1      35.733 -24.654 -15.164  0.00  0.00    +0.194 C 
ATOM     12  C   UNL     1      31.519 -22.810 -13.440  0.00  0.00    +0.111 C 
ATOM     13  C   UNL     1      29.474 -23.616 -14.948  0.00  0.00    +0.036 C 
ATOM     14  C   UNL     1      31.479 -25.009 -16.728  0.00  0.00    +0.004 C 
ATOM     15  C   UNL     1      33.706 -24.981 -12.808  0.00  0.00    +0.002 C 
ATOM     16  C   UNL     1      29.983 -25.269 -16.859  0.00  0.00    +0.022 C 
ATOM     17  C   UNL     1      29.204 -24.070 -16.387  0.00  0.00    -0.038 C 
ATOM     18  C   UNL     1      28.938 -24.707 -13.993  0.00  0.00    +0.009 C 
ATOM     19  C   UNL     1      28.703 -22.347 -14.618  0.00  0.00    -0.020 C 
ATOM     20  C   UNL     1      36.252 -22.627 -15.862  0.00  0.00    +0.196 C 
ATOM     21  C   UNL     1      28.366 -23.438 -17.224  0.00  0.00    +0.034 C 
ATOM     22  C   UNL     1      27.868 -21.712 -15.447  0.00  0.00    +0.038 C 
ATOM     23  C   UNL     1      36.783 -21.670 -16.865  0.00  0.00    +0.094 C 
ATOM     24  C   UNL     1      27.631 -22.225 -16.808  0.00  0.00    +0.195 C 
ENDROOT
BRANCH  12  25
ATOM     25  O   UNL     1      31.114 -23.661 -12.377  0.00  0.00    -0.384 OA
ATOM     26  H   UNL     1      30.168 -23.534 -12.204  0.00  0.00    +0.210 HD
ENDBRANCH  12  25
BRANCH   7  28
ATOM     27  O   UNL     1      36.126 -22.775 -12.009  0.00  0.00    -0.290 OA
ATOM     28  C   UNL     1      36.245 -23.613 -12.901  0.00  0.00    +0.218 C 
BRANCH  28  29
ATOM     29  C   UNL     1      37.278 -24.718 -12.845  0.00  0.00    +0.274 C 
BRANCH  29  30
ATOM     30  O   UNL     1      38.565 -24.212 -13.132  0.00  0.00    -0.440 OA
BRANCH  30  32
ATOM     31  O   UNL     1      40.585 -24.846 -14.058  0.00  0.00    -0.250 OA
ATOM     32  C   UNL     1      39.395 -25.040 -13.845  0.00  0.00    +0.318 C 
ATOM     33  C   UNL     1      38.638 -26.236 -14.337  0.00  0.00    +0.121 C 
ENDBRANCH  30  32
ENDBRANCH  29  30
ENDBRANCH  28  29
ENDBRANCH   7  28
TORSDOF 5
ENDMDL
MODEL 4
REMARK VINA RESULT:      -3.8      7.943      9.749
REMARK  Name = 189821
REMARK  5 active torsions:
REMARK  status: ('A' for Active; 'I' for Inactive)
REMARK    1  A    between atoms: C_7  and  C_28
REMARK    2  A    between atoms: C_12  and  O_25
REMARK    3  A    between atoms: C_28  and  C_29
REMARK    4  A    between atoms: C_29  and  O_30
REMARK    5  A    between atoms: O_30  and  C_32
REMARK                            x       y       z     vdW  Elec       q    Type
REMARK                         _______ _______ _______ _____ _____    ______ ____
ROOT
ATOM      1  O   UNL     1      30.535 -24.072 -16.988  0.00  0.00    -0.465 OA
ATOM      2  O   UNL     1      39.815 -26.786 -14.680  0.00  0.00    -0.287 OA
ATOM      3  N   UNL     1      30.713 -25.216 -15.014  0.00  0.00    -0.235 NA
ATOM      4  C   UNL     1      32.301 -23.507 -14.044  0.00  0.00    +0.031 C 
ATOM      5  C   UNL     1      33.217 -23.575 -15.287  0.00  0.00    +0.006 C 
ATOM      6  C   UNL     1      34.687 -23.248 -14.984  0.00  0.00    +0.003 C 
ATOM      7  C   UNL     1      30.923 -23.792 -14.696  0.00  0.00    +0.178 C 
ATOM      8  C   UNL     1      35.227 -24.287 -13.938  0.00  0.00    +0.034 C 
ATOM      9  C   UNL     1      32.465 -22.740 -16.325  0.00  0.00    +0.046 C 
ATOM     10  C   UNL     1      32.806 -24.553 -13.031  0.00  0.00    +0.032 C 
ATOM     11  C   UNL     1      30.984 -23.087 -16.063  0.00  0.00    +0.194 C 
ATOM     12  C   UNL     1      34.303 -24.385 -12.681  0.00  0.00    +0.111 C 
ATOM     13  C   UNL     1      36.769 -24.097 -13.651  0.00  0.00    +0.036 C 
ATOM     14  C   UNL     1      35.521 -23.277 -16.277  0.00  0.00    +0.004 C 
ATOM     15  C   UNL     1      32.266 -22.095 -13.391  0.00  0.00    +0.002 C 
ATOM     16  C   UNL     1      37.009 -23.088 -16.010  0.00  0.00    +0.022 C 
ATOM     17  C   UNL     1      37.489 -24.101 -15.004  0.00  0.00    -0.038 C 
ATOM     18  C   UNL     1      37.117 -22.778 -12.925  0.00  0.00    +0.009 C 
ATOM     19  C   UNL     1      37.274 -25.219 -12.756  0.00  0.00    -0.020 C 
ATOM     20  C   UNL     1      30.480 -25.223 -16.285  0.00  0.00    +0.196 C 
ATOM     21  C   UNL     1      38.462 -24.967 -15.329  0.00  0.00    +0.034 C 
ATOM     22  C   UNL     1      38.241 -26.085 -13.074  0.00  0.00    +0.038 C 
ATOM     23  C   UNL     1      30.164 -26.430 -17.089  0.00  0.00    +0.094 C 
ATOM     24  C   UNL     1      38.914 -26.009 -14.383  0.00  0.00    +0.195 C 
ENDROOT
BRANCH  12  25
ATOM     25  O   UNL     1      34.469 -23.260 -11.830  0.00  0.00    -0.384 OA
ATOM     26  H   UNL     1      33.937 -23.380 -11.028  0.00  0.00    +0.210 HD
ENDBRANCH  12  25
BRANCH   7  28
ATOM     27  O   UNL     1      29.588 -23.804 -12.719  0.00  0.00    -0.290 OA
ATOM     28  C   UNL     1      29.734 -23.394 -13.869  0.00  0.00    +0.218 C 
BRANCH  28  29
ATOM     29  C   UNL     1      28.737 -22.466 -14.533  0.00  0.00    +0.274 C 
BRANCH  29  30
ATOM     30  O   UNL     1      27.790 -23.203 -15.278  0.00  0.00    -0.440 OA
BRANCH  30  32
ATOM     31  O   UNL     1      25.836 -22.029 -15.653  0.00  0.00    -0.250 OA
ATOM     32  C   UNL     1      26.912 -22.469 -16.034  0.00  0.00    +0.318 C 
ATOM     33  C   UNL     1      27.456 -22.273 -17.417  0.00  0.00    +0.121 C 
ENDBRANCH  30  32
ENDBRANCH  29  30
ENDBRANCH  28  29
ENDBRANCH   7  28
TORSDOF 5
ENDMDL
MODEL 5
REMARK VINA RESULT:      -3.6      7.789     11.098
REMARK  Name = 189821
REMARK  5 active torsions:
REMARK  status: ('A' for Active; 'I' for Inactive)
REMARK    1  A    between atoms: C_7  and  C_28
REMARK    2  A    between atoms: C_12  and  O_25
REMARK    3  A    between atoms: C_28  and  C_29
REMARK    4  A    between atoms: C_29  and  O_30
REMARK    5  A    between atoms: O_30  and  C_32
REMARK                            x       y       z     vdW  Elec       q    Type
REMARK                         _______ _______ _______ _____ _____    ______ ____
ROOT
ATOM      1  O   UNL     1      37.001 -27.062 -13.911  0.00  0.00    -0.465 OA
ATOM      2  O   UNL     1      27.843 -24.727 -16.991  0.00  0.00    -0.287 OA
ATOM      3  N   UNL     1      36.948 -25.749 -15.786  0.00  0.00    -0.235 NA
ATOM      4  C   UNL     1      35.668 -23.922 -14.600  0.00  0.00    +0.031 C 
ATOM      5  C   UNL     1      34.607 -24.924 -14.090  0.00  0.00    +0.006 C 
ATOM      6  C   UNL     1      33.225 -24.292 -13.869  0.00  0.00    +0.003 C 
ATOM      7  C   UNL     1      36.923 -24.835 -14.629  0.00  0.00    +0.178 C 
ATOM      8  C   UNL     1      32.714 -23.711 -15.235  0.00  0.00    +0.034 C 
ATOM      9  C   UNL     1      35.308 -25.616 -12.920  0.00  0.00    +0.046 C 
ATOM     10  C   UNL     1      35.187 -23.378 -15.959  0.00  0.00    +0.032 C 
ATOM     11  C   UNL     1      36.767 -25.752 -13.404  0.00  0.00    +0.194 C 
ATOM     12  C   UNL     1      33.769 -22.768 -15.900  0.00  0.00    +0.111 C 
ATOM     13  C   UNL     1      31.245 -23.139 -15.127  0.00  0.00    +0.036 C 
ATOM     14  C   UNL     1      32.242 -25.334 -13.306  0.00  0.00    +0.004 C 
ATOM     15  C   UNL     1      35.924 -22.750 -13.608  0.00  0.00    +0.002 C 
ATOM     16  C   UNL     1      30.823 -24.790 -13.193  0.00  0.00    +0.022 C 
ATOM     17  C   UNL     1      30.370 -24.242 -14.521  0.00  0.00    -0.038 C 
ATOM     18  C   UNL     1      31.121 -21.883 -14.236  0.00  0.00    +0.009 C 
ATOM     19  C   UNL     1      30.742 -22.734 -16.504  0.00  0.00    -0.020 C 
ATOM     20  C   UNL     1      37.025 -26.925 -15.254  0.00  0.00    +0.196 C 
ATOM     21  C   UNL     1      29.282 -24.748 -15.124  0.00  0.00    +0.034 C 
ATOM     22  C   UNL     1      29.661 -23.235 -17.111  0.00  0.00    +0.038 C 
ATOM     23  C   UNL     1      37.119 -28.200 -16.009  0.00  0.00    +0.094 C 
ATOM     24  C   UNL     1      28.846 -24.272 -16.453  0.00  0.00    +0.195 C 
ENDROOT
BRANCH  12  25
ATOM     25  O   UNL     1      33.820 -21.508 -15.245  0.00  0.00    -0.384 OA
ATOM     26  H   UNL     1      34.009 -20.814 -15.895  0.00  0.00    +0.210 HD
ENDBRANCH  12  25
BRANCH   7  28
ATOM     27  O   UNL     1      38.478 -23.272 -15.540  0.00  0.00    -0.290 OA
ATOM     28  C   UNL     1      38.237 -24.109 -14.672  0.00  0.00    +0.218 C 
BRANCH  28  29
ATOM     29  C   UNL     1      39.235 -24.467 -13.591  0.00  0.00    +0.274 C 
BRANCH  29  30
ATOM     30  O   UNL     1      40.516 -24.682 -14.147  0.00  0.00    -0.440 OA
BRANCH  30  32
ATOM     31  O   UNL     1      40.596 -26.049 -16.008  0.00  0.00    -0.250 OA
ATOM     32  C   UNL     1      40.699 -25.874 -14.801  0.00  0.00    +0.318 C 
ATOM     33  C   UNL     1      41.047 -26.954 -13.823  0.00  0.00    +0.121 C 
ENDBRANCH  30  32
ENDBRANCH  29  30
ENDBRANCH  28  29
ENDBRANCH   7  28
TORSDOF 5
ENDMDL
MODEL 6
REMARK VINA RESULT:      -3.5      5.694      9.339
REMARK  Name = 189821
REMARK  5 active torsions:
REMARK  status: ('A' for Active; 'I' for Inactive)
REMARK    1  A    between atoms: C_7  and  C_28
REMARK    2  A    between atoms: C_12  and  O_25
REMARK    3  A    between atoms: C_28  and  C_29
REMARK    4  A    between atoms: C_29  and  O_30
REMARK    5  A    between atoms: O_30  and  C_32
REMARK                            x       y       z     vdW  Elec       q    Type
REMARK                         _______ _______ _______ _____ _____    ______ ____
ROOT
ATOM      1  O   UNL     1      37.499 -24.768 -13.264  0.00  0.00    -0.465 OA
ATOM      2  O   UNL     1      27.832 -26.613 -14.665  0.00  0.00    -0.287 OA
ATOM      3  N   UNL     1      36.922 -25.138 -15.449  0.00  0.00    -0.235 NA
ATOM      4  C   UNL     1      35.279 -23.219 -15.451  0.00  0.00    +0.031 C 
ATOM      5  C   UNL     1      34.591 -23.736 -14.168  0.00  0.00    +0.006 C 
ATOM      6  C   UNL     1      33.110 -23.344 -14.066  0.00  0.00    +0.003 C 
ATOM      7  C   UNL     1      36.734 -23.697 -15.201  0.00  0.00    +0.178 C 
ATOM      8  C   UNL     1      32.344 -23.951 -15.295  0.00  0.00    +0.034 C 
ATOM      9  C   UNL     1      35.554 -23.314 -13.056  0.00  0.00    +0.046 C 
ATOM     10  C   UNL     1      34.553 -23.843 -16.658  0.00  0.00    +0.032 C 
ATOM     11  C   UNL     1      36.947 -23.525 -13.687  0.00  0.00    +0.194 C 
ATOM     12  C   UNL     1      33.029 -23.583 -16.650  0.00  0.00    +0.111 C 
ATOM     13  C   UNL     1      30.787 -23.692 -15.214  0.00  0.00    +0.036 C 
ATOM     14  C   UNL     1      32.512 -23.841 -12.738  0.00  0.00    +0.004 C 
ATOM     15  C   UNL     1      35.273 -21.666 -15.560  0.00  0.00    +0.002 C 
ATOM     16  C   UNL     1      31.012 -23.591 -12.648  0.00  0.00    +0.022 C 
ATOM     17  C   UNL     1      30.313 -24.187 -13.842  0.00  0.00    -0.038 C 
ATOM     18  C   UNL     1      30.387 -22.206 -15.353  0.00  0.00    +0.009 C 
ATOM     19  C   UNL     1      30.077 -24.430 -16.339  0.00  0.00    -0.020 C 
ATOM     20  C   UNL     1      37.372 -25.593 -14.325  0.00  0.00    +0.196 C 
ATOM     21  C   UNL     1      29.368 -25.125 -13.673  0.00  0.00    +0.034 C 
ATOM     22  C   UNL     1      29.137 -25.366 -16.177  0.00  0.00    +0.038 C 
ATOM     23  C   UNL     1      37.760 -27.003 -14.069  0.00  0.00    +0.094 C 
ATOM     24  C   UNL     1      28.706 -25.769 -14.826  0.00  0.00    +0.195 C 
ENDROOT
BRANCH  12  25
ATOM     25  O   UNL     1      32.776 -22.231 -17.006  0.00  0.00    -0.384 OA
ATOM     26  H   UNL     1      33.543 -21.872 -17.479  0.00  0.00    +0.210 HD
ENDBRANCH  12  25
BRANCH   7  28
ATOM     27  O   UNL     1      38.948 -23.400 -16.037  0.00  0.00    -0.290 OA
ATOM     28  C   UNL     1      37.780 -23.015 -16.035  0.00  0.00    +0.218 C 
BRANCH  28  29
ATOM     29  C   UNL     1      37.313 -21.836 -16.863  0.00  0.00    +0.274 C 
BRANCH  29  30
ATOM     30  O   UNL     1      37.126 -22.216 -18.210  0.00  0.00    -0.440 OA
BRANCH  30  32
ATOM     31  O   UNL     1      36.816 -20.172 -19.243  0.00  0.00    -0.250 OA
ATOM     32  C   UNL     1      36.459 -21.319 -19.005  0.00  0.00    +0.318 C 
ATOM     33  C   UNL     1      35.210 -21.940 -19.554  0.00  0.00    +0.121 C 
ENDBRANCH  30  32
ENDBRANCH  29  30
ENDBRANCH  28  29
ENDBRANCH   7  28
TORSDOF 5
ENDMDL
MODEL 7
REMARK VINA RESULT:      -3.5      5.101      9.208
REMARK  Name = 189821
REMARK  5 active torsions:
REMARK  status: ('A' for Active; 'I' for Inactive)
REMARK    1  A    between atoms: C_7  and  C_28
REMARK    2  A    between atoms: C_12  and  O_25
REMARK    3  A    between atoms: C_28  and  C_29
REMARK    4  A    between atoms: C_29  and  O_30
REMARK    5  A    between atoms: O_30  and  C_32
REMARK                            x       y       z     vdW  Elec       q    Type
REMARK                         _______ _______ _______ _____ _____    ______ ____
ROOT
ATOM      1  O   UNL     1      31.568  -6.927 -21.305  0.00  0.00    -0.465 OA
ATOM      2  O   UNL     1      34.761 -16.264 -20.102  0.00  0.00    -0.287 OA
ATOM      3  N   UNL     1      33.666  -7.315 -22.135  0.00  0.00    -0.235 NA
ATOM      4  C   UNL     1      32.832  -9.122 -23.691  0.00  0.00    +0.031 C 
ATOM      5  C   UNL     1      32.098  -9.848 -22.541  0.00  0.00    +0.006 C 
ATOM      6  C   UNL     1      31.964 -11.362 -22.758  0.00  0.00    +0.003 C 
ATOM      7  C   UNL     1      32.717  -7.651 -23.213  0.00  0.00    +0.178 C 
ATOM      8  C   UNL     1      33.402 -11.981 -22.871  0.00  0.00    +0.034 C 
ATOM      9  C   UNL     1      30.835  -9.007 -22.343  0.00  0.00    +0.046 C 
ATOM     10  C   UNL     1      34.257  -9.702 -23.779  0.00  0.00    +0.032 C 
ATOM     11  C   UNL     1      31.328  -7.560 -22.558  0.00  0.00    +0.194 C 
ATOM     12  C   UNL     1      34.277 -11.240 -23.933  0.00  0.00    +0.111 C 
ATOM     13  C   UNL     1      33.365 -13.557 -22.983  0.00  0.00    +0.036 C 
ATOM     14  C   UNL     1      31.172 -12.002 -21.605  0.00  0.00    +0.004 C 
ATOM     15  C   UNL     1      32.106  -9.262 -25.061  0.00  0.00    +0.002 C 
ATOM     16  C   UNL     1      31.125 -13.522 -21.707  0.00  0.00    +0.022 C 
ATOM     17  C   UNL     1      32.521 -14.078 -21.813  0.00  0.00    -0.038 C 
ATOM     18  C   UNL     1      32.741 -14.081 -24.296  0.00  0.00    +0.009 C 
ATOM     19  C   UNL     1      34.779 -14.116 -22.931  0.00  0.00    -0.020 C 
ATOM     20  C   UNL     1      32.911  -6.904 -21.169  0.00  0.00    +0.196 C 
ATOM     21  C   UNL     1      32.975 -14.943 -20.893  0.00  0.00    +0.034 C 
ATOM     22  C   UNL     1      35.237 -14.976 -22.016  0.00  0.00    +0.038 C 
ATOM     23  C   UNL     1      33.396  -6.407 -19.857  0.00  0.00    +0.094 C 
ATOM     24  C   UNL     1      34.358 -15.461 -20.937  0.00  0.00    +0.195 C 
ENDROOT
BRANCH  12  25
ATOM     25  O   UNL     1      33.891 -11.591 -25.254  0.00  0.00    -0.384 OA
ATOM     26  H   UNL     1      33.943 -12.554 -25.361  0.00  0.00    +0.210 HD
ENDBRANCH  12  25
BRANCH   7  28
ATOM     27  O   UNL     1      34.045  -6.485 -24.816  0.00  0.00    -0.290 OA
ATOM     28  C   UNL     1      32.947  -6.616 -24.276  0.00  0.00    +0.218 C 
BRANCH  28  29
ATOM     29  C   UNL     1      31.757  -5.753 -24.640  0.00  0.00    +0.274 C 
BRANCH  29  30
ATOM     30  O   UNL     1      32.051  -4.387 -24.436  0.00  0.00    -0.440 OA
BRANCH  30  32
ATOM     31  O   UNL     1      30.350  -4.223 -22.881  0.00  0.00    -0.250 OA
ATOM     32  C   UNL     1      31.253  -3.723 -23.539  0.00  0.00    +0.318 C 
ATOM     33  C   UNL     1      31.640  -2.277 -23.470  0.00  0.00    +0.121 C 
ENDBRANCH  30  32
ENDBRANCH  29  30
ENDBRANCH  28  29
ENDBRANCH   7  28
TORSDOF 5
ENDMDL
MODEL 8
REMARK VINA RESULT:      -3.0      1.823      8.674
REMARK  Name = 189821
REMARK  5 active torsions:
REMARK  status: ('A' for Active; 'I' for Inactive)
REMARK    1  A    between atoms: C_7  and  C_28
REMARK    2  A    between atoms: C_12  and  O_25
REMARK    3  A    between atoms: C_28  and  C_29
REMARK    4  A    between atoms: C_29  and  O_30
REMARK    5  A    between atoms: O_30  and  C_32
REMARK                            x       y       z     vdW  Elec       q    Type
REMARK                         _______ _______ _______ _____ _____    ______ ____
ROOT
ATOM      1  O   UNL     1      36.331 -19.386 -23.338  0.00  0.00    -0.465 OA
ATOM      2  O   UNL     1      35.063  -9.715 -25.254  0.00  0.00    -0.287 OA
ATOM      3  N   UNL     1      36.286 -18.059 -21.473  0.00  0.00    -0.235 NA
ATOM      4  C   UNL     1      33.975 -17.194 -22.015  0.00  0.00    +0.031 C 
ATOM      5  C   UNL     1      34.394 -16.823 -23.456  0.00  0.00    +0.006 C 
ATOM      6  C   UNL     1      33.591 -15.654 -24.046  0.00  0.00    +0.003 C 
ATOM      7  C   UNL     1      34.887 -18.423 -21.765  0.00  0.00    +0.178 C 
ATOM      8  C   UNL     1      33.813 -14.388 -23.145  0.00  0.00    +0.034 C 
ATOM      9  C   UNL     1      34.394 -18.170 -24.180  0.00  0.00    +0.046 C 
ATOM     10  C   UNL     1      34.227 -15.964 -21.121  0.00  0.00    +0.032 C 
ATOM     11  C   UNL     1      34.944 -19.149 -23.121  0.00  0.00    +0.194 C 
ATOM     12  C   UNL     1      33.528 -14.686 -21.637  0.00  0.00    +0.111 C 
ATOM     13  C   UNL     1      33.113 -13.103 -23.741  0.00  0.00    +0.036 C 
ATOM     14  C   UNL     1      34.022 -15.386 -25.498  0.00  0.00    +0.004 C 
ATOM     15  C   UNL     1      32.489 -17.642 -21.910  0.00  0.00    +0.002 C 
ATOM     16  C   UNL     1      33.348 -14.151 -26.084  0.00  0.00    +0.022 C 
ATOM     17  C   UNL     1      33.582 -12.960 -25.193  0.00  0.00    -0.038 C 
ATOM     18  C   UNL     1      31.569 -13.168 -23.740  0.00  0.00    +0.009 C 
ATOM     19  C   UNL     1      33.486 -11.878 -22.920  0.00  0.00    -0.020 C 
ATOM     20  C   UNL     1      36.968 -18.676 -22.383  0.00  0.00    +0.196 C 
ATOM     21  C   UNL     1      34.209 -11.873 -25.671  0.00  0.00    +0.034 C 
ATOM     22  C   UNL     1      34.111 -10.794 -23.389  0.00  0.00    +0.038 C 
ATOM     23  C   UNL     1      38.447 -18.660 -22.499  0.00  0.00    +0.094 C 
ATOM     24  C   UNL     1      34.505 -10.711 -24.807  0.00  0.00    +0.195 C 
ENDROOT
BRANCH  12  25
ATOM     25  O   UNL     1      32.133 -14.771 -21.383  0.00  0.00    -0.384 OA
ATOM     26  H   UNL     1      31.915 -15.664 -21.074  0.00  0.00    +0.210 HD
ENDBRANCH  12  25
BRANCH   7  28
ATOM     27  O   UNL     1      33.299 -19.339 -20.240  0.00  0.00    -0.290 OA
ATOM     28  C   UNL     1      34.465 -19.309 -20.628  0.00  0.00    +0.218 C 
BRANCH  28  29
ATOM     29  C   UNL     1      35.553 -20.152 -19.997  0.00  0.00    +0.274 C 
BRANCH  29  30
ATOM     30  O   UNL     1      35.220 -21.523 -20.056  0.00  0.00    -0.440 OA
BRANCH  30  32
ATOM     31  O   UNL     1      35.763 -22.408 -17.993  0.00  0.00    -0.250 OA
ATOM     32  C   UNL     1      34.943 -22.130 -18.858  0.00  0.00    +0.318 C 
ATOM     33  C   UNL     1      33.476 -22.416 -18.747  0.00  0.00    +0.121 C 
ENDBRANCH  30  32
ENDBRANCH  29  30
ENDBRANCH  28  29
ENDBRANCH   7  28
TORSDOF 5
ENDMDL
MODEL 9
REMARK VINA RESULT:      -2.8      6.376      9.139
REMARK  Name = 189821
REMARK  5 active torsions:
REMARK  status: ('A' for Active; 'I' for Inactive)
REMARK    1  A    between atoms: C_7  and  C_28
REMARK    2  A    between atoms: C_12  and  O_25
REMARK    3  A    between atoms: C_28  and  C_29
REMARK    4  A    between atoms: C_29  and  O_30
REMARK    5  A    between atoms: O_30  and  C_32
REMARK                            x       y       z     vdW  Elec       q    Type
REMARK                         _______ _______ _______ _____ _____    ______ ____
ROOT
ATOM      1  O   UNL     1      33.931 -22.953 -19.421  0.00  0.00    -0.465 OA
ATOM      2  O   UNL     1      41.354 -26.976 -14.175  0.00  0.00    -0.287 OA
ATOM      3  N   UNL     1      33.288 -24.673 -18.054  0.00  0.00    -0.235 NA
ATOM      4  C   UNL     1      34.132 -23.489 -15.988  0.00  0.00    +0.031 C 
ATOM      5  C   UNL     1      35.512 -23.231 -16.635  0.00  0.00    +0.006 C 
ATOM      6  C   UNL     1      36.658 -23.134 -15.617  0.00  0.00    +0.003 C 
ATOM      7  C   UNL     1      33.222 -23.443 -17.243  0.00  0.00    +0.178 C 
ATOM      8  C   UNL     1      36.747 -24.489 -14.830  0.00  0.00    +0.034 C 
ATOM      9  C   UNL     1      35.246 -22.055 -17.576  0.00  0.00    +0.046 C 
ATOM     10  C   UNL     1      34.206 -24.837 -15.246  0.00  0.00    +0.032 C 
ATOM     11  C   UNL     1      33.838 -22.350 -18.134  0.00  0.00    +0.194 C 
ATOM     12  C   UNL     1      35.366 -24.907 -14.228  0.00  0.00    +0.111 C 
ATOM     13  C   UNL     1      37.974 -24.521 -13.836  0.00  0.00    +0.036 C 
ATOM     14  C   UNL     1      37.984 -22.816 -16.330  0.00  0.00    +0.004 C 
ATOM     15  C   UNL     1      33.698 -22.357 -15.012  0.00  0.00    +0.002 C 
ATOM     16  C   UNL     1      39.173 -22.840 -15.378  0.00  0.00    +0.022 C 
ATOM     17  C   UNL     1      39.225 -24.153 -14.642  0.00  0.00    -0.038 C 
ATOM     18  C   UNL     1      37.856 -23.530 -12.655  0.00  0.00    +0.009 C 
ATOM     19  C   UNL     1      38.107 -25.904 -13.217  0.00  0.00    -0.020 C 
ATOM     20  C   UNL     1      33.653 -24.259 -19.223  0.00  0.00    +0.196 C 
ATOM     21  C   UNL     1      40.303 -24.945 -14.749  0.00  0.00    +0.034 C 
ATOM     22  C   UNL     1      39.177 -26.698 -13.321  0.00  0.00    +0.038 C 
ATOM     23  C   UNL     1      33.828 -25.121 -20.418  0.00  0.00    +0.094 C 
ATOM     24  C   UNL     1      40.360 -26.264 -14.087  0.00  0.00    +0.195 C 
ENDROOT
BRANCH  12  25
ATOM     25  O   UNL     1      35.044 -24.125 -13.086  0.00  0.00    -0.384 OA
ATOM     26  H   UNL     1      34.101 -24.225 -12.882  0.00  0.00    +0.210 HD
ENDBRANCH  12  25
BRANCH   7  28
ATOM     27  O   UNL     1      31.163 -22.246 -17.382  0.00  0.00    -0.290 OA
ATOM     28  C   UNL     1      31.761 -23.235 -16.962  0.00  0.00    +0.218 C 
BRANCH  28  29
ATOM     29  C   UNL     1      31.078 -24.308 -16.140  0.00  0.00    +0.274 C 
BRANCH  29  30
ATOM     30  O   UNL     1      30.252 -23.728 -15.152  0.00  0.00    -0.440 OA
BRANCH  30  32
ATOM     31  O   UNL     1      28.472 -25.125 -14.685  0.00  0.00    -0.250 OA
ATOM     32  C   UNL     1      28.932 -24.101 -15.172  0.00  0.00    +0.318 C 
ATOM     33  C   UNL     1      28.112 -23.068 -15.885  0.00  0.00    +0.121 C 
ENDBRANCH  30  32
ENDBRANCH  29  30
ENDBRANCH  28  29
ENDBRANCH   7  28
TORSDOF 5
ENDMDL
