MODEL 1
REMARK VINA RESULT:      -9.7      0.000      0.000
REMARK  Name = 55191
REMARK  5 active torsions:
REMARK  status: ('A' for Active; 'I' for Inactive)
REMARK    1  A    between atoms: C_1  and  N_2
REMARK    2  A    between atoms: C_1  and  C_15
REMARK    3  A    between atoms: C_15  and  C_16
REMARK    4  A    between atoms: C_16  and  C_17
REMARK    5  A    between atoms: C_17  and  N_20
REMARK                            x       y       z     vdW  Elec       q    Type
REMARK                         _______ _______ _______ _____ _____    ______ ____
ROOT
ATOM      1  C   UNL     1      35.481 -19.809 -20.632  0.00  0.00    -0.077 C 
ENDROOT
BRANCH   1   2
ATOM      2  N   UNL     1      35.504 -18.697 -21.582  0.00  0.00    +0.389 N 
ATOM      3  N   UNL     1      34.383 -16.758 -23.355  0.00  0.00    -0.257 N 
ATOM      4  N   UNL     1      33.956 -14.488 -23.846  0.00  0.00    -0.203 NA
ATOM      5  N   UNL     1      33.560 -16.199 -25.497  0.00  0.00    -0.181 NA
ATOM      6  C   UNL     1      34.754 -17.552 -21.053  0.00  0.00    -0.055 C 
ATOM      7  C   UNL     1      34.941 -19.110 -22.873  0.00  0.00    -0.055 C 
ATOM      8  C   UNL     1      34.816 -16.361 -22.012  0.00  0.00    +0.079 C 
ATOM      9  C   UNL     1      35.012 -17.971 -23.893  0.00  0.00    +0.079 C 
ATOM     10  C   UNL     1      33.952 -15.784 -24.262  0.00  0.00    +0.090 C 
ATOM     11  C   UNL     1      33.536 -13.575 -24.746  0.00  0.00    +0.165 C 
ATOM     12  C   UNL     1      33.151 -15.233 -26.345  0.00  0.00    +0.108 C 
ATOM     13  C   UNL     1      33.117 -13.892 -26.022  0.00  0.00    +0.022 C 
ATOM     14  H   UNL     1      36.476 -18.417 -21.721  0.00  0.00    -0.080 HD
ENDBRANCH   1   2
BRANCH   1  15
ATOM     15  C   UNL     1      34.193 -20.616 -20.791  0.00  0.00    -0.021 C 
BRANCH  15  16
ATOM     16  C   UNL     1      33.718 -21.168 -19.444  0.00  0.00    +0.020 C 
BRANCH  16  17
ATOM     17  C   UNL     1      34.352 -22.514 -19.105  0.00  0.00    +0.101 C 
BRANCH  17  20
ATOM     18  O   UNL     1      32.431 -23.360 -17.254  0.00  0.00    -0.274 OA
ATOM     19  O   UNL     1      36.801 -21.894 -18.009  0.00  0.00    -0.274 OA
ATOM     20  N   UNL     1      34.621 -22.659 -17.679  0.00  0.00    -0.230 N 
ATOM     21  C   UNL     1      35.356 -23.527 -15.090  0.00  0.00    +0.017 C 
ATOM     22  C   UNL     1      33.886 -23.226 -15.383  0.00  0.00    +0.086 C 
ATOM     23  C   UNL     1      36.198 -22.453 -15.778  0.00  0.00    +0.086 C 
ATOM     24  C   UNL     1      33.571 -23.111 -16.858  0.00  0.00    +0.231 C 
ATOM     25  C   UNL     1      35.921 -22.323 -17.259  0.00  0.00    +0.231 C 
ATOM     26  C   UNL     1      35.592 -23.452 -13.570  0.00  0.00    +0.001 C 
ATOM     27  C   UNL     1      35.745 -24.937 -15.568  0.00  0.00    +0.001 C 
ENDBRANCH  17  20
ENDBRANCH  16  17
ENDBRANCH  15  16
ENDBRANCH   1  15
TORSDOF 5
ENDMDL
MODEL 2
REMARK VINA RESULT:      -9.7      5.001      8.348
REMARK  Name = 55191
REMARK  5 active torsions:
REMARK  status: ('A' for Active; 'I' for Inactive)
REMARK    1  A    between atoms: C_1  and  N_2
REMARK    2  A    between atoms: C_1  and  C_15
REMARK    3  A    between atoms: C_15  and  C_16
REMARK    4  A    between atoms: C_16  and  C_17
REMARK    5  A    between atoms: C_17  and  N_20
REMARK                            x       y       z     vdW  Elec       q    Type
REMARK                         _______ _______ _______ _____ _____    ______ ____
ROOT
ATOM      1  C   UNL     1      32.624 -13.073 -23.000  0.00  0.00    -0.077 C 
ENDROOT
BRANCH   1   2
ATOM      2  N   UNL     1      32.731 -11.635 -22.749  0.00  0.00    +0.389 N 
ATOM      3  N   UNL     1      32.108  -8.872 -23.112  0.00  0.00    -0.257 N 
ATOM      4  N   UNL     1      31.189  -6.883 -22.232  0.00  0.00    -0.203 NA
ATOM      5  N   UNL     1      32.434  -6.854 -24.295  0.00  0.00    -0.181 NA
ATOM      6  C   UNL     1      31.446 -11.096 -22.288  0.00  0.00    -0.055 C 
ATOM      7  C   UNL     1      33.162 -10.931 -23.963  0.00  0.00    -0.055 C 
ATOM      8  C   UNL     1      31.558  -9.603 -21.968  0.00  0.00    +0.079 C 
ATOM      9  C   UNL     1      33.333  -9.434 -23.697  0.00  0.00    +0.079 C 
ATOM     10  C   UNL     1      31.904  -7.491 -23.217  0.00  0.00    +0.090 C 
ATOM     11  C   UNL     1      31.012  -5.552 -22.364  0.00  0.00    +0.165 C 
ATOM     12  C   UNL     1      32.217  -5.524 -24.365  0.00  0.00    +0.108 C 
ATOM     13  C   UNL     1      31.508  -4.813 -23.419  0.00  0.00    +0.022 C 
ATOM     14  H   UNL     1      33.429 -11.491 -22.019  0.00  0.00    -0.080 HD
ENDBRANCH   1   2
BRANCH   1  15
ATOM     15  C   UNL     1      33.396 -13.450 -24.264  0.00  0.00    -0.021 C 
BRANCH  15  16
ATOM     16  C   UNL     1      33.492 -14.970 -24.419  0.00  0.00    +0.020 C 
BRANCH  16  17
ATOM     17  C   UNL     1      34.841 -15.522 -23.970  0.00  0.00    +0.101 C 
BRANCH  17  20
ATOM     18  O   UNL     1      34.802 -18.116 -25.020  0.00  0.00    -0.274 OA
ATOM     19  O   UNL     1      34.528 -15.389 -21.237  0.00  0.00    -0.274 OA
ATOM     20  N   UNL     1      34.707 -16.719 -23.147  0.00  0.00    -0.230 N 
ATOM     21  C   UNL     1      35.091 -18.980 -21.493  0.00  0.00    +0.017 C 
ATOM     22  C   UNL     1      34.557 -19.179 -22.912  0.00  0.00    +0.086 C 
ATOM     23  C   UNL     1      34.413 -17.741 -20.909  0.00  0.00    +0.086 C 
ATOM     24  C   UNL     1      34.720 -17.966 -23.799  0.00  0.00    +0.231 C 
ATOM     25  C   UNL     1      34.572 -16.504 -21.763  0.00  0.00    +0.231 C 
ATOM     26  C   UNL     1      34.720 -20.206 -20.638  0.00  0.00    +0.001 C 
ATOM     27  C   UNL     1      36.624 -18.836 -21.488  0.00  0.00    +0.001 C 
ENDBRANCH  17  20
ENDBRANCH  16  17
ENDBRANCH  15  16
ENDBRANCH   1  15
TORSDOF 5
ENDMDL
MODEL 3
REMARK VINA RESULT:      -9.6      2.814      9.334
REMARK  Name = 55191
REMARK  5 active torsions:
REMARK  status: ('A' for Active; 'I' for Inactive)
REMARK    1  A    between atoms: C_1  and  N_2
REMARK    2  A    between atoms: C_1  and  C_15
REMARK    3  A    between atoms: C_15  and  C_16
REMARK    4  A    between atoms: C_16  and  C_17
REMARK    5  A    between atoms: C_17  and  N_20
REMARK                            x       y       z     vdW  Elec       q    Type
REMARK                         _______ _______ _______ _____ _____    ______ ____
ROOT
ATOM      1  C   UNL     1      34.018 -19.796 -21.413  0.00  0.00    -0.077 C 
ENDROOT
BRANCH   1   2
ATOM      2  N   UNL     1      34.496 -20.867 -20.539  0.00  0.00    +0.389 N 
ATOM      3  N   UNL     1      35.281 -22.057 -18.064  0.00  0.00    -0.257 N 
ATOM      4  N   UNL     1      34.857 -23.648 -16.371  0.00  0.00    -0.203 NA
ATOM      5  N   UNL     1      36.945 -22.447 -16.435  0.00  0.00    -0.181 NA
ATOM      6  C   UNL     1      33.494 -21.180 -19.514  0.00  0.00    -0.055 C 
ATOM      7  C   UNL     1      35.761 -20.485 -19.900  0.00  0.00    -0.055 C 
ATOM      8  C   UNL     1      33.957 -22.338 -18.625  0.00  0.00    +0.079 C 
ATOM      9  C   UNL     1      36.300 -21.620 -19.027  0.00  0.00    +0.079 C 
ATOM     10  C   UNL     1      35.709 -22.739 -16.919  0.00  0.00    +0.090 C 
ATOM     11  C   UNL     1      35.301 -24.288 -15.269  0.00  0.00    +0.165 C 
ATOM     12  C   UNL     1      37.325 -23.123 -15.330  0.00  0.00    +0.108 C 
ATOM     13  C   UNL     1      36.538 -24.064 -14.698  0.00  0.00    +0.022 C 
ATOM     14  H   UNL     1      34.653 -21.698 -21.110  0.00  0.00    -0.080 HD
ENDBRANCH   1   2
BRANCH   1  15
ATOM     15  C   UNL     1      34.909 -19.685 -22.651  0.00  0.00    -0.021 C 
BRANCH  15  16
ATOM     16  C   UNL     1      34.476 -18.514 -23.538  0.00  0.00    +0.020 C 
BRANCH  16  17
ATOM     17  C   UNL     1      35.342 -17.275 -23.339  0.00  0.00    +0.101 C 
BRANCH  17  20
ATOM     18  O   UNL     1      33.629 -15.381 -24.485  0.00  0.00    -0.274 OA
ATOM     19  O   UNL     1      35.715 -16.985 -20.625  0.00  0.00    -0.274 OA
ATOM     20  N   UNL     1      34.663 -16.238 -22.570  0.00  0.00    -0.230 N 
ATOM     21  C   UNL     1      32.905 -14.694 -20.981  0.00  0.00    +0.017 C 
ATOM     22  C   UNL     1      33.146 -14.286 -22.435  0.00  0.00    +0.086 C 
ATOM     23  C   UNL     1      34.245 -15.132 -20.392  0.00  0.00    +0.086 C 
ATOM     24  C   UNL     1      33.813 -15.358 -23.266  0.00  0.00    +0.231 C 
ATOM     25  C   UNL     1      34.932 -16.217 -21.189  0.00  0.00    +0.231 C 
ATOM     26  C   UNL     1      32.383 -13.477 -20.196  0.00  0.00    +0.001 C 
ATOM     27  C   UNL     1      31.855 -15.816 -20.882  0.00  0.00    +0.001 C 
ENDBRANCH  17  20
ENDBRANCH  16  17
ENDBRANCH  15  16
ENDBRANCH   1  15
TORSDOF 5
ENDMDL
MODEL 4
REMARK VINA RESULT:      -9.5      2.917      9.886
REMARK  Name = 55191
REMARK  5 active torsions:
REMARK  status: ('A' for Active; 'I' for Inactive)
REMARK    1  A    between atoms: C_1  and  N_2
REMARK    2  A    between atoms: C_1  and  C_15
REMARK    3  A    between atoms: C_15  and  C_16
REMARK    4  A    between atoms: C_16  and  C_17
REMARK    5  A    between atoms: C_17  and  N_20
REMARK                            x       y       z     vdW  Elec       q    Type
REMARK                         _______ _______ _______ _____ _____    ______ ____
ROOT
ATOM      1  C   UNL     1      34.217 -19.232 -22.220  0.00  0.00    -0.077 C 
ENDROOT
BRANCH   1   2
ATOM      2  N   UNL     1      34.663 -20.293 -21.318  0.00  0.00    +0.389 N 
ATOM      3  N   UNL     1      35.430 -21.436 -18.815  0.00  0.00    -0.257 N 
ATOM      4  N   UNL     1      34.963 -22.956 -17.068  0.00  0.00    -0.203 NA
ATOM      5  N   UNL     1      37.096 -21.841 -17.191  0.00  0.00    -0.181 NA
ATOM      6  C   UNL     1      33.661 -20.535 -20.273  0.00  0.00    -0.055 C 
ATOM      7  C   UNL     1      35.949 -19.942 -20.704  0.00  0.00    -0.055 C 
ATOM      8  C   UNL     1      34.089 -21.682 -19.353  0.00  0.00    +0.079 C 
ATOM      9  C   UNL     1      36.454 -21.069 -19.801  0.00  0.00    +0.079 C 
ATOM     10  C   UNL     1      35.843 -22.099 -17.653  0.00  0.00    +0.090 C 
ATOM     11  C   UNL     1      35.395 -23.578 -15.952  0.00  0.00    +0.165 C 
ATOM     12  C   UNL     1      37.462 -22.496 -16.070  0.00  0.00    +0.108 C 
ATOM     13  C   UNL     1      36.646 -23.385 -15.401  0.00  0.00    +0.022 C 
ATOM     14  H   UNL     1      34.780 -21.147 -21.864  0.00  0.00    -0.080 HD
ENDBRANCH   1   2
BRANCH   1  15
ATOM     15  C   UNL     1      35.081 -19.211 -23.481  0.00  0.00    -0.021 C 
BRANCH  15  16
ATOM     16  C   UNL     1      34.498 -18.263 -24.533  0.00  0.00    +0.020 C 
BRANCH  16  17
ATOM     17  C   UNL     1      35.171 -16.894 -24.527  0.00  0.00    +0.101 C 
BRANCH  17  20
ATOM     18  O   UNL     1      34.981 -16.031 -21.871  0.00  0.00    -0.274 OA
ATOM     19  O   UNL     1      33.455 -15.625 -26.267  0.00  0.00    -0.274 OA
ATOM     20  N   UNL     1      34.271 -15.832 -24.090  0.00  0.00    -0.230 N 
ATOM     21  C   UNL     1      33.014 -13.388 -23.425  0.00  0.00    +0.017 C 
ATOM     22  C   UNL     1      33.321 -14.392 -22.314  0.00  0.00    +0.086 C 
ATOM     23  C   UNL     1      32.513 -14.173 -24.637  0.00  0.00    +0.086 C 
ATOM     24  C   UNL     1      34.285 -15.482 -22.728  0.00  0.00    +0.231 C 
ATOM     25  C   UNL     1      33.462 -15.260 -25.089  0.00  0.00    +0.231 C 
ATOM     26  C   UNL     1      31.902 -12.435 -22.949  0.00  0.00    +0.001 C 
ATOM     27  C   UNL     1      34.253 -12.545 -23.776  0.00  0.00    +0.001 C 
ENDBRANCH  17  20
ENDBRANCH  16  17
ENDBRANCH  15  16
ENDBRANCH   1  15
TORSDOF 5
ENDMDL
MODEL 5
REMARK VINA RESULT:      -9.5      2.792      4.894
REMARK  Name = 55191
REMARK  5 active torsions:
REMARK  status: ('A' for Active; 'I' for Inactive)
REMARK    1  A    between atoms: C_1  and  N_2
REMARK    2  A    between atoms: C_1  and  C_15
REMARK    3  A    between atoms: C_15  and  C_16
REMARK    4  A    between atoms: C_16  and  C_17
REMARK    5  A    between atoms: C_17  and  N_20
REMARK                            x       y       z     vdW  Elec       q    Type
REMARK                         _______ _______ _______ _____ _____    ______ ____
ROOT
ATOM      1  C   UNL     1      33.762 -23.420 -17.489  0.00  0.00    -0.077 C 
ENDROOT
BRANCH   1   2
ATOM      2  N   UNL     1      34.029 -22.639 -18.697  0.00  0.00    +0.389 N 
ATOM      3  N   UNL     1      34.627 -20.286 -20.200  0.00  0.00    -0.257 N 
ATOM      4  N   UNL     1      36.145 -19.102 -21.568  0.00  0.00    -0.203 NA
ATOM      5  N   UNL     1      33.885 -18.319 -21.277  0.00  0.00    -0.181 NA
ATOM      6  C   UNL     1      35.367 -22.038 -18.636  0.00  0.00    -0.055 C 
ATOM      7  C   UNL     1      33.017 -21.589 -18.866  0.00  0.00    -0.055 C 
ATOM      8  C   UNL     1      35.682 -21.263 -19.919  0.00  0.00    +0.079 C 
ATOM      9  C   UNL     1      33.253 -20.802 -20.156  0.00  0.00    +0.079 C 
ATOM     10  C   UNL     1      34.894 -19.200 -21.042  0.00  0.00    +0.090 C 
ATOM     11  C   UNL     1      36.368 -18.044 -22.376  0.00  0.00    +0.165 C 
ATOM     12  C   UNL     1      34.177 -17.284 -22.092  0.00  0.00    +0.108 C 
ATOM     13  C   UNL     1      35.413 -17.094 -22.676  0.00  0.00    +0.022 C 
ATOM     14  H   UNL     1      33.988 -23.269 -19.499  0.00  0.00    -0.080 HD
ENDBRANCH   1   2
BRANCH   1  15
ATOM     15  C   UNL     1      34.856 -23.179 -16.449  0.00  0.00    -0.021 C 
BRANCH  15  16
ATOM     16  C   UNL     1      34.283 -23.210 -15.029  0.00  0.00    +0.020 C 
BRANCH  16  17
ATOM     17  C   UNL     1      34.499 -24.554 -14.339  0.00  0.00    +0.101 C 
BRANCH  17  20
ATOM     18  O   UNL     1      35.772 -26.562 -15.816  0.00  0.00    -0.274 OA
ATOM     19  O   UNL     1      36.116 -23.279 -12.510  0.00  0.00    -0.274 OA
ATOM     20  N   UNL     1      35.912 -24.884 -14.193  0.00  0.00    -0.230 N 
ATOM     21  C   UNL     1      38.732 -25.040 -14.335  0.00  0.00    +0.017 C 
ATOM     22  C   UNL     1      37.897 -26.229 -14.811  0.00  0.00    +0.086 C 
ATOM     23  C   UNL     1      38.084 -24.494 -13.064  0.00  0.00    +0.086 C 
ATOM     24  C   UNL     1      36.433 -25.904 -15.010  0.00  0.00    +0.231 C 
ATOM     25  C   UNL     1      36.623 -24.141 -13.233  0.00  0.00    +0.231 C 
ATOM     26  C   UNL     1      40.156 -25.525 -14.005  0.00  0.00    +0.001 C 
ATOM     27  C   UNL     1      38.833 -23.957 -15.424  0.00  0.00    +0.001 C 
ENDBRANCH  17  20
ENDBRANCH  16  17
ENDBRANCH  15  16
ENDBRANCH   1  15
TORSDOF 5
ENDMDL
MODEL 6
REMARK VINA RESULT:      -9.4      2.755      9.601
REMARK  Name = 55191
REMARK  5 active torsions:
REMARK  status: ('A' for Active; 'I' for Inactive)
REMARK    1  A    between atoms: C_1  and  N_2
REMARK    2  A    between atoms: C_1  and  C_15
REMARK    3  A    between atoms: C_15  and  C_16
REMARK    4  A    between atoms: C_16  and  C_17
REMARK    5  A    between atoms: C_17  and  N_20
REMARK                            x       y       z     vdW  Elec       q    Type
REMARK                         _______ _______ _______ _____ _____    ______ ____
ROOT
ATOM      1  C   UNL     1      35.641 -20.432 -20.971  0.00  0.00    -0.077 C 
ENDROOT
BRANCH   1   2
ATOM      2  N   UNL     1      35.551 -20.801 -19.558  0.00  0.00    +0.389 N 
ATOM      3  N   UNL     1      35.885 -22.488 -17.278  0.00  0.00    -0.257 N 
ATOM      4  N   UNL     1      36.941 -22.882 -15.202  0.00  0.00    -0.203 NA
ATOM      5  N   UNL     1      35.093 -24.252 -15.921  0.00  0.00    -0.181 NA
ATOM      6  C   UNL     1      36.888 -21.045 -19.003  0.00  0.00    -0.055 C 
ATOM      7  C   UNL     1      34.715 -21.996 -19.390  0.00  0.00    -0.055 C 
ATOM      8  C   UNL     1      36.813 -21.377 -17.511  0.00  0.00    +0.079 C 
ATOM      9  C   UNL     1      34.566 -22.358 -17.911  0.00  0.00    +0.079 C 
ATOM     10  C   UNL     1      35.976 -23.232 -16.095  0.00  0.00    +0.090 C 
ATOM     11  C   UNL     1      37.000 -23.619 -14.074  0.00  0.00    +0.165 C 
ATOM     12  C   UNL     1      35.210 -24.948 -14.772  0.00  0.00    +0.108 C 
ATOM     13  C   UNL     1      36.152 -24.674 -13.802  0.00  0.00    +0.022 C 
ATOM     14  H   UNL     1      35.122 -20.025 -19.053  0.00  0.00    -0.080 HD
ENDBRANCH   1   2
BRANCH   1  15
ATOM     15  C   UNL     1      34.322 -19.825 -21.446  0.00  0.00    -0.021 C 
BRANCH  15  16
ATOM     16  C   UNL     1      34.476 -19.181 -22.827  0.00  0.00    +0.020 C 
BRANCH  16  17
ATOM     17  C   UNL     1      35.427 -17.988 -22.815  0.00  0.00    +0.101 C 
BRANCH  17  20
ATOM     18  O   UNL     1      33.897 -16.321 -24.462  0.00  0.00    -0.274 OA
ATOM     19  O   UNL     1      35.693 -17.101 -20.221  0.00  0.00    -0.274 OA
ATOM     20  N   UNL     1      34.782 -16.767 -22.344  0.00  0.00    -0.230 N 
ATOM     21  C   UNL     1      33.059 -14.807 -21.257  0.00  0.00    +0.017 C 
ATOM     22  C   UNL     1      33.393 -14.758 -22.748  0.00  0.00    +0.086 C 
ATOM     23  C   UNL     1      34.339 -15.167 -20.504  0.00  0.00    +0.086 C 
ATOM     24  C   UNL     1      34.026 -16.028 -23.272  0.00  0.00    +0.231 C 
ATOM     25  C   UNL     1      34.989 -16.443 -20.991  0.00  0.00    +0.231 C 
ATOM     26  C   UNL     1      32.583 -13.415 -20.801  0.00  0.00    +0.001 C 
ATOM     27  C   UNL     1      31.934 -15.817 -20.968  0.00  0.00    +0.001 C 
ENDBRANCH  17  20
ENDBRANCH  16  17
ENDBRANCH  15  16
ENDBRANCH   1  15
TORSDOF 5
ENDMDL
MODEL 7
REMARK VINA RESULT:      -9.4      4.921      8.197
REMARK  Name = 55191
REMARK  5 active torsions:
REMARK  status: ('A' for Active; 'I' for Inactive)
REMARK    1  A    between atoms: C_1  and  N_2
REMARK    2  A    between atoms: C_1  and  C_15
REMARK    3  A    between atoms: C_15  and  C_16
REMARK    4  A    between atoms: C_16  and  C_17
REMARK    5  A    between atoms: C_17  and  N_20
REMARK                            x       y       z     vdW  Elec       q    Type
REMARK                         _______ _______ _______ _____ _____    ______ ____
ROOT
ATOM      1  C   UNL     1      33.862 -12.829 -23.852  0.00  0.00    -0.077 C 
ENDROOT
BRANCH   1   2
ATOM      2  N   UNL     1      33.712 -11.449 -23.391  0.00  0.00    +0.389 N 
ATOM      3  N   UNL     1      32.629  -8.806 -23.382  0.00  0.00    -0.257 N 
ATOM      4  N   UNL     1      31.357  -7.155 -22.272  0.00  0.00    -0.203 NA
ATOM      5  N   UNL     1      32.631  -6.607 -24.243  0.00  0.00    -0.181 NA
ATOM      6  C   UNL     1      32.341 -11.208 -22.924  0.00  0.00    -0.055 C 
ATOM      7  C   UNL     1      34.046 -10.507 -24.466  0.00  0.00    -0.055 C 
ATOM      8  C   UNL     1      32.185  -9.784 -22.385  0.00  0.00    +0.079 C 
ATOM      9  C   UNL     1      33.947  -9.060 -23.978  0.00  0.00    +0.079 C 
ATOM     10  C   UNL     1      32.191  -7.479 -23.297  0.00  0.00    +0.090 C 
ATOM     11  C   UNL     1      30.955  -5.868 -22.219  0.00  0.00    +0.165 C 
ATOM     12  C   UNL     1      32.189  -5.337 -24.130  0.00  0.00    +0.108 C 
ATOM     13  C   UNL     1      31.342  -4.906 -23.129  0.00  0.00    +0.022 C 
ATOM     14  H   UNL     1      34.355 -11.302 -22.612  0.00  0.00    -0.080 HD
ENDBRANCH   1   2
BRANCH   1  15
ATOM     15  C   UNL     1      32.645 -13.659 -23.447  0.00  0.00    -0.021 C 
BRANCH  15  16
ATOM     16  C   UNL     1      33.068 -14.957 -22.753  0.00  0.00    +0.020 C 
BRANCH  16  17
ATOM     17  C   UNL     1      34.336 -15.557 -23.353  0.00  0.00    +0.101 C 
BRANCH  17  20
ATOM     18  O   UNL     1      35.046 -15.716 -20.650  0.00  0.00    -0.274 OA
ATOM     19  O   UNL     1      34.507 -17.940 -24.723  0.00  0.00    -0.274 OA
ATOM     20  N   UNL     1      34.728 -16.800 -22.698  0.00  0.00    -0.230 N 
ATOM     21  C   UNL     1      34.849 -19.285 -21.354  0.00  0.00    +0.017 C 
ATOM     22  C   UNL     1      35.467 -18.052 -20.694  0.00  0.00    +0.086 C 
ATOM     23  C   UNL     1      35.181 -19.232 -22.845  0.00  0.00    +0.086 C 
ATOM     24  C   UNL     1      35.045 -16.746 -21.328  0.00  0.00    +0.231 C 
ATOM     25  C   UNL     1      34.756 -17.945 -23.515  0.00  0.00    +0.231 C 
ATOM     26  C   UNL     1      35.476 -20.551 -20.744  0.00  0.00    +0.001 C 
ATOM     27  C   UNL     1      33.328 -19.341 -21.120  0.00  0.00    +0.001 C 
ENDBRANCH  17  20
ENDBRANCH  16  17
ENDBRANCH  15  16
ENDBRANCH   1  15
TORSDOF 5
ENDMDL
MODEL 8
REMARK VINA RESULT:      -9.4      6.542     12.461
REMARK  Name = 55191
REMARK  5 active torsions:
REMARK  status: ('A' for Active; 'I' for Inactive)
REMARK    1  A    between atoms: C_1  and  N_2
REMARK    2  A    between atoms: C_1  and  C_15
REMARK    3  A    between atoms: C_15  and  C_16
REMARK    4  A    between atoms: C_16  and  C_17
REMARK    5  A    between atoms: C_17  and  N_20
REMARK                            x       y       z     vdW  Elec       q    Type
REMARK                         _______ _______ _______ _____ _____    ______ ____
ROOT
ATOM      1  C   UNL     1      31.320 -11.841 -21.029  0.00  0.00    -0.077 C 
ENDROOT
BRANCH   1   2
ATOM      2  N   UNL     1      32.374 -12.814 -21.320  0.00  0.00    +0.389 N 
ATOM      3  N   UNL     1      33.444 -15.374 -21.995  0.00  0.00    -0.257 N 
ATOM      4  N   UNL     1      34.595 -16.728 -23.550  0.00  0.00    -0.203 NA
ATOM      5  N   UNL     1      34.151 -17.523 -21.319  0.00  0.00    -0.181 NA
ATOM      6  C   UNL     1      32.219 -13.349 -22.678  0.00  0.00    -0.055 C 
ATOM      7  C   UNL     1      32.346 -13.910 -20.344  0.00  0.00    -0.055 C 
ATOM      8  C   UNL     1      33.348 -14.327 -23.016  0.00  0.00    +0.079 C 
ATOM      9  C   UNL     1      33.480 -14.904 -20.604  0.00  0.00    +0.079 C 
ATOM     10  C   UNL     1      34.084 -16.581 -22.298  0.00  0.00    +0.090 C 
ATOM     11  C   UNL     1      35.206 -17.903 -23.807  0.00  0.00    +0.165 C 
ATOM     12  C   UNL     1      34.773 -18.675 -21.645  0.00  0.00    +0.108 C 
ATOM     13  C   UNL     1      35.326 -18.923 -22.885  0.00  0.00    +0.022 C 
ATOM     14  H   UNL     1      33.273 -12.337 -21.255  0.00  0.00    -0.080 HD
ENDBRANCH   1   2
BRANCH   1  15
ATOM     15  C   UNL     1      31.609 -11.125 -19.710  0.00  0.00    -0.021 C 
BRANCH  15  16
ATOM     16  C   UNL     1      31.533  -9.605 -19.880  0.00  0.00    +0.020 C 
BRANCH  16  17
ATOM     17  C   UNL     1      32.591  -9.068 -20.839  0.00  0.00    +0.101 C 
BRANCH  17  20
ATOM     18  O   UNL     1      32.490  -6.339 -20.223  0.00  0.00    -0.274 OA
ATOM     19  O   UNL     1      31.525  -9.726 -23.292  0.00  0.00    -0.274 OA
ATOM     20  N   UNL     1      32.057  -8.059 -21.748  0.00  0.00    -0.230 N 
ATOM     21  C   UNL     1      31.625  -6.114 -23.754  0.00  0.00    +0.017 C 
ATOM     22  C   UNL     1      31.499  -5.707 -22.285  0.00  0.00    +0.086 C 
ATOM     23  C   UNL     1      30.989  -7.494 -23.912  0.00  0.00    +0.086 C 
ATOM     24  C   UNL     1      32.081  -6.718 -21.323  0.00  0.00    +0.231 C 
ATOM     25  C   UNL     1      31.561  -8.534 -22.975  0.00  0.00    +0.231 C 
ATOM     26  C   UNL     1      30.854  -5.104 -24.624  0.00  0.00    +0.001 C 
ATOM     27  C   UNL     1      33.095  -6.117 -24.210  0.00  0.00    +0.001 C 
ENDBRANCH  17  20
ENDBRANCH  16  17
ENDBRANCH  15  16
ENDBRANCH   1  15
TORSDOF 5
ENDMDL
MODEL 9
REMARK VINA RESULT:      -9.3      2.239      3.641
REMARK  Name = 55191
REMARK  5 active torsions:
REMARK  status: ('A' for Active; 'I' for Inactive)
REMARK    1  A    between atoms: C_1  and  N_2
REMARK    2  A    between atoms: C_1  and  C_15
REMARK    3  A    between atoms: C_15  and  C_16
REMARK    4  A    between atoms: C_16  and  C_17
REMARK    5  A    between atoms: C_17  and  N_20
REMARK                            x       y       z     vdW  Elec       q    Type
REMARK                         _______ _______ _______ _____ _____    ______ ____
ROOT
ATOM      1  C   UNL     1      34.197 -22.951 -18.889  0.00  0.00    -0.077 C 
ENDROOT
BRANCH   1   2
ATOM      2  N   UNL     1      34.113 -21.873 -19.874  0.00  0.00    +0.389 N 
ATOM      3  N   UNL     1      34.244 -19.176 -20.805  0.00  0.00    -0.257 N 
ATOM      4  N   UNL     1      35.315 -17.563 -22.156  0.00  0.00    -0.203 NA
ATOM      5  N   UNL     1      33.208 -17.074 -21.094  0.00  0.00    -0.181 NA
ATOM      6  C   UNL     1      35.408 -21.194 -20.005  0.00  0.00    -0.055 C 
ATOM      7  C   UNL     1      33.078 -20.905 -19.492  0.00  0.00    -0.055 C 
ATOM      8  C   UNL     1      35.350 -20.099 -21.074  0.00  0.00    +0.079 C 
ATOM      9  C   UNL     1      32.942 -19.803 -20.545  0.00  0.00    +0.079 C 
ATOM     10  C   UNL     1      34.256 -17.896 -21.370  0.00  0.00    +0.090 C 
ATOM     11  C   UNL     1      35.294 -16.322 -22.685  0.00  0.00    +0.165 C 
ATOM     12  C   UNL     1      33.252 -15.848 -21.654  0.00  0.00    +0.108 C 
ATOM     13  C   UNL     1      34.279 -15.412 -22.467  0.00  0.00    +0.022 C 
ATOM     14  H   UNL     1      33.865 -22.284 -20.774  0.00  0.00    -0.080 HD
ENDBRANCH   1   2
BRANCH   1  15
ATOM     15  C   UNL     1      33.094 -22.800 -17.841  0.00  0.00    -0.021 C 
BRANCH  15  16
ATOM     16  C   UNL     1      33.408 -23.620 -16.587  0.00  0.00    +0.020 C 
BRANCH  16  17
ATOM     17  C   UNL     1      34.097 -22.795 -15.504  0.00  0.00    +0.101 C 
BRANCH  17  20
ATOM     18  O   UNL     1      33.910 -24.261 -13.126  0.00  0.00    -0.274 OA
ATOM     19  O   UNL     1      36.622 -22.712 -16.601  0.00  0.00    -0.274 OA
ATOM     20  N   UNL     1      35.226 -23.498 -14.903  0.00  0.00    -0.230 N 
ATOM     21  C   UNL     1      37.240 -25.332 -14.145  0.00  0.00    +0.017 C 
ATOM     22  C   UNL     1      36.194 -24.908 -13.113  0.00  0.00    +0.086 C 
ATOM     23  C   UNL     1      37.631 -24.093 -14.949  0.00  0.00    +0.086 C 
ATOM     24  C   UNL     1      34.993 -24.213 -13.714  0.00  0.00    +0.231 C 
ATOM     25  C   UNL     1      36.454 -23.383 -15.579  0.00  0.00    +0.231 C 
ATOM     26  C   UNL     1      38.483 -25.869 -13.412  0.00  0.00    +0.001 C 
ATOM     27  C   UNL     1      36.702 -26.448 -15.060  0.00  0.00    +0.001 C 
ENDBRANCH  17  20
ENDBRANCH  16  17
ENDBRANCH  15  16
ENDBRANCH   1  15
TORSDOF 5
ENDMDL
