MODEL 1
REMARK VINA RESULT:     -10.3      0.000      0.000
REMARK  Name = 3395
REMARK  7 active torsions:
REMARK  status: ('A' for Active; 'I' for Inactive)
REMARK    1  A    between atoms: C_2  and  C_14
REMARK    2  A    between atoms: C_5  and  C_8
REMARK    3  A    between atoms: C_14  and  C_17
REMARK    4  A    between atoms: C_17  and  O_18
REMARK    5  A    between atoms: O_18  and  C_19
REMARK    6  A    between atoms: C_19  and  O_21
REMARK    7  A    between atoms: O_21  and  C_23
REMARK                            x       y       z     vdW  Elec       q    Type
REMARK                         _______ _______ _______ _____ _____    ______ ____
ROOT
ATOM      1  F   UNL     1      34.940 -19.655 -23.842  0.00  0.00    -0.204 F 
ATOM      2  C   UNL     1      34.310 -16.107 -23.570  0.00  0.00    -0.010 C 
ATOM      3  C   UNL     1      34.525 -17.349 -24.136  0.00  0.00    +0.026 C 
ATOM      4  C   UNL     1      34.290 -15.919 -22.201  0.00  0.00    -0.004 C 
ATOM      5  C   UNL     1      34.714 -18.281 -21.914  0.00  0.00    +0.027 C 
ATOM      6  C   UNL     1      34.729 -18.446 -23.299  0.00  0.00    +0.140 C 
ATOM      7  C   UNL     1      34.495 -17.018 -21.365  0.00  0.00    +0.002 C 
ENDROOT
BRANCH   5   8
ATOM      8  C   UNL     1      34.925 -19.416 -21.043  0.00  0.00    +0.002 C 
ATOM      9  C   UNL     1      33.832 -20.137 -20.559  0.00  0.00    +0.000 C 
ATOM     10  C   UNL     1      36.220 -19.791 -20.687  0.00  0.00    +0.000 C 
ATOM     11  C   UNL     1      34.036 -21.231 -19.719  0.00  0.00    +0.000 C 
ATOM     12  C   UNL     1      36.423 -20.886 -19.846  0.00  0.00    +0.000 C 
ATOM     13  C   UNL     1      35.331 -21.606 -19.363  0.00  0.00    +0.000 C 
ENDBRANCH   5   8
BRANCH   2  14
ATOM     14  C   UNL     1      34.087 -14.912 -24.480  0.00  0.00    +0.121 C 
ATOM     15  C   UNL     1      33.352 -15.293 -25.769  0.00  0.00    +0.016 C 
BRANCH  14  17
ATOM     16  O   UNL     1      32.230 -13.849 -23.304  0.00  0.00    -0.250 OA
ATOM     17  C   UNL     1      33.363 -13.781 -23.762  0.00  0.00    +0.323 C 
BRANCH  17  18
ATOM     18  O   UNL     1      34.185 -12.691 -23.690  0.00  0.00    -0.413 OA
BRANCH  18  19
ATOM     19  C   UNL     1      33.749 -11.486 -24.348  0.00  0.00    +0.345 C 
ATOM     20  C   UNL     1      34.086 -11.581 -25.830  0.00  0.00    +0.100 C 
BRANCH  19  21
ATOM     21  O   UNL     1      34.446 -10.334 -23.828  0.00  0.00    -0.414 OA
BRANCH  21  23
ATOM     22  O   UNL     1      32.484  -9.191 -23.406  0.00  0.00    -0.250 OA
ATOM     23  C   UNL     1      33.690  -9.222 -23.604  0.00  0.00    +0.320 C 
ATOM     24  C   UNL     1      34.567  -8.007 -23.634  0.00  0.00    +0.121 C 
ENDBRANCH  21  23
ENDBRANCH  19  21
ENDBRANCH  18  19
ENDBRANCH  17  18
ENDBRANCH  14  17
ENDBRANCH   2  14
TORSDOF 7
ENDMDL
MODEL 2
REMARK VINA RESULT:     -10.2      6.098     10.628
REMARK  Name = 3395
REMARK  7 active torsions:
REMARK  status: ('A' for Active; 'I' for Inactive)
REMARK    1  A    between atoms: C_2  and  C_14
REMARK    2  A    between atoms: C_5  and  C_8
REMARK    3  A    between atoms: C_14  and  C_17
REMARK    4  A    between atoms: C_17  and  O_18
REMARK    5  A    between atoms: O_18  and  C_19
REMARK    6  A    between atoms: C_19  and  O_21
REMARK    7  A    between atoms: O_21  and  C_23
REMARK                            x       y       z     vdW  Elec       q    Type
REMARK                         _______ _______ _______ _____ _____    ______ ____
ROOT
ATOM      1  F   UNL     1      36.657 -20.523 -20.375  0.00  0.00    -0.204 F 
ATOM      2  C   UNL     1      33.765 -22.010 -18.800  0.00  0.00    -0.010 C 
ATOM      3  C   UNL     1      35.085 -21.761 -19.121  0.00  0.00    +0.026 C 
ATOM      4  C   UNL     1      32.725 -21.308 -19.378  0.00  0.00    -0.004 C 
ATOM      5  C   UNL     1      34.343 -20.047 -20.655  0.00  0.00    +0.027 C 
ATOM      6  C   UNL     1      35.377 -20.770 -20.058  0.00  0.00    +0.140 C 
ATOM      7  C   UNL     1      33.018 -20.316 -20.315  0.00  0.00    +0.002 C 
ENDROOT
BRANCH   5   8
ATOM      8  C   UNL     1      34.641 -19.018 -21.626  0.00  0.00    +0.002 C 
ATOM      9  C   UNL     1      34.822 -19.356 -22.968  0.00  0.00    +0.000 C 
ATOM     10  C   UNL     1      34.748 -17.687 -21.223  0.00  0.00    +0.000 C 
ATOM     11  C   UNL     1      35.109 -18.364 -23.905  0.00  0.00    +0.000 C 
ATOM     12  C   UNL     1      35.036 -16.694 -22.160  0.00  0.00    +0.000 C 
ATOM     13  C   UNL     1      35.216 -17.033 -23.501  0.00  0.00    +0.000 C 
ENDBRANCH   5   8
BRANCH   2  14
ATOM     14  C   UNL     1      33.446 -23.090 -17.780  0.00  0.00    +0.121 C 
ATOM     15  C   UNL     1      34.490 -23.156 -16.661  0.00  0.00    +0.016 C 
BRANCH  14  17
ATOM     16  O   UNL     1      31.240 -22.072 -17.541  0.00  0.00    -0.250 OA
ATOM     17  C   UNL     1      32.047 -22.927 -17.202  0.00  0.00    +0.323 C 
BRANCH  17  18
ATOM     18  O   UNL     1      31.827 -23.900 -16.266  0.00  0.00    -0.413 OA
BRANCH  18  19
ATOM     19  C   UNL     1      30.667 -23.760 -15.423  0.00  0.00    +0.345 C 
ATOM     20  C   UNL     1      31.021 -24.215 -14.014  0.00  0.00    +0.100 C 
BRANCH  19  21
ATOM     21  O   UNL     1      29.592 -24.605 -15.885  0.00  0.00    -0.414 OA
BRANCH  21  23
ATOM     22  O   UNL     1      27.867 -24.378 -17.406  0.00  0.00    -0.250 OA
ATOM     23  C   UNL     1      28.533 -23.970 -16.464  0.00  0.00    +0.320 C 
ATOM     24  C   UNL     1      28.289 -22.666 -15.767  0.00  0.00    +0.121 C 
ENDBRANCH  21  23
ENDBRANCH  19  21
ENDBRANCH  18  19
ENDBRANCH  17  18
ENDBRANCH  14  17
ENDBRANCH   2  14
TORSDOF 7
ENDMDL
MODEL 3
REMARK VINA RESULT:     -10.1      1.394      2.001
REMARK  Name = 3395
REMARK  7 active torsions:
REMARK  status: ('A' for Active; 'I' for Inactive)
REMARK    1  A    between atoms: C_2  and  C_14
REMARK    2  A    between atoms: C_5  and  C_8
REMARK    3  A    between atoms: C_14  and  C_17
REMARK    4  A    between atoms: C_17  and  O_18
REMARK    5  A    between atoms: O_18  and  C_19
REMARK    6  A    between atoms: C_19  and  O_21
REMARK    7  A    between atoms: O_21  and  C_23
REMARK                            x       y       z     vdW  Elec       q    Type
REMARK                         _______ _______ _______ _____ _____    ______ ____
ROOT
ATOM      1  F   UNL     1      34.956 -16.244 -20.228  0.00  0.00    -0.204 F 
ATOM      2  C   UNL     1      34.256 -15.493 -23.692  0.00  0.00    -0.010 C 
ATOM      3  C   UNL     1      34.453 -15.310 -22.337  0.00  0.00    +0.026 C 
ATOM      4  C   UNL     1      34.358 -16.736 -24.286  0.00  0.00    -0.004 C 
ATOM      5  C   UNL     1      34.874 -17.680 -22.122  0.00  0.00    +0.027 C 
ATOM      6  C   UNL     1      34.765 -16.415 -21.545  0.00  0.00    +0.140 C 
ATOM      7  C   UNL     1      34.671 -17.840 -23.493  0.00  0.00    +0.002 C 
ENDROOT
BRANCH   5   8
ATOM      8  C   UNL     1      35.198 -18.828 -21.305  0.00  0.00    +0.002 C 
ATOM      9  C   UNL     1      36.526 -19.093 -20.967  0.00  0.00    +0.000 C 
ATOM     10  C   UNL     1      34.183 -19.672 -20.853  0.00  0.00    +0.000 C 
ATOM     11  C   UNL     1      36.838 -20.200 -20.179  0.00  0.00    +0.000 C 
ATOM     12  C   UNL     1      34.496 -20.780 -20.064  0.00  0.00    +0.000 C 
ATOM     13  C   UNL     1      35.823 -21.043 -19.727  0.00  0.00    +0.000 C 
ENDBRANCH   5   8
BRANCH   2  14
ATOM     14  C   UNL     1      33.915 -14.290 -24.556  0.00  0.00    +0.121 C 
ATOM     15  C   UNL     1      33.072 -14.672 -25.775  0.00  0.00    +0.016 C 
BRANCH  14  17
ATOM     16  O   UNL     1      32.110 -13.267 -23.269  0.00  0.00    -0.250 OA
ATOM     17  C   UNL     1      33.232 -13.193 -23.751  0.00  0.00    +0.323 C 
BRANCH  17  18
ATOM     18  O   UNL     1      34.077 -12.124 -23.634  0.00  0.00    -0.413 OA
BRANCH  18  19
ATOM     19  C   UNL     1      33.757 -10.938 -24.388  0.00  0.00    +0.345 C 
ATOM     20  C   UNL     1      34.877 -10.666 -25.383  0.00  0.00    +0.100 C 
BRANCH  19  21
ATOM     21  O   UNL     1      33.670  -9.787 -23.522  0.00  0.00    -0.414 OA
BRANCH  21  23
ATOM     22  O   UNL     1      32.063 -10.148 -21.902  0.00  0.00    -0.250 OA
ATOM     23  C   UNL     1      32.469  -9.584 -22.908  0.00  0.00    +0.320 C 
ATOM     24  C   UNL     1      31.693  -8.544 -23.658  0.00  0.00    +0.121 C 
ENDBRANCH  21  23
ENDBRANCH  19  21
ENDBRANCH  18  19
ENDBRANCH  17  18
ENDBRANCH  14  17
ENDBRANCH   2  14
TORSDOF 7
ENDMDL
MODEL 4
REMARK VINA RESULT:     -10.1      5.719     10.119
REMARK  Name = 3395
REMARK  7 active torsions:
REMARK  status: ('A' for Active; 'I' for Inactive)
REMARK    1  A    between atoms: C_2  and  C_14
REMARK    2  A    between atoms: C_5  and  C_8
REMARK    3  A    between atoms: C_14  and  C_17
REMARK    4  A    between atoms: C_17  and  O_18
REMARK    5  A    between atoms: O_18  and  C_19
REMARK    6  A    between atoms: C_19  and  O_21
REMARK    7  A    between atoms: O_21  and  C_23
REMARK                            x       y       z     vdW  Elec       q    Type
REMARK                         _______ _______ _______ _____ _____    ______ ____
ROOT
ATOM      1  F   UNL     1      37.336 -18.377 -21.764  0.00  0.00    -0.204 F 
ATOM      2  C   UNL     1      35.417 -20.862 -19.975  0.00  0.00    -0.010 C 
ATOM      3  C   UNL     1      36.505 -20.172 -20.475  0.00  0.00    +0.026 C 
ATOM      4  C   UNL     1      34.118 -20.474 -20.242  0.00  0.00    -0.004 C 
ATOM      5  C   UNL     1      34.981 -18.640 -21.557  0.00  0.00    +0.027 C 
ATOM      6  C   UNL     1      36.284 -19.050 -21.274  0.00  0.00    +0.140 C 
ATOM      7  C   UNL     1      33.899 -19.352 -21.041  0.00  0.00    +0.002 C 
ENDROOT
BRANCH   5   8
ATOM      8  C   UNL     1      34.748 -17.477 -22.385  0.00  0.00    +0.002 C 
ATOM      9  C   UNL     1      34.558 -16.227 -21.794  0.00  0.00    +0.000 C 
ATOM     10  C   UNL     1      34.714 -17.604 -23.773  0.00  0.00    +0.000 C 
ATOM     11  C   UNL     1      34.333 -15.106 -22.592  0.00  0.00    +0.000 C 
ATOM     12  C   UNL     1      34.488 -16.482 -24.571  0.00  0.00    +0.000 C 
ATOM     13  C   UNL     1      34.298 -15.233 -23.981  0.00  0.00    +0.000 C 
ENDBRANCH   5   8
BRANCH   2  14
ATOM     14  C   UNL     1      35.657 -22.084 -19.105  0.00  0.00    +0.121 C 
ATOM     15  C   UNL     1      36.415 -21.740 -17.819  0.00  0.00    +0.016 C 
BRANCH  14  17
ATOM     16  O   UNL     1      33.814 -23.632 -19.514  0.00  0.00    -0.250 OA
ATOM     17  C   UNL     1      34.359 -22.814 -18.786  0.00  0.00    +0.323 C 
BRANCH  17  18
ATOM     18  O   UNL     1      33.915 -22.428 -17.552  0.00  0.00    -0.413 OA
BRANCH  18  19
ATOM     19  C   UNL     1      33.375 -23.450 -16.691  0.00  0.00    +0.345 C 
ATOM     20  C   UNL     1      31.876 -23.228 -16.538  0.00  0.00    +0.100 C 
BRANCH  19  21
ATOM     21  O   UNL     1      33.953 -23.370 -15.372  0.00  0.00    -0.414 OA
BRANCH  21  23
ATOM     22  O   UNL     1      35.517 -25.030 -15.747  0.00  0.00    -0.250 OA
ATOM     23  C   UNL     1      35.150 -23.999 -15.199  0.00  0.00    +0.320 C 
ATOM     24  C   UNL     1      35.980 -23.233 -14.214  0.00  0.00    +0.121 C 
ENDBRANCH  21  23
ENDBRANCH  19  21
ENDBRANCH  18  19
ENDBRANCH  17  18
ENDBRANCH  14  17
ENDBRANCH   2  14
TORSDOF 7
ENDMDL
MODEL 5
REMARK VINA RESULT:     -10.0      5.494      9.979
REMARK  Name = 3395
REMARK  7 active torsions:
REMARK  status: ('A' for Active; 'I' for Inactive)
REMARK    1  A    between atoms: C_2  and  C_14
REMARK    2  A    between atoms: C_5  and  C_8
REMARK    3  A    between atoms: C_14  and  C_17
REMARK    4  A    between atoms: C_17  and  O_18
REMARK    5  A    between atoms: O_18  and  C_19
REMARK    6  A    between atoms: C_19  and  O_21
REMARK    7  A    between atoms: O_21  and  C_23
REMARK                            x       y       z     vdW  Elec       q    Type
REMARK                         _______ _______ _______ _____ _____    ______ ____
ROOT
ATOM      1  F   UNL     1      37.224 -18.638 -21.519  0.00  0.00    -0.204 F 
ATOM      2  C   UNL     1      35.045 -20.992 -19.855  0.00  0.00    -0.010 C 
ATOM      3  C   UNL     1      36.202 -20.361 -20.269  0.00  0.00    +0.026 C 
ATOM      4  C   UNL     1      33.794 -20.559 -20.250  0.00  0.00    -0.004 C 
ATOM      5  C   UNL     1      34.851 -18.799 -21.524  0.00  0.00    +0.027 C 
ATOM      6  C   UNL     1      36.104 -19.254 -21.112  0.00  0.00    +0.140 C 
ATOM      7  C   UNL     1      33.696 -19.451 -21.092  0.00  0.00    +0.002 C 
ENDROOT
BRANCH   5   8
ATOM      8  C   UNL     1      34.744 -17.651 -22.397  0.00  0.00    +0.002 C 
ATOM      9  C   UNL     1      34.817 -17.818 -23.781  0.00  0.00    +0.000 C 
ATOM     10  C   UNL     1      34.568 -16.377 -21.857  0.00  0.00    +0.000 C 
ATOM     11  C   UNL     1      34.714 -16.711 -24.623  0.00  0.00    +0.000 C 
ATOM     12  C   UNL     1      34.465 -15.270 -22.700  0.00  0.00    +0.000 C 
ATOM     13  C   UNL     1      34.538 -15.437 -24.082  0.00  0.00    +0.000 C 
ENDBRANCH   5   8
BRANCH   2  14
ATOM     14  C   UNL     1      35.152 -22.198 -18.938  0.00  0.00    +0.121 C 
ATOM     15  C   UNL     1      36.138 -21.967 -17.789  0.00  0.00    +0.016 C 
BRANCH  14  17
ATOM     16  O   UNL     1      32.713 -22.283 -18.869  0.00  0.00    -0.250 OA
ATOM     17  C   UNL     1      33.791 -22.621 -18.401  0.00  0.00    +0.323 C 
BRANCH  17  18
ATOM     18  O   UNL     1      33.966 -23.456 -17.332  0.00  0.00    -0.413 OA
BRANCH  18  19
ATOM     19  C   UNL     1      33.237 -23.154 -16.127  0.00  0.00    +0.345 C 
ATOM     20  C   UNL     1      34.063 -23.591 -14.925  0.00  0.00    +0.100 C 
BRANCH  19  21
ATOM     21  O   UNL     1      31.996 -23.889 -16.079  0.00  0.00    -0.414 OA
BRANCH  21  23
ATOM     22  O   UNL     1      30.268 -22.598 -16.907  0.00  0.00    -0.250 OA
ATOM     23  C   UNL     1      30.857 -23.145 -15.985  0.00  0.00    +0.320 C 
ATOM     24  C   UNL     1      30.414 -23.087 -14.554  0.00  0.00    +0.121 C 
ENDBRANCH  21  23
ENDBRANCH  19  21
ENDBRANCH  18  19
ENDBRANCH  17  18
ENDBRANCH  14  17
ENDBRANCH   2  14
TORSDOF 7
ENDMDL
MODEL 6
REMARK VINA RESULT:      -9.9      8.504     12.499
REMARK  Name = 3395
REMARK  7 active torsions:
REMARK  status: ('A' for Active; 'I' for Inactive)
REMARK    1  A    between atoms: C_2  and  C_14
REMARK    2  A    between atoms: C_5  and  C_8
REMARK    3  A    between atoms: C_14  and  C_17
REMARK    4  A    between atoms: C_17  and  O_18
REMARK    5  A    between atoms: O_18  and  C_19
REMARK    6  A    between atoms: C_19  and  O_21
REMARK    7  A    between atoms: O_21  and  C_23
REMARK                            x       y       z     vdW  Elec       q    Type
REMARK                         _______ _______ _______ _____ _____    ______ ____
ROOT
ATOM      1  F   UNL     1      37.029 -21.218 -17.967  0.00  0.00    -0.204 F 
ATOM      2  C   UNL     1      35.180 -23.545 -15.913  0.00  0.00    -0.010 C 
ATOM      3  C   UNL     1      36.218 -22.756 -16.370  0.00  0.00    +0.026 C 
ATOM      4  C   UNL     1      33.960 -23.596 -16.557  0.00  0.00    -0.004 C 
ATOM      5  C   UNL     1      34.801 -22.021 -18.185  0.00  0.00    +0.027 C 
ATOM      6  C   UNL     1      36.026 -21.986 -17.518  0.00  0.00    +0.140 C 
ATOM      7  C   UNL     1      33.769 -22.826 -17.705  0.00  0.00    +0.002 C 
ENDROOT
BRANCH   5   8
ATOM      8  C   UNL     1      34.598 -21.225 -19.375  0.00  0.00    +0.002 C 
ATOM      9  C   UNL     1      33.305 -20.879 -19.770  0.00  0.00    +0.000 C 
ATOM     10  C   UNL     1      35.693 -20.802 -20.128  0.00  0.00    +0.000 C 
ATOM     11  C   UNL     1      33.108 -20.112 -20.918  0.00  0.00    +0.000 C 
ATOM     12  C   UNL     1      35.496 -20.034 -21.276  0.00  0.00    +0.000 C 
ATOM     13  C   UNL     1      34.204 -19.689 -21.670  0.00  0.00    +0.000 C 
ENDBRANCH   5   8
BRANCH   2  14
ATOM     14  C   UNL     1      35.389 -24.384 -14.663  0.00  0.00    +0.121 C 
ATOM     15  C   UNL     1      34.071 -24.702 -13.952  0.00  0.00    +0.016 C 
BRANCH  14  17
ATOM     16  O   UNL     1      35.992 -26.373 -15.944  0.00  0.00    -0.250 OA
ATOM     17  C   UNL     1      36.161 -25.662 -14.963  0.00  0.00    +0.323 C 
BRANCH  17  18
ATOM     18  O   UNL     1      37.085 -25.875 -13.977  0.00  0.00    -0.413 OA
BRANCH  18  19
ATOM     19  C   UNL     1      38.090 -24.862 -13.780  0.00  0.00    +0.345 C 
ATOM     20  C   UNL     1      39.405 -25.347 -14.374  0.00  0.00    +0.100 C 
BRANCH  19  21
ATOM     21  O   UNL     1      38.319 -24.632 -12.374  0.00  0.00    -0.414 OA
BRANCH  21  23
ATOM     22  O   UNL     1      38.250 -22.369 -11.913  0.00  0.00    -0.250 OA
ATOM     23  C   UNL     1      37.776 -23.495 -11.852  0.00  0.00    +0.320 C 
ATOM     24  C   UNL     1      36.480 -23.824 -11.175  0.00  0.00    +0.121 C 
ENDBRANCH  21  23
ENDBRANCH  19  21
ENDBRANCH  18  19
ENDBRANCH  17  18
ENDBRANCH  14  17
ENDBRANCH   2  14
TORSDOF 7
ENDMDL
MODEL 7
REMARK VINA RESULT:      -9.9      3.375      9.049
REMARK  Name = 3395
REMARK  7 active torsions:
REMARK  status: ('A' for Active; 'I' for Inactive)
REMARK    1  A    between atoms: C_2  and  C_14
REMARK    2  A    between atoms: C_5  and  C_8
REMARK    3  A    between atoms: C_14  and  C_17
REMARK    4  A    between atoms: C_17  and  O_18
REMARK    5  A    between atoms: O_18  and  C_19
REMARK    6  A    between atoms: C_19  and  O_21
REMARK    7  A    between atoms: O_21  and  C_23
REMARK                            x       y       z     vdW  Elec       q    Type
REMARK                         _______ _______ _______ _____ _____    ______ ____
ROOT
ATOM      1  F   UNL     1      30.789 -10.930 -20.916  0.00  0.00    -0.204 F 
ATOM      2  C   UNL     1      32.867 -12.903 -23.117  0.00  0.00    -0.010 C 
ATOM      3  C   UNL     1      31.953 -12.586 -22.130  0.00  0.00    +0.026 C 
ATOM      4  C   UNL     1      33.512 -11.931 -23.857  0.00  0.00    -0.004 C 
ATOM      5  C   UNL     1      32.313 -10.245 -22.608  0.00  0.00    +0.027 C 
ATOM      6  C   UNL     1      31.674 -11.244 -21.873  0.00  0.00    +0.140 C 
ATOM      7  C   UNL     1      33.232 -10.589 -23.599  0.00  0.00    +0.002 C 
ENDROOT
BRANCH   5   8
ATOM      8  C   UNL     1      32.027  -8.852 -22.345  0.00  0.00    +0.002 C 
ATOM      9  C   UNL     1      31.255  -8.116 -23.246  0.00  0.00    +0.000 C 
ATOM     10  C   UNL     1      32.522  -8.243 -21.192  0.00  0.00    +0.000 C 
ATOM     11  C   UNL     1      30.979  -6.773 -22.993  0.00  0.00    +0.000 C 
ATOM     12  C   UNL     1      32.245  -6.899 -20.940  0.00  0.00    +0.000 C 
ATOM     13  C   UNL     1      31.474  -6.165 -21.840  0.00  0.00    +0.000 C 
ENDBRANCH   5   8
BRANCH   2  14
ATOM     14  C   UNL     1      33.171 -14.365 -23.396  0.00  0.00    +0.121 C 
ATOM     15  C   UNL     1      33.277 -14.658 -24.896  0.00  0.00    +0.016 C 
BRANCH  14  17
ATOM     16  O   UNL     1      34.718 -14.541 -21.515  0.00  0.00    -0.250 OA
ATOM     17  C   UNL     1      34.424 -14.831 -22.667  0.00  0.00    +0.323 C 
BRANCH  17  18
ATOM     18  O   UNL     1      35.153 -15.641 -23.493  0.00  0.00    -0.413 OA
BRANCH  18  19
ATOM     19  C   UNL     1      35.310 -17.019 -23.103  0.00  0.00    +0.345 C 
ATOM     20  C   UNL     1      35.025 -17.909 -24.304  0.00  0.00    +0.100 C 
BRANCH  19  21
ATOM     21  O   UNL     1      34.361 -17.374 -22.076  0.00  0.00    -0.414 OA
BRANCH  21  23
ATOM     22  O   UNL     1      35.821 -18.342 -20.571  0.00  0.00    -0.250 OA
ATOM     23  C   UNL     1      34.763 -18.323 -21.184  0.00  0.00    +0.320 C 
ATOM     24  C   UNL     1      33.700 -19.371 -21.054  0.00  0.00    +0.121 C 
ENDBRANCH  21  23
ENDBRANCH  19  21
ENDBRANCH  18  19
ENDBRANCH  17  18
ENDBRANCH  14  17
ENDBRANCH   2  14
TORSDOF 7
ENDMDL
MODEL 8
REMARK VINA RESULT:      -9.8      2.266      3.083
REMARK  Name = 3395
REMARK  7 active torsions:
REMARK  status: ('A' for Active; 'I' for Inactive)
REMARK    1  A    between atoms: C_2  and  C_14
REMARK    2  A    between atoms: C_5  and  C_8
REMARK    3  A    between atoms: C_14  and  C_17
REMARK    4  A    between atoms: C_17  and  O_18
REMARK    5  A    between atoms: O_18  and  C_19
REMARK    6  A    between atoms: C_19  and  O_21
REMARK    7  A    between atoms: O_21  and  C_23
REMARK                            x       y       z     vdW  Elec       q    Type
REMARK                         _______ _______ _______ _____ _____    ______ ____
ROOT
ATOM      1  F   UNL     1      34.771 -15.783 -19.875  0.00  0.00    -0.204 F 
ATOM      2  C   UNL     1      34.097 -14.335 -23.116  0.00  0.00    -0.010 C 
ATOM      3  C   UNL     1      34.307 -14.430 -21.754  0.00  0.00    +0.026 C 
ATOM      4  C   UNL     1      34.137 -15.441 -23.943  0.00  0.00    -0.004 C 
ATOM      5  C   UNL     1      34.612 -16.814 -22.012  0.00  0.00    +0.027 C 
ATOM      6  C   UNL     1      34.567 -15.683 -21.197  0.00  0.00    +0.140 C 
ATOM      7  C   UNL     1      34.397 -16.693 -23.385  0.00  0.00    +0.002 C 
ENDROOT
BRANCH   5   8
ATOM      8  C   UNL     1      34.882 -18.114 -21.439  0.00  0.00    +0.002 C 
ATOM      9  C   UNL     1      36.199 -18.519 -21.216  0.00  0.00    +0.000 C 
ATOM     10  C   UNL     1      33.826 -18.964 -21.108  0.00  0.00    +0.000 C 
ATOM     11  C   UNL     1      36.459 -19.773 -20.664  0.00  0.00    +0.000 C 
ATOM     12  C   UNL     1      34.087 -20.218 -20.556  0.00  0.00    +0.000 C 
ATOM     13  C   UNL     1      35.403 -20.622 -20.334  0.00  0.00    +0.000 C 
ENDBRANCH   5   8
BRANCH   2  14
ATOM     14  C   UNL     1      33.814 -12.971 -23.723  0.00  0.00    +0.121 C 
ATOM     15  C   UNL     1      33.490 -13.058 -25.217  0.00  0.00    +0.016 C 
BRANCH  14  17
ATOM     16  O   UNL     1      31.714 -12.765 -22.493  0.00  0.00    -0.250 OA
ATOM     17  C   UNL     1      32.708 -12.238 -22.975  0.00  0.00    +0.323 C 
BRANCH  17  18
ATOM     18  O   UNL     1      33.014 -10.907 -22.905  0.00  0.00    -0.413 OA
BRANCH  18  19
ATOM     19  C   UNL     1      32.030 -10.029 -22.325  0.00  0.00    +0.345 C 
ATOM     20  C   UNL     1      31.498  -9.099 -23.406  0.00  0.00    +0.100 C 
BRANCH  19  21
ATOM     21  O   UNL     1      32.620  -9.199 -21.303  0.00  0.00    -0.414 OA
BRANCH  21  23
ATOM     22  O   UNL     1      32.005  -8.311 -19.260  0.00  0.00    -0.250 OA
ATOM     23  C   UNL     1      32.007  -9.215 -20.085  0.00  0.00    +0.320 C 
ATOM     24  C   UNL     1      31.315 -10.530 -19.890  0.00  0.00    +0.121 C 
ENDBRANCH  21  23
ENDBRANCH  19  21
ENDBRANCH  18  19
ENDBRANCH  17  18
ENDBRANCH  14  17
ENDBRANCH   2  14
TORSDOF 7
ENDMDL
MODEL 9
REMARK VINA RESULT:      -9.5     11.182     13.560
REMARK  Name = 3395
REMARK  7 active torsions:
REMARK  status: ('A' for Active; 'I' for Inactive)
REMARK    1  A    between atoms: C_2  and  C_14
REMARK    2  A    between atoms: C_5  and  C_8
REMARK    3  A    between atoms: C_14  and  C_17
REMARK    4  A    between atoms: C_17  and  O_18
REMARK    5  A    between atoms: O_18  and  C_19
REMARK    6  A    between atoms: C_19  and  O_21
REMARK    7  A    between atoms: O_21  and  C_23
REMARK                            x       y       z     vdW  Elec       q    Type
REMARK                         _______ _______ _______ _____ _____    ______ ____
ROOT
ATOM      1  F   UNL     1      32.691 -22.810 -17.791  0.00  0.00    -0.204 F 
ATOM      2  C   UNL     1      35.244 -23.548 -15.343  0.00  0.00    -0.010 C 
ATOM      3  C   UNL     1      34.658 -23.157 -16.531  0.00  0.00    +0.026 C 
ATOM      4  C   UNL     1      34.496 -23.967 -14.259  0.00  0.00    -0.004 C 
ATOM      5  C   UNL     1      32.491 -23.607 -15.559  0.00  0.00    +0.027 C 
ATOM      6  C   UNL     1      33.267 -23.187 -16.640  0.00  0.00    +0.140 C 
ATOM      7  C   UNL     1      33.105 -23.996 -14.369  0.00  0.00    +0.002 C 
ENDROOT
BRANCH   5   8
ATOM      8  C   UNL     1      31.049 -23.639 -15.667  0.00  0.00    +0.002 C 
ATOM      9  C   UNL     1      30.373 -22.592 -16.294  0.00  0.00    +0.000 C 
ATOM     10  C   UNL     1      30.334 -24.716 -15.145  0.00  0.00    +0.000 C 
ATOM     11  C   UNL     1      28.983 -22.622 -16.399  0.00  0.00    +0.000 C 
ATOM     12  C   UNL     1      28.943 -24.747 -15.250  0.00  0.00    +0.000 C 
ATOM     13  C   UNL     1      28.268 -23.700 -15.877  0.00  0.00    +0.000 C 
ENDBRANCH   5   8
BRANCH   2  14
ATOM     14  C   UNL     1      36.758 -23.516 -15.224  0.00  0.00    +0.121 C 
ATOM     15  C   UNL     1      37.371 -22.317 -15.953  0.00  0.00    +0.016 C 
BRANCH  14  17
ATOM     16  O   UNL     1      37.461 -22.568 -13.086  0.00  0.00    -0.250 OA
ATOM     17  C   UNL     1      37.212 -23.552 -13.771  0.00  0.00    +0.323 C 
BRANCH  17  18
ATOM     18  O   UNL     1      37.273 -24.850 -13.347  0.00  0.00    -0.413 OA
BRANCH  18  19
ATOM     19  C   UNL     1      38.040 -25.774 -14.144  0.00  0.00    +0.345 C 
ATOM     20  C   UNL     1      37.225 -27.042 -14.355  0.00  0.00    +0.100 C 
BRANCH  19  21
ATOM     21  O   UNL     1      39.252 -26.157 -13.462  0.00  0.00    -0.414 OA
BRANCH  21  23
ATOM     22  O   UNL     1      41.363 -26.873 -14.072  0.00  0.00    -0.250 OA
ATOM     23  C   UNL     1      40.395 -26.136 -14.205  0.00  0.00    +0.320 C 
ATOM     24  C   UNL     1      40.300 -25.055 -15.238  0.00  0.00    +0.121 C 
ENDBRANCH  21  23
ENDBRANCH  19  21
ENDBRANCH  18  19
ENDBRANCH  17  18
ENDBRANCH  14  17
ENDBRANCH   2  14
TORSDOF 7
ENDMDL
