MODEL 1
REMARK VINA RESULT:     -10.5      0.000      0.000
REMARK  Name = 5180212
REMARK  10 active torsions:
REMARK  status: ('A' for Active; 'I' for Inactive)
REMARK    1  A    between atoms: N_2  and  C_7
REMARK    2  A    between atoms: C_4  and  C_18
REMARK    3  A    between atoms: C_7  and  C_9
REMARK    4  A    between atoms: C_18  and  C_19
REMARK    5  A    between atoms: C_19  and  O_20
REMARK    6  A    between atoms: O_20  and  P_21
REMARK    7  A    between atoms: P_21  and  O_23
REMARK    8  A    between atoms: P_21  and  O_25
REMARK    9  A    between atoms: O_25  and  P_26
REMARK   10  A    between atoms: P_26  and  O_29
REMARK                            x       y       z     vdW  Elec       q    Type
REMARK                         _______ _______ _______ _____ _____    ______ ____
ROOT
ATOM      1  S   UNL     1      37.086 -21.793 -16.566  0.00  0.00    -0.095 S 
ATOM      2  N   UNL     1      35.561 -22.106 -18.530  0.00  0.00    -0.297 N 
ATOM      3  C   UNL     1      34.883 -22.676 -17.475  0.00  0.00    +0.028 C 
ATOM      4  C   UNL     1      35.595 -22.581 -16.329  0.00  0.00    +0.016 C 
ATOM      5  C   UNL     1      36.735 -21.595 -18.228  0.00  0.00    +0.154 C 
ATOM      6  C   UNL     1      33.562 -23.269 -17.733  0.00  0.00    +0.047 C 
ENDROOT
BRANCH   2   7
ATOM      7  C   UNL     1      35.045 -22.059 -19.877  0.00  0.00    +0.122 C 
BRANCH   7   9
ATOM      8  N   UNL     1      33.741 -18.660 -20.912  0.00  0.00    -0.396 NA
ATOM      9  C   UNL     1      35.001 -20.634 -20.354  0.00  0.00    +0.037 C 
ATOM     10  C   UNL     1      33.816 -19.941 -20.486  0.00  0.00    +0.173 C 
ATOM     11  C   UNL     1      36.186 -19.994 -20.672  0.00  0.00    -0.018 C 
ATOM     12  C   UNL     1      36.150 -18.676 -21.116  0.00  0.00    +0.080 C 
ATOM     13  C   UNL     1      34.914 -18.059 -21.216  0.00  0.00    +0.093 C 
ATOM     14  C   UNL     1      34.836 -16.647 -21.690  0.00  0.00    +0.062 C 
ATOM     15  N   UNL     1      32.606 -20.601 -20.157  0.00  0.00    -0.333 N 
ATOM     16  H   UNL     1      31.747 -20.126 -20.243  0.00  0.00    +0.145 HD
ATOM     17  H   UNL     1      32.623 -21.534 -19.844  0.00  0.00    +0.145 HD
ENDBRANCH   7   9
ENDBRANCH   2   7
BRANCH   4  18
ATOM     18  C   UNL     1      35.233 -23.068 -14.946  0.00  0.00    +0.066 C 
BRANCH  18  19
ATOM     19  C   UNL     1      35.359 -24.584 -14.821  0.00  0.00    +0.159 C 
BRANCH  19  20
ATOM     20  O   UNL     1      36.646 -25.017 -15.230  0.00  0.00    -0.273 OA
BRANCH  20  21
ATOM     21  P   UNL     1      37.072 -26.568 -15.051  0.00  0.00    +0.484 P 
ATOM     22  O   UNL     1      36.540 -27.492 -16.106  0.00  0.00    -0.227 OA
BRANCH  21  23
ATOM     23  O   UNL     1      36.615 -26.940 -13.545  0.00  0.00    -0.302 OA
ATOM     24  H   UNL     1      36.945 -26.267 -12.930  0.00  0.00    +0.222 HD
ENDBRANCH  21  23
BRANCH  21  25
ATOM     25  O   UNL     1      38.686 -26.536 -14.951  0.00  0.00    -0.185 OA
BRANCH  25  26
ATOM     26  P   UNL     1      39.687 -25.387 -14.368  0.00  0.00    +0.511 P 
ATOM     27  O   UNL     1      41.112 -25.891 -14.438  0.00  0.00    -0.116 OA
ATOM     28  O   UNL     1      39.116 -24.850 -13.075  0.00  0.00    -0.225 OA
BRANCH  26  29
ATOM     29  O   UNL     1      39.477 -24.264 -15.535  0.00  0.00    -0.301 OA
ATOM     30  H   UNL     1      38.668 -24.461 -16.032  0.00  0.00    +0.222 HD
ENDBRANCH  26  29
ENDBRANCH  25  26
ENDBRANCH  21  25
ENDBRANCH  20  21
ENDBRANCH  19  20
ENDBRANCH  18  19
ENDBRANCH   4  18
TORSDOF 10
ENDMDL
MODEL 2
REMARK VINA RESULT:      -9.8      5.180      6.814
REMARK  Name = 5180212
REMARK  10 active torsions:
REMARK  status: ('A' for Active; 'I' for Inactive)
REMARK    1  A    between atoms: N_2  and  C_7
REMARK    2  A    between atoms: C_4  and  C_18
REMARK    3  A    between atoms: C_7  and  C_9
REMARK    4  A    between atoms: C_18  and  C_19
REMARK    5  A    between atoms: C_19  and  O_20
REMARK    6  A    between atoms: O_20  and  P_21
REMARK    7  A    between atoms: P_21  and  O_23
REMARK    8  A    between atoms: P_21  and  O_25
REMARK    9  A    between atoms: O_25  and  P_26
REMARK   10  A    between atoms: P_26  and  O_29
REMARK                            x       y       z     vdW  Elec       q    Type
REMARK                         _______ _______ _______ _____ _____    ______ ____
ROOT
ATOM      1  S   UNL     1      32.676 -20.800 -20.102  0.00  0.00    -0.095 S 
ATOM      2  N   UNL     1      34.915 -19.798 -20.615  0.00  0.00    -0.297 N 
ATOM      3  C   UNL     1      35.206 -20.950 -19.919  0.00  0.00    +0.028 C 
ATOM      4  C   UNL     1      34.077 -21.608 -19.568  0.00  0.00    +0.016 C 
ATOM      5  C   UNL     1      33.634 -19.567 -20.800  0.00  0.00    +0.154 C 
ATOM      6  C   UNL     1      36.618 -21.278 -19.671  0.00  0.00    +0.047 C 
ENDROOT
BRANCH   2   7
ATOM      7  C   UNL     1      35.922 -18.894 -21.116  0.00  0.00    +0.122 C 
BRANCH   7   9
ATOM      8  N   UNL     1      34.388 -16.112 -23.175  0.00  0.00    -0.396 NA
ATOM      9  C   UNL     1      35.371 -18.120 -22.283  0.00  0.00    +0.037 C 
ATOM     10  C   UNL     1      34.890 -16.835 -22.148  0.00  0.00    +0.173 C 
ATOM     11  C   UNL     1      35.344 -18.714 -23.532  0.00  0.00    -0.018 C 
ATOM     12  C   UNL     1      34.834 -18.003 -24.613  0.00  0.00    +0.080 C 
ATOM     13  C   UNL     1      34.373 -16.717 -24.384  0.00  0.00    +0.093 C 
ATOM     14  C   UNL     1      33.818 -15.925 -25.519  0.00  0.00    +0.062 C 
ATOM     15  N   UNL     1      34.921 -16.231 -20.866  0.00  0.00    -0.333 N 
ATOM     16  H   UNL     1      34.583 -15.314 -20.746  0.00  0.00    +0.145 HD
ATOM     17  H   UNL     1      35.280 -16.728 -20.096  0.00  0.00    +0.145 HD
ENDBRANCH   7   9
ENDBRANCH   2   7
BRANCH   4  18
ATOM     18  C   UNL     1      33.933 -22.902 -18.803  0.00  0.00    +0.066 C 
BRANCH  18  19
ATOM     19  C   UNL     1      33.175 -22.711 -17.493  0.00  0.00    +0.159 C 
BRANCH  19  20
ATOM     20  O   UNL     1      31.835 -23.157 -17.617  0.00  0.00    -0.273 OA
BRANCH  20  21
ATOM     21  P   UNL     1      30.841 -23.098 -16.342  0.00  0.00    +0.484 P 
ATOM     22  O   UNL     1      31.445 -22.512 -15.099  0.00  0.00    -0.227 OA
BRANCH  21  23
ATOM     23  O   UNL     1      30.309 -24.616 -16.175  0.00  0.00    -0.302 OA
ATOM     24  H   UNL     1      30.852 -25.080 -15.518  0.00  0.00    +0.222 HD
ENDBRANCH  21  23
BRANCH  21  25
ATOM     25  O   UNL     1      29.536 -22.306 -16.881  0.00  0.00    -0.185 OA
BRANCH  25  26
ATOM     26  P   UNL     1      27.962 -22.734 -16.873  0.00  0.00    +0.511 P 
ATOM     27  O   UNL     1      27.791 -24.007 -17.673  0.00  0.00    -0.116 OA
ATOM     28  O   UNL     1      27.121 -21.512 -17.169  0.00  0.00    -0.225 OA
BRANCH  26  29
ATOM     29  O   UNL     1      27.813 -23.094 -15.287  0.00  0.00    -0.301 OA
ATOM     30  H   UNL     1      27.483 -22.318 -14.809  0.00  0.00    +0.222 HD
ENDBRANCH  26  29
ENDBRANCH  25  26
ENDBRANCH  21  25
ENDBRANCH  20  21
ENDBRANCH  19  20
ENDBRANCH  18  19
ENDBRANCH   4  18
TORSDOF 10
ENDMDL
MODEL 3
REMARK VINA RESULT:      -9.7      2.597      4.189
REMARK  Name = 5180212
REMARK  10 active torsions:
REMARK  status: ('A' for Active; 'I' for Inactive)
REMARK    1  A    between atoms: N_2  and  C_7
REMARK    2  A    between atoms: C_4  and  C_18
REMARK    3  A    between atoms: C_7  and  C_9
REMARK    4  A    between atoms: C_18  and  C_19
REMARK    5  A    between atoms: C_19  and  O_20
REMARK    6  A    between atoms: O_20  and  P_21
REMARK    7  A    between atoms: P_21  and  O_23
REMARK    8  A    between atoms: P_21  and  O_25
REMARK    9  A    between atoms: O_25  and  P_26
REMARK   10  A    between atoms: P_26  and  O_29
REMARK                            x       y       z     vdW  Elec       q    Type
REMARK                         _______ _______ _______ _____ _____    ______ ____
ROOT
ATOM      1  S   UNL     1      32.778 -20.580 -20.272  0.00  0.00    -0.095 S 
ATOM      2  N   UNL     1      34.943 -19.433 -20.800  0.00  0.00    -0.297 N 
ATOM      3  C   UNL     1      35.319 -20.640 -20.254  0.00  0.00    +0.028 C 
ATOM      4  C   UNL     1      34.238 -21.380 -19.914  0.00  0.00    +0.016 C 
ATOM      5  C   UNL     1      33.644 -19.238 -20.882  0.00  0.00    +0.154 C 
ATOM      6  C   UNL     1      36.754 -20.932 -20.128  0.00  0.00    +0.047 C 
ENDROOT
BRANCH   2   7
ATOM      7  C   UNL     1      35.882 -18.436 -21.255  0.00  0.00    +0.122 C 
BRANCH   7   9
ATOM      8  N   UNL     1      34.249 -15.727 -23.333  0.00  0.00    -0.396 NA
ATOM      9  C   UNL     1      35.303 -17.692 -22.426  0.00  0.00    +0.037 C 
ATOM     10  C   UNL     1      34.777 -16.423 -22.301  0.00  0.00    +0.173 C 
ATOM     11  C   UNL     1      35.295 -18.298 -23.670  0.00  0.00    -0.018 C 
ATOM     12  C   UNL     1      34.758 -17.614 -24.756  0.00  0.00    +0.080 C 
ATOM     13  C   UNL     1      34.253 -16.343 -24.537  0.00  0.00    +0.093 C 
ATOM     14  C   UNL     1      33.668 -15.580 -25.678  0.00  0.00    +0.062 C 
ATOM     15  N   UNL     1      34.789 -15.808 -21.025  0.00  0.00    -0.333 N 
ATOM     16  H   UNL     1      34.420 -14.902 -20.912  0.00  0.00    +0.145 HD
ATOM     17  H   UNL     1      35.166 -16.285 -20.252  0.00  0.00    +0.145 HD
ENDBRANCH   7   9
ENDBRANCH   2   7
BRANCH   4  18
ATOM     18  C   UNL     1      34.190 -22.755 -19.291  0.00  0.00    +0.066 C 
BRANCH  18  19
ATOM     19  C   UNL     1      33.653 -22.718 -17.863  0.00  0.00    +0.159 C 
BRANCH  19  20
ATOM     20  O   UNL     1      34.575 -23.309 -16.964  0.00  0.00    -0.273 OA
BRANCH  20  21
ATOM     21  P   UNL     1      34.179 -23.496 -15.406  0.00  0.00    +0.484 P 
ATOM     22  O   UNL     1      32.727 -23.282 -15.095  0.00  0.00    -0.227 OA
BRANCH  21  23
ATOM     23  O   UNL     1      35.184 -22.507 -14.613  0.00  0.00    -0.302 OA
ATOM     24  H   UNL     1      36.060 -22.533 -15.029  0.00  0.00    +0.222 HD
ENDBRANCH  21  23
BRANCH  21  25
ATOM     25  O   UNL     1      34.729 -24.968 -15.021  0.00  0.00    -0.185 OA
BRANCH  25  26
ATOM     26  P   UNL     1      36.256 -25.532 -14.915  0.00  0.00    +0.511 P 
ATOM     27  O   UNL     1      36.374 -26.799 -15.734  0.00  0.00    -0.116 OA
ATOM     28  O   UNL     1      36.689 -25.501 -13.466  0.00  0.00    -0.225 OA
BRANCH  26  29
ATOM     29  O   UNL     1      37.019 -24.327 -15.710  0.00  0.00    -0.301 OA
ATOM     30  H   UNL     1      36.905 -24.448 -16.666  0.00  0.00    +0.222 HD
ENDBRANCH  26  29
ENDBRANCH  25  26
ENDBRANCH  21  25
ENDBRANCH  20  21
ENDBRANCH  19  20
ENDBRANCH  18  19
ENDBRANCH   4  18
TORSDOF 10
ENDMDL
MODEL 4
REMARK VINA RESULT:      -9.5      2.489      4.213
REMARK  Name = 5180212
REMARK  10 active torsions:
REMARK  status: ('A' for Active; 'I' for Inactive)
REMARK    1  A    between atoms: N_2  and  C_7
REMARK    2  A    between atoms: C_4  and  C_18
REMARK    3  A    between atoms: C_7  and  C_9
REMARK    4  A    between atoms: C_18  and  C_19
REMARK    5  A    between atoms: C_19  and  O_20
REMARK    6  A    between atoms: O_20  and  P_21
REMARK    7  A    between atoms: P_21  and  O_23
REMARK    8  A    between atoms: P_21  and  O_25
REMARK    9  A    between atoms: O_25  and  P_26
REMARK   10  A    between atoms: P_26  and  O_29
REMARK                            x       y       z     vdW  Elec       q    Type
REMARK                         _______ _______ _______ _____ _____    ______ ____
ROOT
ATOM      1  S   UNL     1      32.798 -20.478 -20.369  0.00  0.00    -0.095 S 
ATOM      2  N   UNL     1      34.987 -19.373 -20.885  0.00  0.00    -0.297 N 
ATOM      3  C   UNL     1      35.335 -20.530 -20.224  0.00  0.00    +0.028 C 
ATOM      4  C   UNL     1      34.238 -21.242 -19.877  0.00  0.00    +0.016 C 
ATOM      5  C   UNL     1      33.695 -19.189 -21.045  0.00  0.00    +0.154 C 
ATOM      6  C   UNL     1      36.762 -20.807 -20.005  0.00  0.00    +0.047 C 
ENDROOT
BRANCH   2   7
ATOM      7  C   UNL     1      35.949 -18.415 -21.375  0.00  0.00    +0.122 C 
BRANCH   7   9
ATOM      8  N   UNL     1      34.382 -15.634 -23.409  0.00  0.00    -0.396 NA
ATOM      9  C   UNL     1      35.249 -17.135 -21.738  0.00  0.00    +0.037 C 
ATOM     10  C   UNL     1      35.007 -16.778 -23.048  0.00  0.00    +0.173 C 
ATOM     11  C   UNL     1      34.835 -16.284 -20.728  0.00  0.00    -0.018 C 
ATOM     12  C   UNL     1      34.189 -15.098 -21.059  0.00  0.00    +0.080 C 
ATOM     13  C   UNL     1      33.988 -14.822 -22.402  0.00  0.00    +0.093 C 
ATOM     14  C   UNL     1      33.300 -13.558 -22.795  0.00  0.00    +0.062 C 
ATOM     15  N   UNL     1      35.433 -17.653 -24.078  0.00  0.00    -0.333 N 
ATOM     16  H   UNL     1      35.270 -17.419 -25.021  0.00  0.00    +0.145 HD
ATOM     17  H   UNL     1      35.891 -18.494 -23.852  0.00  0.00    +0.145 HD
ENDBRANCH   7   9
ENDBRANCH   2   7
BRANCH   4  18
ATOM     18  C   UNL     1      34.157 -22.561 -19.146  0.00  0.00    +0.066 C 
BRANCH  18  19
ATOM     19  C   UNL     1      34.665 -22.452 -17.711  0.00  0.00    +0.159 C 
BRANCH  19  20
ATOM     20  O   UNL     1      34.364 -23.629 -16.980  0.00  0.00    -0.273 OA
BRANCH  20  21
ATOM     21  P   UNL     1      34.124 -23.549 -15.381  0.00  0.00    +0.484 P 
ATOM     22  O   UNL     1      32.699 -23.324 -14.968  0.00  0.00    -0.227 OA
BRANCH  21  23
ATOM     23  O   UNL     1      35.154 -22.409 -14.875  0.00  0.00    -0.302 OA
ATOM     24  H   UNL     1      35.781 -22.200 -15.586  0.00  0.00    +0.222 HD
ENDBRANCH  21  23
BRANCH  21  25
ATOM     25  O   UNL     1      34.772 -24.915 -14.805  0.00  0.00    -0.185 OA
BRANCH  25  26
ATOM     26  P   UNL     1      36.291 -25.497 -14.924  0.00  0.00    +0.511 P 
ATOM     27  O   UNL     1      36.287 -26.711 -15.826  0.00  0.00    -0.116 OA
ATOM     28  O   UNL     1      36.902 -25.559 -13.542  0.00  0.00    -0.225 OA
BRANCH  26  29
ATOM     29  O   UNL     1      36.968 -24.252 -15.735  0.00  0.00    -0.301 OA
ATOM     30  H   UNL     1      36.272 -23.721 -16.152  0.00  0.00    +0.222 HD
ENDBRANCH  26  29
ENDBRANCH  25  26
ENDBRANCH  21  25
ENDBRANCH  20  21
ENDBRANCH  19  20
ENDBRANCH  18  19
ENDBRANCH   4  18
TORSDOF 10
ENDMDL
MODEL 5
REMARK VINA RESULT:      -9.4     10.833     12.752
REMARK  Name = 5180212
REMARK  10 active torsions:
REMARK  status: ('A' for Active; 'I' for Inactive)
REMARK    1  A    between atoms: N_2  and  C_7
REMARK    2  A    between atoms: C_4  and  C_18
REMARK    3  A    between atoms: C_7  and  C_9
REMARK    4  A    between atoms: C_18  and  C_19
REMARK    5  A    between atoms: C_19  and  O_20
REMARK    6  A    between atoms: O_20  and  P_21
REMARK    7  A    between atoms: P_21  and  O_23
REMARK    8  A    between atoms: P_21  and  O_25
REMARK    9  A    between atoms: O_25  and  P_26
REMARK   10  A    between atoms: P_26  and  O_29
REMARK                            x       y       z     vdW  Elec       q    Type
REMARK                         _______ _______ _______ _____ _____    ______ ____
ROOT
ATOM      1  S   UNL     1      34.054 -14.972 -21.426  0.00  0.00    -0.095 S 
ATOM      2  N   UNL     1      35.099 -17.090 -22.265  0.00  0.00    -0.297 N 
ATOM      3  C   UNL     1      34.589 -16.489 -23.394  0.00  0.00    +0.028 C 
ATOM      4  C   UNL     1      33.984 -15.317 -23.092  0.00  0.00    +0.016 C 
ATOM      5  C   UNL     1      34.905 -16.429 -21.145  0.00  0.00    +0.154 C 
ATOM      6  C   UNL     1      34.764 -17.168 -24.686  0.00  0.00    +0.047 C 
ENDROOT
BRANCH   2   7
ATOM      7  C   UNL     1      35.797 -18.353 -22.281  0.00  0.00    +0.122 C 
BRANCH   7   9
ATOM      8  N   UNL     1      35.190 -20.914 -19.560  0.00  0.00    -0.396 NA
ATOM      9  C   UNL     1      35.104 -19.327 -21.368  0.00  0.00    +0.037 C 
ATOM     10  C   UNL     1      35.783 -20.031 -20.395  0.00  0.00    +0.173 C 
ATOM     11  C   UNL     1      33.742 -19.526 -21.507  0.00  0.00    -0.018 C 
ATOM     12  C   UNL     1      33.097 -20.427 -20.666  0.00  0.00    +0.080 C 
ATOM     13  C   UNL     1      33.859 -21.089 -19.718  0.00  0.00    +0.093 C 
ATOM     14  C   UNL     1      33.202 -22.064 -18.800  0.00  0.00    +0.062 C 
ATOM     15  N   UNL     1      37.178 -19.822 -20.257  0.00  0.00    -0.333 N 
ATOM     16  H   UNL     1      37.683 -20.313 -19.569  0.00  0.00    +0.145 HD
ATOM     17  H   UNL     1      37.641 -19.187 -20.849  0.00  0.00    +0.145 HD
ENDBRANCH   7   9
ENDBRANCH   2   7
BRANCH   4  18
ATOM     18  C   UNL     1      33.298 -14.340 -24.017  0.00  0.00    +0.066 C 
BRANCH  18  19
ATOM     19  C   UNL     1      32.820 -13.092 -23.279  0.00  0.00    +0.159 C 
BRANCH  19  20
ATOM     20  O   UNL     1      33.839 -12.107 -23.245  0.00  0.00    -0.273 OA
BRANCH  20  21
ATOM     21  P   UNL     1      33.941 -11.007 -24.427  0.00  0.00    +0.484 P 
ATOM     22  O   UNL     1      34.008 -11.576 -25.813  0.00  0.00    -0.227 OA
BRANCH  21  23
ATOM     23  O   UNL     1      35.213 -10.093 -24.018  0.00  0.00    -0.302 OA
ATOM     24  H   UNL     1      35.524 -10.347 -23.135  0.00  0.00    +0.222 HD
ENDBRANCH  21  23
BRANCH  21  25
ATOM     25  O   UNL     1      32.682 -10.022 -24.175  0.00  0.00    -0.185 OA
BRANCH  25  26
ATOM     26  P   UNL     1      32.409  -8.939 -22.987  0.00  0.00    +0.511 P 
ATOM     27  O   UNL     1      31.116  -8.206 -23.273  0.00  0.00    -0.116 OA
ATOM     28  O   UNL     1      33.687  -8.179 -22.713  0.00  0.00    -0.225 OA
BRANCH  26  29
ATOM     29  O   UNL     1      32.152  -9.982 -21.757  0.00  0.00    -0.301 OA
ATOM     30  H   UNL     1      32.594  -9.655 -20.958  0.00  0.00    +0.222 HD
ENDBRANCH  26  29
ENDBRANCH  25  26
ENDBRANCH  21  25
ENDBRANCH  20  21
ENDBRANCH  19  20
ENDBRANCH  18  19
ENDBRANCH   4  18
TORSDOF 10
ENDMDL
MODEL 6
REMARK VINA RESULT:      -9.3     10.551     12.466
REMARK  Name = 5180212
REMARK  10 active torsions:
REMARK  status: ('A' for Active; 'I' for Inactive)
REMARK    1  A    between atoms: N_2  and  C_7
REMARK    2  A    between atoms: C_4  and  C_18
REMARK    3  A    between atoms: C_7  and  C_9
REMARK    4  A    between atoms: C_18  and  C_19
REMARK    5  A    between atoms: C_19  and  O_20
REMARK    6  A    between atoms: O_20  and  P_21
REMARK    7  A    between atoms: P_21  and  O_23
REMARK    8  A    between atoms: P_21  and  O_25
REMARK    9  A    between atoms: O_25  and  P_26
REMARK   10  A    between atoms: P_26  and  O_29
REMARK                            x       y       z     vdW  Elec       q    Type
REMARK                         _______ _______ _______ _____ _____    ______ ____
ROOT
ATOM      1  S   UNL     1      34.257 -14.920 -21.022  0.00  0.00    -0.095 S 
ATOM      2  N   UNL     1      35.104 -16.985 -22.163  0.00  0.00    -0.297 N 
ATOM      3  C   UNL     1      34.707 -16.163 -23.194  0.00  0.00    +0.028 C 
ATOM      4  C   UNL     1      34.219 -14.992 -22.724  0.00  0.00    +0.016 C 
ATOM      5  C   UNL     1      34.937 -16.488 -20.956  0.00  0.00    +0.154 C 
ATOM      6  C   UNL     1      34.862 -16.648 -24.573  0.00  0.00    +0.047 C 
ENDROOT
BRANCH   2   7
ATOM      7  C   UNL     1      35.665 -18.300 -22.362  0.00  0.00    +0.122 C 
BRANCH   7   9
ATOM      8  N   UNL     1      35.160 -20.844 -19.605  0.00  0.00    -0.396 NA
ATOM      9  C   UNL     1      35.008 -19.278 -21.427  0.00  0.00    +0.037 C 
ATOM     10  C   UNL     1      35.719 -19.957 -20.461  0.00  0.00    +0.173 C 
ATOM     11  C   UNL     1      33.648 -19.506 -21.539  0.00  0.00    -0.018 C 
ATOM     12  C   UNL     1      33.037 -20.411 -20.678  0.00  0.00    +0.080 C 
ATOM     13  C   UNL     1      33.830 -21.048 -19.737  0.00  0.00    +0.093 C 
ATOM     14  C   UNL     1      33.209 -22.026 -18.797  0.00  0.00    +0.062 C 
ATOM     15  N   UNL     1      37.112 -19.719 -20.351  0.00  0.00    -0.333 N 
ATOM     16  H   UNL     1      37.640 -20.192 -19.667  0.00  0.00    +0.145 HD
ATOM     17  H   UNL     1      37.551 -19.081 -20.956  0.00  0.00    +0.145 HD
ENDBRANCH   7   9
ENDBRANCH   2   7
BRANCH   4  18
ATOM     18  C   UNL     1      33.678 -13.813 -23.497  0.00  0.00    +0.066 C 
BRANCH  18  19
ATOM     19  C   UNL     1      32.356 -13.310 -22.924  0.00  0.00    +0.159 C 
BRANCH  19  20
ATOM     20  O   UNL     1      32.470 -11.961 -22.504  0.00  0.00    -0.273 OA
BRANCH  20  21
ATOM     21  P   UNL     1      31.640 -11.441 -21.216  0.00  0.00    +0.484 P 
ATOM     22  O   UNL     1      31.879 -12.221 -19.956  0.00  0.00    -0.227 OA
BRANCH  21  23
ATOM     23  O   UNL     1      30.099 -11.424 -21.709  0.00  0.00    -0.302 OA
ATOM     24  H   UNL     1      29.638 -12.202 -21.358  0.00  0.00    +0.222 HD
ENDBRANCH  21  23
BRANCH  21  25
ATOM     25  O   UNL     1      32.010  -9.870 -21.102  0.00  0.00    -0.185 OA
BRANCH  25  26
ATOM     26  P   UNL     1      32.086  -8.716 -22.252  0.00  0.00    +0.511 P 
ATOM     27  O   UNL     1      32.324  -7.375 -21.593  0.00  0.00    -0.116 OA
ATOM     28  O   UNL     1      30.940  -8.912 -23.220  0.00  0.00    -0.225 OA
BRANCH  26  29
ATOM     29  O   UNL     1      33.468  -9.187 -22.982  0.00  0.00    -0.301 OA
ATOM     30  H   UNL     1      33.858  -9.926 -22.490  0.00  0.00    +0.222 HD
ENDBRANCH  26  29
ENDBRANCH  25  26
ENDBRANCH  21  25
ENDBRANCH  20  21
ENDBRANCH  19  20
ENDBRANCH  18  19
ENDBRANCH   4  18
TORSDOF 10
ENDMDL
MODEL 7
REMARK VINA RESULT:      -9.3      1.538      2.239
REMARK  Name = 5180212
REMARK  10 active torsions:
REMARK  status: ('A' for Active; 'I' for Inactive)
REMARK    1  A    between atoms: N_2  and  C_7
REMARK    2  A    between atoms: C_4  and  C_18
REMARK    3  A    between atoms: C_7  and  C_9
REMARK    4  A    between atoms: C_18  and  C_19
REMARK    5  A    between atoms: C_19  and  O_20
REMARK    6  A    between atoms: O_20  and  P_21
REMARK    7  A    between atoms: P_21  and  O_23
REMARK    8  A    between atoms: P_21  and  O_25
REMARK    9  A    between atoms: O_25  and  P_26
REMARK   10  A    between atoms: P_26  and  O_29
REMARK                            x       y       z     vdW  Elec       q    Type
REMARK                         _______ _______ _______ _____ _____    ______ ____
ROOT
ATOM      1  S   UNL     1      36.887 -21.884 -16.523  0.00  0.00    -0.095 S 
ATOM      2  N   UNL     1      35.559 -22.090 -18.639  0.00  0.00    -0.297 N 
ATOM      3  C   UNL     1      34.728 -22.595 -17.662  0.00  0.00    +0.028 C 
ATOM      4  C   UNL     1      35.320 -22.548 -16.446  0.00  0.00    +0.016 C 
ATOM      5  C   UNL     1      36.731 -21.673 -18.213  0.00  0.00    +0.154 C 
ATOM      6  C   UNL     1      33.399 -23.082 -18.059  0.00  0.00    +0.047 C 
ENDROOT
BRANCH   2   7
ATOM      7  C   UNL     1      35.195 -22.014 -20.033  0.00  0.00    +0.122 C 
BRANCH   7   9
ATOM      8  N   UNL     1      33.766 -18.635 -20.966  0.00  0.00    -0.396 NA
ATOM      9  C   UNL     1      35.099 -20.573 -20.453  0.00  0.00    +0.037 C 
ATOM     10  C   UNL     1      33.887 -19.928 -20.589  0.00  0.00    +0.173 C 
ATOM     11  C   UNL     1      36.261 -19.870 -20.714  0.00  0.00    -0.018 C 
ATOM     12  C   UNL     1      36.178 -18.537 -21.105  0.00  0.00    +0.080 C 
ATOM     13  C   UNL     1      34.918 -17.972 -21.214  0.00  0.00    +0.093 C 
ATOM     14  C   UNL     1      34.789 -16.546 -21.633  0.00  0.00    +0.062 C 
ATOM     15  N   UNL     1      32.700 -20.654 -20.320  0.00  0.00    -0.333 N 
ATOM     16  H   UNL     1      31.823 -20.214 -20.410  0.00  0.00    +0.145 HD
ATOM     17  H   UNL     1      32.751 -21.597 -20.044  0.00  0.00    +0.145 HD
ENDBRANCH   7   9
ENDBRANCH   2   7
BRANCH   4  18
ATOM     18  C   UNL     1      34.775 -22.993 -15.110  0.00  0.00    +0.066 C 
BRANCH  18  19
ATOM     19  C   UNL     1      34.645 -24.510 -15.021  0.00  0.00    +0.159 C 
BRANCH  19  20
ATOM     20  O   UNL     1      35.867 -25.141 -15.366  0.00  0.00    -0.273 OA
BRANCH  20  21
ATOM     21  P   UNL     1      36.907 -25.580 -14.208  0.00  0.00    +0.484 P 
ATOM     22  O   UNL     1      38.291 -25.021 -14.359  0.00  0.00    -0.227 OA
BRANCH  21  23
ATOM     23  O   UNL     1      36.837 -27.196 -14.194  0.00  0.00    -0.302 OA
ATOM     24  H   UNL     1      36.495 -27.513 -15.044  0.00  0.00    +0.222 HD
ENDBRANCH  21  23
BRANCH  21  25
ATOM     25  O   UNL     1      36.174 -25.166 -12.826  0.00  0.00    -0.185 OA
BRANCH  25  26
ATOM     26  P   UNL     1      36.680 -24.210 -11.605  0.00  0.00    +0.511 P 
ATOM     27  O   UNL     1      36.496 -22.762 -12.002  0.00  0.00    -0.116 OA
ATOM     28  O   UNL     1      38.017 -24.715 -11.110  0.00  0.00    -0.225 OA
BRANCH  26  29
ATOM     29  O   UNL     1      35.540 -24.595 -10.502  0.00  0.00    -0.301 OA
ATOM     30  H   UNL     1      35.940 -24.619  -9.618  0.00  0.00    +0.222 HD
ENDBRANCH  26  29
ENDBRANCH  25  26
ENDBRANCH  21  25
ENDBRANCH  20  21
ENDBRANCH  19  20
ENDBRANCH  18  19
ENDBRANCH   4  18
TORSDOF 10
ENDMDL
MODEL 8
REMARK VINA RESULT:      -9.1      2.526      4.317
REMARK  Name = 5180212
REMARK  10 active torsions:
REMARK  status: ('A' for Active; 'I' for Inactive)
REMARK    1  A    between atoms: N_2  and  C_7
REMARK    2  A    between atoms: C_4  and  C_18
REMARK    3  A    between atoms: C_7  and  C_9
REMARK    4  A    between atoms: C_18  and  C_19
REMARK    5  A    between atoms: C_19  and  O_20
REMARK    6  A    between atoms: O_20  and  P_21
REMARK    7  A    between atoms: P_21  and  O_23
REMARK    8  A    between atoms: P_21  and  O_25
REMARK    9  A    between atoms: O_25  and  P_26
REMARK   10  A    between atoms: P_26  and  O_29
REMARK                            x       y       z     vdW  Elec       q    Type
REMARK                         _______ _______ _______ _____ _____    ______ ____
ROOT
ATOM      1  S   UNL     1      33.032 -20.552 -20.217  0.00  0.00    -0.095 S 
ATOM      2  N   UNL     1      35.094 -19.361 -21.002  0.00  0.00    -0.297 N 
ATOM      3  C   UNL     1      35.570 -20.402 -20.235  0.00  0.00    +0.028 C 
ATOM      4  C   UNL     1      34.555 -21.144 -19.736  0.00  0.00    +0.016 C 
ATOM      5  C   UNL     1      33.784 -19.292 -21.097  0.00  0.00    +0.154 C 
ATOM      6  C   UNL     1      37.025 -20.546 -20.080  0.00  0.00    +0.047 C 
ENDROOT
BRANCH   2   7
ATOM      7  C   UNL     1      35.947 -18.403 -21.662  0.00  0.00    +0.122 C 
BRANCH   7   9
ATOM      8  N   UNL     1      34.193 -15.531 -23.396  0.00  0.00    -0.396 NA
ATOM      9  C   UNL     1      35.189 -17.124 -21.890  0.00  0.00    +0.037 C 
ATOM     10  C   UNL     1      34.872 -16.676 -23.155  0.00  0.00    +0.173 C 
ATOM     11  C   UNL     1      34.798 -16.369 -20.798  0.00  0.00    -0.018 C 
ATOM     12  C   UNL     1      34.100 -15.184 -21.005  0.00  0.00    +0.080 C 
ATOM     13  C   UNL     1      33.824 -14.813 -22.310  0.00  0.00    +0.093 C 
ATOM     14  C   UNL     1      33.078 -13.548 -22.571  0.00  0.00    +0.062 C 
ATOM     15  N   UNL     1      35.274 -17.453 -24.270  0.00  0.00    -0.333 N 
ATOM     16  H   UNL     1      35.058 -17.153 -25.183  0.00  0.00    +0.145 HD
ATOM     17  H   UNL     1      35.770 -18.292 -24.132  0.00  0.00    +0.145 HD
ENDBRANCH   7   9
ENDBRANCH   2   7
BRANCH   4  18
ATOM     18  C   UNL     1      34.622 -22.367 -18.852  0.00  0.00    +0.066 C 
BRANCH  18  19
ATOM     19  C   UNL     1      35.437 -22.116 -17.587  0.00  0.00    +0.159 C 
BRANCH  19  20
ATOM     20  O   UNL     1      35.371 -23.232 -16.716  0.00  0.00    -0.273 OA
BRANCH  20  21
ATOM     21  P   UNL     1      36.424 -23.370 -15.496  0.00  0.00    +0.484 P 
ATOM     22  O   UNL     1      37.427 -22.258 -15.400  0.00  0.00    -0.227 OA
BRANCH  21  23
ATOM     23  O   UNL     1      37.073 -24.839 -15.688  0.00  0.00    -0.302 OA
ATOM     24  H   UNL     1      36.516 -25.500 -15.247  0.00  0.00    +0.222 HD
ENDBRANCH  21  23
BRANCH  21  25
ATOM     25  O   UNL     1      35.500 -23.543 -14.178  0.00  0.00    -0.185 OA
BRANCH  25  26
ATOM     26  P   UNL     1      35.836 -24.222 -12.734  0.00  0.00    +0.511 P 
ATOM     27  O   UNL     1      36.367 -23.158 -11.798  0.00  0.00    -0.116 OA
ATOM     28  O   UNL     1      36.600 -25.507 -12.962  0.00  0.00    -0.225 OA
BRANCH  26  29
ATOM     29  O   UNL     1      34.313 -24.598 -12.279  0.00  0.00    -0.301 OA
ATOM     30  H   UNL     1      33.758 -23.803 -12.320  0.00  0.00    +0.222 HD
ENDBRANCH  26  29
ENDBRANCH  25  26
ENDBRANCH  21  25
ENDBRANCH  20  21
ENDBRANCH  19  20
ENDBRANCH  18  19
ENDBRANCH   4  18
TORSDOF 10
ENDMDL
MODEL 9
REMARK VINA RESULT:      -8.9      3.360      5.274
REMARK  Name = 5180212
REMARK  10 active torsions:
REMARK  status: ('A' for Active; 'I' for Inactive)
REMARK    1  A    between atoms: N_2  and  C_7
REMARK    2  A    between atoms: C_4  and  C_18
REMARK    3  A    between atoms: C_7  and  C_9
REMARK    4  A    between atoms: C_18  and  C_19
REMARK    5  A    between atoms: C_19  and  O_20
REMARK    6  A    between atoms: O_20  and  P_21
REMARK    7  A    between atoms: P_21  and  O_23
REMARK    8  A    between atoms: P_21  and  O_25
REMARK    9  A    between atoms: O_25  and  P_26
REMARK   10  A    between atoms: P_26  and  O_29
REMARK                            x       y       z     vdW  Elec       q    Type
REMARK                         _______ _______ _______ _____ _____    ______ ____
ROOT
ATOM      1  S   UNL     1      33.211 -20.709 -20.216  0.00  0.00    -0.095 S 
ATOM      2  N   UNL     1      35.044 -19.284 -21.160  0.00  0.00    -0.297 N 
ATOM      3  C   UNL     1      35.694 -20.179 -20.339  0.00  0.00    +0.028 C 
ATOM      4  C   UNL     1      34.819 -21.026 -19.750  0.00  0.00    +0.016 C 
ATOM      5  C   UNL     1      33.737 -19.422 -21.211  0.00  0.00    +0.154 C 
ATOM      6  C   UNL     1      37.157 -20.088 -20.228  0.00  0.00    +0.047 C 
ENDROOT
BRANCH   2   7
ATOM      7  C   UNL     1      35.722 -18.261 -21.919  0.00  0.00    +0.122 C 
BRANCH   7   9
ATOM      8  N   UNL     1      33.591 -15.364 -23.101  0.00  0.00    -0.396 NA
ATOM      9  C   UNL     1      34.900 -17.001 -21.917  0.00  0.00    +0.037 C 
ATOM     10  C   UNL     1      34.334 -16.494 -23.067  0.00  0.00    +0.173 C 
ATOM     11  C   UNL     1      34.707 -16.326 -20.725  0.00  0.00    -0.018 C 
ATOM     12  C   UNL     1      33.950 -15.159 -20.719  0.00  0.00    +0.080 C 
ATOM     13  C   UNL     1      33.418 -14.724 -21.922  0.00  0.00    +0.093 C 
ATOM     14  C   UNL     1      32.602 -13.476 -21.954  0.00  0.00    +0.062 C 
ATOM     15  N   UNL     1      34.535 -17.190 -24.285  0.00  0.00    -0.333 N 
ATOM     16  H   UNL     1      34.139 -16.847 -25.119  0.00  0.00    +0.145 HD
ATOM     17  H   UNL     1      35.070 -18.015 -24.298  0.00  0.00    +0.145 HD
ENDBRANCH   7   9
ENDBRANCH   2   7
BRANCH   4  18
ATOM     18  C   UNL     1      35.096 -22.153 -18.785  0.00  0.00    +0.066 C 
BRANCH  18  19
ATOM     19  C   UNL     1      33.819 -22.675 -18.132  0.00  0.00    +0.159 C 
BRANCH  19  20
ATOM     20  O   UNL     1      34.111 -23.721 -17.220  0.00  0.00    -0.273 OA
BRANCH  20  21
ATOM     21  P   UNL     1      34.268 -23.399 -15.642  0.00  0.00    +0.484 P 
ATOM     22  O   UNL     1      35.302 -22.363 -15.310  0.00  0.00    -0.227 OA
BRANCH  21  23
ATOM     23  O   UNL     1      34.525 -24.843 -14.960  0.00  0.00    -0.302 OA
ATOM     24  H   UNL     1      33.675 -25.268 -14.771  0.00  0.00    +0.222 HD
ENDBRANCH  21  23
BRANCH  21  25
ATOM     25  O   UNL     1      32.772 -23.021 -15.155  0.00  0.00    -0.185 OA
BRANCH  25  26
ATOM     26  P   UNL     1      31.841 -23.683 -13.990  0.00  0.00    +0.511 P 
ATOM     27  O   UNL     1      32.052 -25.181 -13.980  0.00  0.00    -0.116 OA
ATOM     28  O   UNL     1      30.450 -23.096 -14.082  0.00  0.00    -0.225 OA
BRANCH  26  29
ATOM     29  O   UNL     1      32.587 -23.045 -12.686  0.00  0.00    -0.301 OA
ATOM     30  H   UNL     1      33.137 -23.724 -12.264  0.00  0.00    +0.222 HD
ENDBRANCH  26  29
ENDBRANCH  25  26
ENDBRANCH  21  25
ENDBRANCH  20  21
ENDBRANCH  19  20
ENDBRANCH  18  19
ENDBRANCH   4  18
TORSDOF 10
ENDMDL
