MODEL 1
REMARK VINA RESULT:     -13.0      0.000      0.000
REMARK  Name = 24767976
REMARK  5 active torsions:
REMARK  status: ('A' for Active; 'I' for Inactive)
REMARK    1  A    between atoms: C_1  and  N_9
REMARK    2  A    between atoms: C_2  and  O_19
REMARK    3  A    between atoms: C_10  and  C_14
REMARK    4  A    between atoms: O_19  and  C_27
REMARK    5  A    between atoms: C_31  and  C_33
REMARK                            x       y       z     vdW  Elec       q    Type
REMARK                         _______ _______ _______ _____ _____    ______ ____
ROOT
ATOM      1  C   UNL     1      35.334 -21.618 -18.836  0.00  0.00    +0.050 C 
ATOM      2  C   UNL     1      35.600 -20.029 -20.636  0.00  0.00    +0.148 C 
ATOM      3  C   UNL     1      33.964 -21.673 -19.087  0.00  0.00    -0.008 C 
ATOM      4  C   UNL     1      36.153 -20.795 -19.610  0.00  0.00    +0.052 C 
ATOM      5  C   UNL     1      33.411 -20.907 -20.113  0.00  0.00    +0.000 C 
ATOM      6  C   UNL     1      34.229 -20.084 -20.888  0.00  0.00    +0.037 C 
ATOM      7  C   UNL     1      33.063 -22.545 -18.272  0.00  0.00    +0.032 C 
ENDROOT
BRANCH   1   9
ATOM      8  O   UNL     1      37.347 -20.857 -16.748  0.00  0.00    -0.268 OA
ATOM      9  N   UNL     1      35.906 -22.379 -17.813  0.00  0.00    -0.279 N 
ATOM     10  C   UNL     1      36.847 -21.971 -16.860  0.00  0.00    +0.265 C 
ATOM     11  H   UNL     1      35.612 -23.317 -17.756  0.00  0.00    +0.155 HD
BRANCH  10  14
ATOM     12  N   UNL     1      36.508 -23.617 -14.963  0.00  0.00    -0.206 N 
ATOM     13  N   UNL     1      37.149 -24.544 -14.231  0.00  0.00    -0.182 NA
ATOM     14  C   UNL     1      37.290 -23.027 -15.911  0.00  0.00    +0.124 C 
ATOM     15  C   UNL     1      38.529 -23.607 -15.791  0.00  0.00    +0.037 C 
ATOM     16  C   UNL     1      38.383 -24.534 -14.741  0.00  0.00    +0.078 C 
ATOM     17  C   UNL     1      35.115 -23.343 -14.693  0.00  0.00    +0.140 C 
ATOM     18  C   UNL     1      39.409 -25.436 -14.192  0.00  0.00    +0.054 C 
ENDBRANCH  10  14
ENDBRANCH   1   9
BRANCH   2  19
ATOM     19  O   UNL     1      36.417 -19.208 -21.409  0.00  0.00    -0.435 OA
BRANCH  19  27
ATOM     20  N   UNL     1      33.565 -15.320 -23.691  0.00  0.00    -0.373 NA
ATOM     21  N   UNL     1      34.449 -16.375 -21.936  0.00  0.00    -0.173 N 
ATOM     22  N   UNL     1      35.141 -17.294 -21.206  0.00  0.00    -0.138 NA
ATOM     23  C   UNL     1      33.234 -14.666 -22.532  0.00  0.00    +0.187 C 
ATOM     24  C   UNL     1      33.767 -15.298 -21.435  0.00  0.00    +0.193 C 
ATOM     25  C   UNL     1      34.298 -16.348 -23.313  0.00  0.00    +0.204 C 
ATOM     26  C   UNL     1      34.924 -17.379 -24.052  0.00  0.00    +0.054 C 
ATOM     27  C   UNL     1      35.688 -18.207 -21.942  0.00  0.00    +0.245 C 
ATOM     28  C   UNL     1      35.626 -18.324 -23.414  0.00  0.00    +0.063 C 
ATOM     29  O   UNL     1      32.307 -12.969 -20.226  0.00  0.00    -0.275 OA
ATOM     30  N   UNL     1      32.464 -13.528 -22.514  0.00  0.00    -0.261 N 
ATOM     31  C   UNL     1      32.051 -12.761 -21.405  0.00  0.00    +0.227 C 
ATOM     32  H   UNL     1      32.161 -13.204 -23.392  0.00  0.00    +0.157 HD
BRANCH  31  33
ATOM     33  C   UNL     1      31.214 -11.569 -21.751  0.00  0.00    +0.077 C 
ATOM     34  C   UNL     1      31.893 -10.285 -22.129  0.00  0.00    +0.010 C 
ATOM     35  C   UNL     1      31.185 -10.400 -20.811  0.00  0.00    +0.010 C 
ENDBRANCH  31  33
ENDBRANCH  19  27
ENDBRANCH   2  19
TORSDOF 5
ENDMDL
MODEL 2
REMARK VINA RESULT:     -12.0      2.388     10.396
REMARK  Name = 24767976
REMARK  5 active torsions:
REMARK  status: ('A' for Active; 'I' for Inactive)
REMARK    1  A    between atoms: C_1  and  N_9
REMARK    2  A    between atoms: C_2  and  O_19
REMARK    3  A    between atoms: C_10  and  C_14
REMARK    4  A    between atoms: O_19  and  C_27
REMARK    5  A    between atoms: C_31  and  C_33
REMARK                            x       y       z     vdW  Elec       q    Type
REMARK                         _______ _______ _______ _____ _____    ______ ____
ROOT
ATOM      1  C   UNL     1      34.318 -15.967 -23.139  0.00  0.00    +0.050 C 
ATOM      2  C   UNL     1      35.609 -17.974 -22.768  0.00  0.00    +0.148 C 
ATOM      3  C   UNL     1      34.139 -16.328 -24.473  0.00  0.00    -0.008 C 
ATOM      4  C   UNL     1      35.054 -16.790 -22.286  0.00  0.00    +0.052 C 
ATOM      5  C   UNL     1      34.694 -17.514 -24.956  0.00  0.00    +0.000 C 
ATOM      6  C   UNL     1      35.429 -18.337 -24.103  0.00  0.00    +0.037 C 
ATOM      7  C   UNL     1      33.356 -15.466 -25.410  0.00  0.00    +0.032 C 
ENDROOT
BRANCH   1   9
ATOM      8  O   UNL     1      31.988 -15.539 -21.302  0.00  0.00    -0.268 OA
ATOM      9  N   UNL     1      33.769 -14.784 -22.637  0.00  0.00    -0.279 N 
ATOM     10  C   UNL     1      32.674 -14.640 -21.778  0.00  0.00    +0.265 C 
ATOM     11  H   UNL     1      34.206 -13.949 -22.924  0.00  0.00    +0.155 HD
BRANCH  10  14
ATOM     12  N   UNL     1      32.316 -12.188 -22.312  0.00  0.00    -0.206 N 
ATOM     13  N   UNL     1      31.944 -11.022 -21.757  0.00  0.00    -0.182 NA
ATOM     14  C   UNL     1      32.308 -13.239 -21.441  0.00  0.00    +0.124 C 
ATOM     15  C   UNL     1      31.902 -12.724 -20.235  0.00  0.00    +0.037 C 
ATOM     16  C   UNL     1      31.692 -11.356 -20.489  0.00  0.00    +0.078 C 
ATOM     17  C   UNL     1      32.675 -12.223 -23.711  0.00  0.00    +0.140 C 
ATOM     18  C   UNL     1      31.245 -10.325 -19.537  0.00  0.00    +0.054 C 
ENDBRANCH  10  14
ENDBRANCH   1   9
BRANCH   2  19
ATOM     19  O   UNL     1      36.343 -18.797 -21.917  0.00  0.00    -0.435 OA
BRANCH  19  27
ATOM     20  N   UNL     1      32.896 -21.723 -19.087  0.00  0.00    -0.373 NA
ATOM     21  N   UNL     1      34.932 -20.942 -19.554  0.00  0.00    -0.173 N 
ATOM     22  N   UNL     1      35.932 -20.252 -20.172  0.00  0.00    -0.138 NA
ATOM     23  C   UNL     1      33.812 -22.233 -18.202  0.00  0.00    +0.187 C 
ATOM     24  C   UNL     1      35.076 -21.767 -18.470  0.00  0.00    +0.193 C 
ATOM     25  C   UNL     1      33.590 -20.946 -19.895  0.00  0.00    +0.204 C 
ATOM     26  C   UNL     1      33.201 -20.155 -21.001  0.00  0.00    +0.054 C 
ATOM     27  C   UNL     1      35.509 -19.550 -21.173  0.00  0.00    +0.245 C 
ATOM     28  C   UNL     1      34.119 -19.445 -21.667  0.00  0.00    +0.063 C 
ATOM     29  O   UNL     1      35.506 -23.550 -16.092  0.00  0.00    -0.275 OA
ATOM     30  N   UNL     1      33.467 -23.099 -17.192  0.00  0.00    -0.261 N 
ATOM     31  C   UNL     1      34.298 -23.695 -16.221  0.00  0.00    +0.227 C 
ATOM     32  H   UNL     1      32.513 -23.334 -17.139  0.00  0.00    +0.157 HD
BRANCH  31  33
ATOM     33  C   UNL     1      33.584 -24.594 -15.259  0.00  0.00    +0.077 C 
ATOM     34  C   UNL     1      32.573 -24.002 -14.320  0.00  0.00    +0.010 C 
ATOM     35  C   UNL     1      33.892 -24.488 -13.795  0.00  0.00    +0.010 C 
ENDBRANCH  31  33
ENDBRANCH  19  27
ENDBRANCH   2  19
TORSDOF 5
ENDMDL
MODEL 3
REMARK VINA RESULT:     -11.9      3.379     12.396
REMARK  Name = 24767976
REMARK  5 active torsions:
REMARK  status: ('A' for Active; 'I' for Inactive)
REMARK    1  A    between atoms: C_1  and  N_9
REMARK    2  A    between atoms: C_2  and  O_19
REMARK    3  A    between atoms: C_10  and  C_14
REMARK    4  A    between atoms: O_19  and  C_27
REMARK    5  A    between atoms: C_31  and  C_33
REMARK                            x       y       z     vdW  Elec       q    Type
REMARK                         _______ _______ _______ _____ _____    ______ ____
ROOT
ATOM      1  C   UNL     1      32.337 -10.971 -22.756  0.00  0.00    +0.050 C 
ATOM      2  C   UNL     1      33.443 -12.934 -23.627  0.00  0.00    +0.148 C 
ATOM      3  C   UNL     1      31.775 -11.739 -21.737  0.00  0.00    -0.008 C 
ATOM      4  C   UNL     1      33.171 -11.568 -23.701  0.00  0.00    +0.052 C 
ATOM      5  C   UNL     1      32.047 -13.106 -21.662  0.00  0.00    +0.000 C 
ATOM      6  C   UNL     1      32.881 -13.703 -22.608  0.00  0.00    +0.037 C 
ATOM      7  C   UNL     1      30.878 -11.126 -20.711  0.00  0.00    +0.032 C 
ENDROOT
BRANCH   1   9
ATOM      8  O   UNL     1      34.191  -8.679 -23.303  0.00  0.00    -0.268 OA
ATOM      9  N   UNL     1      32.078  -9.601 -22.846  0.00  0.00    -0.279 N 
ATOM     10  C   UNL     1      32.986  -8.568 -23.105  0.00  0.00    +0.265 C 
ATOM     11  H   UNL     1      31.141  -9.329 -22.710  0.00  0.00    +0.155 HD
BRANCH  10  14
ATOM     12  N   UNL     1      32.062  -6.481 -22.003  0.00  0.00    -0.206 N 
ATOM     13  N   UNL     1      31.559  -5.266 -22.279  0.00  0.00    -0.182 NA
ATOM     14  C   UNL     1      32.408  -7.198 -23.111  0.00  0.00    +0.124 C 
ATOM     15  C   UNL     1      32.109  -6.397 -24.186  0.00  0.00    +0.037 C 
ATOM     16  C   UNL     1      31.590  -5.220 -23.614  0.00  0.00    +0.078 C 
ATOM     17  C   UNL     1      32.186  -6.898 -20.626  0.00  0.00    +0.140 C 
ATOM     18  C   UNL     1      31.109  -4.018 -24.316  0.00  0.00    +0.054 C 
ENDBRANCH  10  14
ENDBRANCH   1   9
BRANCH   2  19
ATOM     19  O   UNL     1      34.275 -13.531 -24.571  0.00  0.00    -0.435 OA
BRANCH  19  27
ATOM     20  N   UNL     1      34.528 -18.805 -23.811  0.00  0.00    -0.373 NA
ATOM     21  N   UNL     1      34.877 -16.686 -23.208  0.00  0.00    -0.173 N 
ATOM     22  N   UNL     1      34.888 -15.324 -23.252  0.00  0.00    -0.138 NA
ATOM     23  C   UNL     1      35.139 -18.758 -22.584  0.00  0.00    +0.187 C 
ATOM     24  C   UNL     1      35.366 -17.462 -22.190  0.00  0.00    +0.193 C 
ATOM     25  C   UNL     1      34.378 -17.546 -24.172  0.00  0.00    +0.204 C 
ATOM     26  C   UNL     1      33.815 -16.962 -25.331  0.00  0.00    +0.054 C 
ATOM     27  C   UNL     1      34.360 -14.856 -24.336  0.00  0.00    +0.245 C 
ATOM     28  C   UNL     1      33.784 -15.629 -25.456  0.00  0.00    +0.063 C 
ATOM     29  O   UNL     1      36.467 -19.063 -19.900  0.00  0.00    -0.275 OA
ATOM     30  N   UNL     1      35.467 -19.888 -21.873  0.00  0.00    -0.261 N 
ATOM     31  C   UNL     1      36.092 -19.985 -20.613  0.00  0.00    +0.227 C 
ATOM     32  H   UNL     1      35.234 -20.743 -22.300  0.00  0.00    +0.157 HD
BRANCH  31  33
ATOM     33  C   UNL     1      36.298 -21.387 -20.128  0.00  0.00    +0.077 C 
ATOM     34  C   UNL     1      35.206 -22.054 -19.343  0.00  0.00    +0.010 C 
ATOM     35  C   UNL     1      36.472 -21.631 -18.658  0.00  0.00    +0.010 C 
ENDBRANCH  31  33
ENDBRANCH  19  27
ENDBRANCH   2  19
TORSDOF 5
ENDMDL
MODEL 4
REMARK VINA RESULT:     -11.8      2.436     10.696
REMARK  Name = 24767976
REMARK  5 active torsions:
REMARK  status: ('A' for Active; 'I' for Inactive)
REMARK    1  A    between atoms: C_1  and  N_9
REMARK    2  A    between atoms: C_2  and  O_19
REMARK    3  A    between atoms: C_10  and  C_14
REMARK    4  A    between atoms: O_19  and  C_27
REMARK    5  A    between atoms: C_31  and  C_33
REMARK                            x       y       z     vdW  Elec       q    Type
REMARK                         _______ _______ _______ _____ _____    ______ ____
ROOT
ATOM      1  C   UNL     1      34.521 -16.065 -23.782  0.00  0.00    +0.050 C 
ATOM      2  C   UNL     1      35.587 -18.047 -22.905  0.00  0.00    +0.148 C 
ATOM      3  C   UNL     1      34.142 -16.772 -24.922  0.00  0.00    -0.008 C 
ATOM      4  C   UNL     1      35.244 -16.702 -22.773  0.00  0.00    +0.052 C 
ATOM      5  C   UNL     1      34.485 -18.118 -25.054  0.00  0.00    +0.000 C 
ATOM      6  C   UNL     1      35.208 -18.755 -24.045  0.00  0.00    +0.037 C 
ATOM      7  C   UNL     1      33.368 -16.115 -26.019  0.00  0.00    +0.032 C 
ENDROOT
BRANCH   1   9
ATOM      8  O   UNL     1      32.251 -14.786 -22.297  0.00  0.00    -0.268 OA
ATOM      9  N   UNL     1      34.186 -14.717 -23.631  0.00  0.00    -0.279 N 
ATOM     10  C   UNL     1      33.109 -14.171 -22.923  0.00  0.00    +0.265 C 
ATOM     11  H   UNL     1      34.780 -14.071 -24.079  0.00  0.00    +0.155 HD
BRANCH  10  14
ATOM     12  N   UNL     1      32.285 -11.920 -22.100  0.00  0.00    -0.206 N 
ATOM     13  N   UNL     1      32.349 -10.603 -22.362  0.00  0.00    -0.182 NA
ATOM     14  C   UNL     1      33.000 -12.689 -22.971  0.00  0.00    +0.124 C 
ATOM     15  C   UNL     1      33.570 -11.816 -23.864  0.00  0.00    +0.037 C 
ATOM     16  C   UNL     1      33.135 -10.546 -23.440  0.00  0.00    +0.078 C 
ATOM     17  C   UNL     1      31.504 -12.380 -20.976  0.00  0.00    +0.140 C 
ATOM     18  C   UNL     1      33.453  -9.241 -24.045  0.00  0.00    +0.054 C 
ENDBRANCH  10  14
ENDBRANCH   1   9
BRANCH   2  19
ATOM     19  O   UNL     1      36.308 -18.684 -21.898  0.00  0.00    -0.435 OA
BRANCH  19  27
ATOM     20  N   UNL     1      32.901 -21.669 -19.082  0.00  0.00    -0.373 NA
ATOM     21  N   UNL     1      34.931 -20.882 -19.565  0.00  0.00    -0.173 N 
ATOM     22  N   UNL     1      35.922 -20.180 -20.183  0.00  0.00    -0.138 NA
ATOM     23  C   UNL     1      33.830 -22.203 -18.226  0.00  0.00    +0.187 C 
ATOM     24  C   UNL     1      35.090 -21.734 -18.503  0.00  0.00    +0.193 C 
ATOM     25  C   UNL     1      33.583 -20.875 -19.882  0.00  0.00    +0.204 C 
ATOM     26  C   UNL     1      33.177 -20.056 -20.962  0.00  0.00    +0.054 C 
ATOM     27  C   UNL     1      35.484 -19.453 -21.159  0.00  0.00    +0.245 C 
ATOM     28  C   UNL     1      34.087 -19.332 -21.626  0.00  0.00    +0.063 C 
ATOM     29  O   UNL     1      35.556 -23.575 -16.177  0.00  0.00    -0.275 OA
ATOM     30  N   UNL     1      33.499 -23.093 -17.231  0.00  0.00    -0.261 N 
ATOM     31  C   UNL     1      34.345 -23.714 -16.289  0.00  0.00    +0.227 C 
ATOM     32  H   UNL     1      32.546 -23.326 -17.167  0.00  0.00    +0.157 HD
BRANCH  31  33
ATOM     33  C   UNL     1      33.645 -24.634 -15.338  0.00  0.00    +0.077 C 
ATOM     34  C   UNL     1      32.484 -24.114 -14.541  0.00  0.00    +0.010 C 
ATOM     35  C   UNL     1      33.789 -24.405 -13.862  0.00  0.00    +0.010 C 
ENDBRANCH  31  33
ENDBRANCH  19  27
ENDBRANCH   2  19
TORSDOF 5
ENDMDL
MODEL 5
REMARK VINA RESULT:     -11.7      1.860     10.952
REMARK  Name = 24767976
REMARK  5 active torsions:
REMARK  status: ('A' for Active; 'I' for Inactive)
REMARK    1  A    between atoms: C_1  and  N_9
REMARK    2  A    between atoms: C_2  and  O_19
REMARK    3  A    between atoms: C_10  and  C_14
REMARK    4  A    between atoms: O_19  and  C_27
REMARK    5  A    between atoms: C_31  and  C_33
REMARK                            x       y       z     vdW  Elec       q    Type
REMARK                         _______ _______ _______ _____ _____    ______ ____
ROOT
ATOM      1  C   UNL     1      34.326 -19.039 -21.043  0.00  0.00    +0.050 C 
ATOM      2  C   UNL     1      33.694 -21.126 -20.006  0.00  0.00    +0.148 C 
ATOM      3  C   UNL     1      35.650 -19.472 -21.109  0.00  0.00    -0.008 C 
ATOM      4  C   UNL     1      33.348 -19.866 -20.491  0.00  0.00    +0.052 C 
ATOM      5  C   UNL     1      35.996 -20.733 -20.623  0.00  0.00    +0.000 C 
ATOM      6  C   UNL     1      35.018 -21.560 -20.071  0.00  0.00    +0.037 C 
ATOM      7  C   UNL     1      36.719 -18.607 -21.694  0.00  0.00    +0.032 C 
ENDROOT
BRANCH   1   9
ATOM      8  O   UNL     1      35.049 -16.300 -20.057  0.00  0.00    -0.268 OA
ATOM      9  N   UNL     1      33.960 -17.779 -21.525  0.00  0.00    -0.279 N 
ATOM     10  C   UNL     1      34.327 -16.525 -21.024  0.00  0.00    +0.265 C 
ATOM     11  H   UNL     1      33.370 -17.774 -22.314  0.00  0.00    +0.155 HD
BRANCH  10  14
ATOM     12  N   UNL     1      33.882 -15.105 -23.075  0.00  0.00    -0.206 N 
ATOM     13  N   UNL     1      33.263 -13.982 -23.478  0.00  0.00    -0.182 NA
ATOM     14  C   UNL     1      33.749 -15.359 -21.741  0.00  0.00    +0.124 C 
ATOM     15  C   UNL     1      32.992 -14.330 -21.237  0.00  0.00    +0.037 C 
ATOM     16  C   UNL     1      32.721 -13.513 -22.351  0.00  0.00    +0.078 C 
ATOM     17  C   UNL     1      34.597 -15.903 -24.043  0.00  0.00    +0.140 C 
ATOM     18  C   UNL     1      31.940 -12.265 -22.379  0.00  0.00    +0.054 C 
ENDBRANCH  10  14
ENDBRANCH   1   9
BRANCH   2  19
ATOM     19  O   UNL     1      32.718 -21.952 -19.454  0.00  0.00    -0.435 OA
BRANCH  19  27
ATOM     20  N   UNL     1      34.175 -23.816 -14.673  0.00  0.00    -0.373 NA
ATOM     21  N   UNL     1      34.594 -23.056 -16.728  0.00  0.00    -0.173 N 
ATOM     22  N   UNL     1      34.387 -22.573 -17.984  0.00  0.00    -0.138 NA
ATOM     23  C   UNL     1      35.528 -23.785 -14.897  0.00  0.00    +0.187 C 
ATOM     24  C   UNL     1      35.812 -23.320 -16.158  0.00  0.00    +0.193 C 
ATOM     25  C   UNL     1      33.628 -23.373 -15.787  0.00  0.00    +0.204 C 
ATOM     26  C   UNL     1      32.277 -23.180 -16.159  0.00  0.00    +0.054 C 
ATOM     27  C   UNL     1      33.132 -22.419 -18.259  0.00  0.00    +0.245 C 
ATOM     28  C   UNL     1      31.982 -22.708 -17.376  0.00  0.00    +0.063 C 
ATOM     29  O   UNL     1      38.534 -23.861 -15.010  0.00  0.00    -0.275 OA
ATOM     30  N   UNL     1      36.447 -24.178 -13.954  0.00  0.00    -0.261 N 
ATOM     31  C   UNL     1      37.854 -24.198 -14.050  0.00  0.00    +0.227 C 
ATOM     32  H   UNL     1      36.074 -24.487 -13.098  0.00  0.00    +0.157 HD
BRANCH  31  33
ATOM     33  C   UNL     1      38.553 -24.688 -12.820  0.00  0.00    +0.077 C 
ATOM     34  C   UNL     1      38.131 -25.994 -12.213  0.00  0.00    +0.010 C 
ATOM     35  C   UNL     1      37.811 -24.704 -11.517  0.00  0.00    +0.010 C 
ENDBRANCH  31  33
ENDBRANCH  19  27
ENDBRANCH   2  19
TORSDOF 5
ENDMDL
MODEL 6
REMARK VINA RESULT:     -11.6      2.775      4.006
REMARK  Name = 24767976
REMARK  5 active torsions:
REMARK  status: ('A' for Active; 'I' for Inactive)
REMARK    1  A    between atoms: C_1  and  N_9
REMARK    2  A    between atoms: C_2  and  O_19
REMARK    3  A    between atoms: C_10  and  C_14
REMARK    4  A    between atoms: O_19  and  C_27
REMARK    5  A    between atoms: C_31  and  C_33
REMARK                            x       y       z     vdW  Elec       q    Type
REMARK                         _______ _______ _______ _____ _____    ______ ____
ROOT
ATOM      1  C   UNL     1      34.809 -21.260 -19.158  0.00  0.00    +0.050 C 
ATOM      2  C   UNL     1      35.052 -20.198 -21.313  0.00  0.00    +0.148 C 
ATOM      3  C   UNL     1      36.196 -21.304 -19.022  0.00  0.00    -0.008 C 
ATOM      4  C   UNL     1      34.236 -20.707 -20.303  0.00  0.00    +0.052 C 
ATOM      5  C   UNL     1      37.012 -20.794 -20.033  0.00  0.00    +0.000 C 
ATOM      6  C   UNL     1      36.439 -20.241 -21.178  0.00  0.00    +0.037 C 
ATOM      7  C   UNL     1      36.836 -21.892 -17.806  0.00  0.00    +0.032 C 
ENDROOT
BRANCH   1   9
ATOM      8  O   UNL     1      33.729 -24.027 -18.746  0.00  0.00    -0.268 OA
ATOM      9  N   UNL     1      33.975 -21.765 -18.156  0.00  0.00    -0.279 N 
ATOM     10  C   UNL     1      33.498 -23.073 -18.011  0.00  0.00    +0.265 C 
ATOM     11  H   UNL     1      33.686 -21.121 -17.469  0.00  0.00    +0.155 HD
BRANCH  10  14
ATOM     12  N   UNL     1      32.993 -23.712 -15.611  0.00  0.00    -0.206 N 
ATOM     13  N   UNL     1      31.983 -23.839 -14.734  0.00  0.00    -0.182 NA
ATOM     14  C   UNL     1      32.598 -23.297 -16.849  0.00  0.00    +0.124 C 
ATOM     15  C   UNL     1      31.235 -23.141 -16.776  0.00  0.00    +0.037 C 
ATOM     16  C   UNL     1      30.912 -23.488 -15.451  0.00  0.00    +0.078 C 
ATOM     17  C   UNL     1      34.340 -24.013 -15.185  0.00  0.00    +0.140 C 
ATOM     18  C   UNL     1      29.578 -23.498 -14.826  0.00  0.00    +0.054 C 
ENDBRANCH  10  14
ENDBRANCH   1   9
BRANCH   2  19
ATOM     19  O   UNL     1      34.481 -19.645 -22.457  0.00  0.00    -0.435 OA
BRANCH  19  27
ATOM     20  N   UNL     1      34.550 -14.338 -21.925  0.00  0.00    -0.373 NA
ATOM     21  N   UNL     1      34.312 -16.220 -23.098  0.00  0.00    -0.173 N 
ATOM     22  N   UNL     1      34.259 -17.548 -23.397  0.00  0.00    -0.138 NA
ATOM     23  C   UNL     1      34.264 -14.045 -23.234  0.00  0.00    +0.187 C 
ATOM     24  C   UNL     1      34.114 -15.189 -23.979  0.00  0.00    +0.193 C 
ATOM     25  C   UNL     1      34.575 -15.654 -21.862  0.00  0.00    +0.204 C 
ATOM     26  C   UNL     1      34.815 -16.539 -20.784  0.00  0.00    +0.054 C 
ATOM     27  C   UNL     1      34.488 -18.300 -22.370  0.00  0.00    +0.245 C 
ATOM     28  C   UNL     1      34.782 -17.861 -20.989  0.00  0.00    +0.063 C 
ATOM     29  O   UNL     1      33.659 -13.009 -25.995  0.00  0.00    -0.275 OA
ATOM     30  N   UNL     1      34.153 -12.756 -23.701  0.00  0.00    -0.261 N 
ATOM     31  C   UNL     1      33.867 -12.315 -25.009  0.00  0.00    +0.227 C 
ATOM     32  H   UNL     1      34.291 -12.048 -23.033  0.00  0.00    +0.157 HD
BRANCH  31  33
ATOM     33  C   UNL     1      33.818 -10.826 -25.165  0.00  0.00    +0.077 C 
ATOM     34  C   UNL     1      35.105 -10.062 -25.273  0.00  0.00    +0.010 C 
ATOM     35  C   UNL     1      34.272  -9.959 -24.029  0.00  0.00    +0.010 C 
ENDBRANCH  31  33
ENDBRANCH  19  27
ENDBRANCH   2  19
TORSDOF 5
ENDMDL
MODEL 7
REMARK VINA RESULT:     -11.2      2.844     11.307
REMARK  Name = 24767976
REMARK  5 active torsions:
REMARK  status: ('A' for Active; 'I' for Inactive)
REMARK    1  A    between atoms: C_1  and  N_9
REMARK    2  A    between atoms: C_2  and  O_19
REMARK    3  A    between atoms: C_10  and  C_14
REMARK    4  A    between atoms: O_19  and  C_27
REMARK    5  A    between atoms: C_31  and  C_33
REMARK                            x       y       z     vdW  Elec       q    Type
REMARK                         _______ _______ _______ _____ _____    ______ ____
ROOT
ATOM      1  C   UNL     1      33.814 -13.981 -22.450  0.00  0.00    +0.050 C 
ATOM      2  C   UNL     1      34.229 -16.357 -22.565  0.00  0.00    +0.148 C 
ATOM      3  C   UNL     1      32.912 -14.189 -21.407  0.00  0.00    -0.008 C 
ATOM      4  C   UNL     1      34.473 -15.065 -23.029  0.00  0.00    +0.052 C 
ATOM      5  C   UNL     1      32.668 -15.482 -20.943  0.00  0.00    +0.000 C 
ATOM      6  C   UNL     1      33.327 -16.566 -21.522  0.00  0.00    +0.037 C 
ATOM      7  C   UNL     1      32.191 -13.046 -20.768  0.00  0.00    +0.032 C 
ENDROOT
BRANCH   1   9
ATOM      8  O   UNL     1      33.345 -12.790 -25.162  0.00  0.00    -0.268 OA
ATOM      9  N   UNL     1      34.071 -12.693 -22.928  0.00  0.00    -0.279 N 
ATOM     10  C   UNL     1      33.832 -12.188 -24.211  0.00  0.00    +0.265 C 
ATOM     11  H   UNL     1      34.472 -12.065 -22.283  0.00  0.00    +0.155 HD
BRANCH  10  14
ATOM     12  N   UNL     1      34.954 -10.311 -25.493  0.00  0.00    -0.206 N 
ATOM     13  N   UNL     1      35.198  -8.990 -25.449  0.00  0.00    -0.182 NA
ATOM     14  C   UNL     1      34.243 -10.775 -24.425  0.00  0.00    +0.124 C 
ATOM     15  C   UNL     1      34.007  -9.682 -23.627  0.00  0.00    +0.037 C 
ATOM     16  C   UNL     1      34.617  -8.611 -24.308  0.00  0.00    +0.078 C 
ATOM     17  C   UNL     1      35.442 -11.084 -26.612  0.00  0.00    +0.140 C 
ATOM     18  C   UNL     1      34.667  -7.199 -23.896  0.00  0.00    +0.054 C 
ENDBRANCH  10  14
ENDBRANCH   1   9
BRANCH   2  19
ATOM     19  O   UNL     1      34.887 -17.440 -23.144  0.00  0.00    -0.435 OA
BRANCH  19  27
ATOM     20  N   UNL     1      36.278 -21.001 -19.423  0.00  0.00    -0.373 NA
ATOM     21  N   UNL     1      34.793 -19.902 -20.673  0.00  0.00    -0.173 N 
ATOM     22  N   UNL     1      34.278 -19.039 -21.592  0.00  0.00    -0.138 NA
ATOM     23  C   UNL     1      35.007 -21.420 -19.123  0.00  0.00    +0.187 C 
ATOM     24  C   UNL     1      34.072 -20.756 -19.880  0.00  0.00    +0.193 C 
ATOM     25  C   UNL     1      36.129 -20.086 -20.360  0.00  0.00    +0.204 C 
ATOM     26  C   UNL     1      37.072 -19.299 -21.063  0.00  0.00    +0.054 C 
ATOM     27  C   UNL     1      35.191 -18.351 -22.198  0.00  0.00    +0.245 C 
ATOM     28  C   UNL     1      36.652 -18.424 -21.985  0.00  0.00    +0.063 C 
ATOM     29  O   UNL     1      32.393 -22.589 -18.194  0.00  0.00    -0.275 OA
ATOM     30  N   UNL     1      34.745 -22.382 -18.177  0.00  0.00    -0.261 N 
ATOM     31  C   UNL     1      33.499 -22.902 -17.771  0.00  0.00    +0.227 C 
ATOM     32  H   UNL     1      35.532 -22.759 -17.723  0.00  0.00    +0.157 HD
BRANCH  31  33
ATOM     33  C   UNL     1      33.581 -23.953 -16.707  0.00  0.00    +0.077 C 
ATOM     34  C   UNL     1      33.220 -23.591 -15.296  0.00  0.00    +0.010 C 
ATOM     35  C   UNL     1      34.652 -23.850 -15.662  0.00  0.00    +0.010 C 
ENDBRANCH  31  33
ENDBRANCH  19  27
ENDBRANCH   2  19
TORSDOF 5
ENDMDL
MODEL 8
REMARK VINA RESULT:     -11.0      4.551     14.102
REMARK  Name = 24767976
REMARK  5 active torsions:
REMARK  status: ('A' for Active; 'I' for Inactive)
REMARK    1  A    between atoms: C_1  and  N_9
REMARK    2  A    between atoms: C_2  and  O_19
REMARK    3  A    between atoms: C_10  and  C_14
REMARK    4  A    between atoms: O_19  and  C_27
REMARK    5  A    between atoms: C_31  and  C_33
REMARK                            x       y       z     vdW  Elec       q    Type
REMARK                         _______ _______ _______ _____ _____    ______ ____
ROOT
ATOM      1  C   UNL     1      32.023  -8.057 -22.063  0.00  0.00    +0.050 C 
ATOM      2  C   UNL     1      31.355 -10.354 -21.733  0.00  0.00    +0.148 C 
ATOM      3  C   UNL     1      32.388  -7.969 -20.720  0.00  0.00    -0.008 C 
ATOM      4  C   UNL     1      31.506  -9.249 -22.569  0.00  0.00    +0.052 C 
ATOM      5  C   UNL     1      32.236  -9.075 -19.883  0.00  0.00    +0.000 C 
ATOM      6  C   UNL     1      31.720 -10.268 -20.389  0.00  0.00    +0.037 C 
ATOM      7  C   UNL     1      32.943  -6.704 -20.150  0.00  0.00    +0.032 C 
ENDROOT
BRANCH   1   9
ATOM      8  O   UNL     1      30.187  -5.742 -22.574  0.00  0.00    -0.268 OA
ATOM      9  N   UNL     1      32.168  -6.961 -22.917  0.00  0.00    -0.279 N 
ATOM     10  C   UNL     1      31.274  -5.902 -23.119  0.00  0.00    +0.265 C 
ATOM     11  H   UNL     1      33.000  -6.930 -23.443  0.00  0.00    +0.155 HD
BRANCH  10  14
ATOM     12  N   UNL     1      31.570  -3.541 -23.990  0.00  0.00    -0.206 N 
ATOM     13  N   UNL     1      32.034  -2.845 -25.042  0.00  0.00    -0.182 NA
ATOM     14  C   UNL     1      31.701  -4.892 -24.123  0.00  0.00    +0.124 C 
ATOM     15  C   UNL     1      32.291  -5.094 -25.347  0.00  0.00    +0.037 C 
ATOM     16  C   UNL     1      32.473  -3.799 -25.867  0.00  0.00    +0.078 C 
ATOM     17  C   UNL     1      31.001  -2.830 -22.868  0.00  0.00    +0.140 C 
ATOM     18  C   UNL     1      33.069  -3.429 -27.162  0.00  0.00    +0.054 C 
ENDBRANCH  10  14
ENDBRANCH   1   9
BRANCH   2  19
ATOM     19  O   UNL     1      30.839 -11.545 -22.238  0.00  0.00    -0.435 OA
BRANCH  19  27
ATOM     20  N   UNL     1      34.878 -14.898 -23.187  0.00  0.00    -0.373 NA
ATOM     21  N   UNL     1      32.942 -14.329 -22.236  0.00  0.00    -0.173 N 
ATOM     22  N   UNL     1      31.847 -13.595 -21.895  0.00  0.00    -0.138 NA
ATOM     23  C   UNL     1      34.417 -15.926 -22.404  0.00  0.00    +0.187 C 
ATOM     24  C   UNL     1      33.224 -15.599 -21.806  0.00  0.00    +0.193 C 
ATOM     25  C   UNL     1      33.976 -13.944 -23.073  0.00  0.00    +0.204 C 
ATOM     26  C   UNL     1      33.899 -12.651 -23.643  0.00  0.00    +0.054 C 
ATOM     27  C   UNL     1      31.838 -12.426 -22.449  0.00  0.00    +0.245 C 
ATOM     28  C   UNL     1      32.856 -11.861 -23.361  0.00  0.00    +0.063 C 
ATOM     29  O   UNL     1      33.740 -18.382 -20.802  0.00  0.00    -0.275 OA
ATOM     30  N   UNL     1      35.093 -17.114 -22.262  0.00  0.00    -0.261 N 
ATOM     31  C   UNL     1      34.738 -18.244 -21.497  0.00  0.00    +0.227 C 
ATOM     32  H   UNL     1      35.938 -17.186 -22.762  0.00  0.00    +0.157 HD
BRANCH  31  33
ATOM     33  C   UNL     1      35.713 -19.378 -21.574  0.00  0.00    +0.077 C 
ATOM     34  C   UNL     1      35.664 -20.454 -20.529  0.00  0.00    +0.010 C 
ATOM     35  C   UNL     1      36.801 -19.475 -20.544  0.00  0.00    +0.010 C 
ENDBRANCH  31  33
ENDBRANCH  19  27
ENDBRANCH   2  19
TORSDOF 5
ENDMDL
MODEL 9
REMARK VINA RESULT:     -10.7      3.533     12.926
REMARK  Name = 24767976
REMARK  5 active torsions:
REMARK  status: ('A' for Active; 'I' for Inactive)
REMARK    1  A    between atoms: C_1  and  N_9
REMARK    2  A    between atoms: C_2  and  O_19
REMARK    3  A    between atoms: C_10  and  C_14
REMARK    4  A    between atoms: O_19  and  C_27
REMARK    5  A    between atoms: C_31  and  C_33
REMARK                            x       y       z     vdW  Elec       q    Type
REMARK                         _______ _______ _______ _____ _____    ______ ____
ROOT
ATOM      1  C   UNL     1      31.732  -9.985 -21.661  0.00  0.00    +0.050 C 
ATOM      2  C   UNL     1      31.718 -12.391 -21.870  0.00  0.00    +0.148 C 
ATOM      3  C   UNL     1      31.838 -10.105 -20.276  0.00  0.00    -0.008 C 
ATOM      4  C   UNL     1      31.671 -11.128 -22.458  0.00  0.00    +0.052 C 
ATOM      5  C   UNL     1      31.885 -11.369 -19.687  0.00  0.00    +0.000 C 
ATOM      6  C   UNL     1      31.825 -12.512 -20.484  0.00  0.00    +0.037 C 
ATOM      7  C   UNL     1      31.904  -8.897 -19.398  0.00  0.00    +0.032 C 
ENDROOT
BRANCH   1   9
ATOM      8  O   UNL     1      33.948  -8.239 -22.679  0.00  0.00    -0.268 OA
ATOM      9  N   UNL     1      31.685  -8.728 -22.270  0.00  0.00    -0.279 N 
ATOM     10  C   UNL     1      32.756  -7.952 -22.728  0.00  0.00    +0.265 C 
ATOM     11  H   UNL     1      30.787  -8.339 -22.390  0.00  0.00    +0.155 HD
BRANCH  10  14
ATOM     12  N   UNL     1      31.715  -5.642 -22.655  0.00  0.00    -0.206 N 
ATOM     13  N   UNL     1      31.503  -4.547 -23.405  0.00  0.00    -0.182 NA
ATOM     14  C   UNL     1      32.386  -6.635 -23.308  0.00  0.00    +0.124 C 
ATOM     15  C   UNL     1      32.628  -6.156 -24.573  0.00  0.00    +0.037 C 
ATOM     16  C   UNL     1      32.063  -4.866 -24.574  0.00  0.00    +0.078 C 
ATOM     17  C   UNL     1      31.238  -5.669 -21.292  0.00  0.00    +0.140 C 
ATOM     18  C   UNL     1      32.037  -3.900 -25.685  0.00  0.00    +0.054 C 
ENDBRANCH  10  14
ENDBRANCH   1   9
BRANCH   2  19
ATOM     19  O   UNL     1      31.657 -13.533 -22.665  0.00  0.00    -0.435 OA
BRANCH  19  27
ATOM     20  N   UNL     1      35.553 -16.859 -21.177  0.00  0.00    -0.373 NA
ATOM     21  N   UNL     1      33.425 -16.351 -21.615  0.00  0.00    -0.173 N 
ATOM     22  N   UNL     1      32.325 -15.632 -21.973  0.00  0.00    -0.138 NA
ATOM     23  C   UNL     1      34.754 -17.956 -20.973  0.00  0.00    +0.187 C 
ATOM     24  C   UNL     1      33.437 -17.668 -21.236  0.00  0.00    +0.193 C 
ATOM     25  C   UNL     1      34.734 -15.902 -21.564  0.00  0.00    +0.204 C 
ATOM     26  C   UNL     1      34.968 -14.552 -21.918  0.00  0.00    +0.054 C 
ATOM     27  C   UNL     1      32.609 -14.409 -22.284  0.00  0.00    +0.245 C 
ATOM     28  C   UNL     1      33.943 -13.772 -22.283  0.00  0.00    +0.063 C 
ATOM     29  O   UNL     1      33.344 -20.557 -20.421  0.00  0.00    -0.275 OA
ATOM     30  N   UNL     1      35.249 -19.169 -20.556  0.00  0.00    -0.261 N 
ATOM     31  C   UNL     1      34.548 -20.368 -20.309  0.00  0.00    +0.227 C 
ATOM     32  H   UNL     1      36.221 -19.206 -20.412  0.00  0.00    +0.157 HD
BRANCH  31  33
ATOM     33  C   UNL     1      35.409 -21.510 -19.866  0.00  0.00    +0.077 C 
ATOM     34  C   UNL     1      35.271 -22.025 -18.463  0.00  0.00    +0.010 C 
ATOM     35  C   UNL     1      36.496 -21.257 -18.863  0.00  0.00    +0.010 C 
ENDBRANCH  31  33
ENDBRANCH  19  27
ENDBRANCH   2  19
TORSDOF 5
ENDMDL
