MODEL 1
REMARK VINA RESULT:     -10.2      0.000      0.000
REMARK  Name = 162056
REMARK  6 active torsions:
REMARK  status: ('A' for Active; 'I' for Inactive)
REMARK    1  A    between atoms: N_1  and  C_21
REMARK    2  A    between atoms: C_2  and  N_11
REMARK    3  A    between atoms: N_11  and  C_13
REMARK    4  A    between atoms: C_12  and  C_19
REMARK    5  A    between atoms: C_21  and  C_22
REMARK    6  A    between atoms: C_22  and  C_23
REMARK                            x       y       z     vdW  Elec       q    Type
REMARK                         _______ _______ _______ _____ _____    ______ ____
ROOT
ATOM      1  N   UNL     1      35.042 -15.832 -22.684  0.00  0.00    +0.389 N 
ATOM      2  C   UNL     1      33.189 -13.583 -22.983  0.00  0.00    +0.076 C 
ATOM      3  C   UNL     1      33.676 -14.397 -24.198  0.00  0.00    -0.002 C 
ATOM      4  C   UNL     1      34.553 -15.144 -21.477  0.00  0.00    -0.056 C 
ATOM      5  C   UNL     1      34.197 -13.692 -21.833  0.00  0.00    -0.001 C 
ATOM      6  C   UNL     1      34.073 -15.828 -23.784  0.00  0.00    -0.076 C 
ATOM      7  C   UNL     1      32.621 -14.465 -25.307  0.00  0.00    -0.000 C 
ATOM      8  C   UNL     1      33.391 -15.835 -20.748  0.00  0.00    -0.023 C 
ATOM      9  H   UNL     1      35.844 -15.283 -22.991  0.00  0.00    -0.080 HD
ENDROOT
BRANCH   2  11
ATOM     10  O   UNL     1      31.181 -11.763 -21.837  0.00  0.00    -0.275 OA
ATOM     11  N   UNL     1      32.983 -12.189 -23.313  0.00  0.00    -0.260 N 
ATOM     12  C   UNL     1      31.979 -11.385 -22.699  0.00  0.00    +0.229 C 
BRANCH  11  13
ATOM     13  C   UNL     1      33.845 -11.577 -24.321  0.00  0.00    +0.054 C 
ATOM     14  C   UNL     1      33.751 -12.042 -25.599  0.00  0.00    +0.015 C 
ATOM     15  C   UNL     1      34.684 -10.582 -23.917  0.00  0.00    +0.015 C 
ATOM     16  C   UNL     1      34.574 -11.457 -26.562  0.00  0.00    +0.001 C 
ATOM     17  C   UNL     1      35.507  -9.997 -24.879  0.00  0.00    +0.001 C 
ATOM     18  C   UNL     1      35.452 -10.435 -26.203  0.00  0.00    +0.000 C 
ENDBRANCH  11  13
BRANCH  12  19
ATOM     19  C   UNL     1      31.891  -9.952 -23.217  0.00  0.00    +0.086 C 
ATOM     20  C   UNL     1      31.940  -8.919 -22.103  0.00  0.00    +0.010 C 
ENDBRANCH  12  19
ENDBRANCH   2  11
BRANCH   1  21
ATOM     21  C   UNL     1      35.524 -17.185 -22.414  0.00  0.00    -0.073 C 
BRANCH  21  22
ATOM     22  C   UNL     1      34.426 -18.218 -22.667  0.00  0.00    +0.004 C 
BRANCH  22  23
ATOM     23  C   UNL     1      34.407 -19.278 -21.595  0.00  0.00    -0.024 C 
ATOM     24  C   UNL     1      35.603 -19.831 -21.163  0.00  0.00    -0.004 C 
ATOM     25  C   UNL     1      33.193 -19.683 -21.059  0.00  0.00    -0.004 C 
ATOM     26  C   UNL     1      35.585 -20.812 -20.171  0.00  0.00    -0.000 C 
ATOM     27  C   UNL     1      33.176 -20.664 -20.067  0.00  0.00    -0.000 C 
ATOM     28  C   UNL     1      34.372 -21.228 -19.623  0.00  0.00    -0.000 C 
ENDBRANCH  22  23
ENDBRANCH  21  22
ENDBRANCH   1  21
TORSDOF 6
ENDMDL
MODEL 2
REMARK VINA RESULT:     -10.0      1.168      2.432
REMARK  Name = 162056
REMARK  6 active torsions:
REMARK  status: ('A' for Active; 'I' for Inactive)
REMARK    1  A    between atoms: N_1  and  C_21
REMARK    2  A    between atoms: C_2  and  N_11
REMARK    3  A    between atoms: N_11  and  C_13
REMARK    4  A    between atoms: C_12  and  C_19
REMARK    5  A    between atoms: C_21  and  C_22
REMARK    6  A    between atoms: C_22  and  C_23
REMARK                            x       y       z     vdW  Elec       q    Type
REMARK                         _______ _______ _______ _____ _____    ______ ____
ROOT
ATOM      1  N   UNL     1      34.091 -17.247 -23.085  0.00  0.00    +0.389 N 
ATOM      2  C   UNL     1      34.114 -14.329 -23.344  0.00  0.00    +0.076 C 
ATOM      3  C   UNL     1      34.250 -15.021 -21.974  0.00  0.00    -0.002 C 
ATOM      4  C   UNL     1      34.035 -16.649 -24.430  0.00  0.00    -0.056 C 
ATOM      5  C   UNL     1      33.397 -15.253 -24.336  0.00  0.00    -0.001 C 
ATOM      6  C   UNL     1      34.843 -16.436 -22.123  0.00  0.00    -0.076 C 
ATOM      7  C   UNL     1      35.114 -14.211 -21.001  0.00  0.00    -0.000 C 
ATOM      8  C   UNL     1      35.372 -16.596 -25.185  0.00  0.00    -0.023 C 
ATOM      9  H   UNL     1      33.122 -17.266 -22.768  0.00  0.00    -0.080 HD
ENDROOT
BRANCH   2  11
ATOM     10  O   UNL     1      31.681 -13.791 -21.780  0.00  0.00    -0.275 OA
ATOM     11  N   UNL     1      33.396 -13.076 -23.248  0.00  0.00    -0.260 N 
ATOM     12  C   UNL     1      32.220 -12.913 -22.460  0.00  0.00    +0.229 C 
BRANCH  11  13
ATOM     13  C   UNL     1      33.900 -11.926 -23.993  0.00  0.00    +0.054 C 
ATOM     14  C   UNL     1      34.014 -10.741 -23.327  0.00  0.00    +0.015 C 
ATOM     15  C   UNL     1      34.224 -12.113 -25.304  0.00  0.00    +0.015 C 
ATOM     16  C   UNL     1      34.496  -9.642 -24.039  0.00  0.00    +0.001 C 
ATOM     17  C   UNL     1      34.705 -11.014 -26.016  0.00  0.00    +0.001 C 
ATOM     18  C   UNL     1      34.842  -9.778 -25.383  0.00  0.00    +0.000 C 
ENDBRANCH  11  13
BRANCH  12  19
ATOM     19  C   UNL     1      31.583 -11.528 -22.526  0.00  0.00    +0.086 C 
ATOM     20  C   UNL     1      30.897 -11.131 -21.229  0.00  0.00    +0.010 C 
ENDBRANCH  12  19
ENDBRANCH   2  11
BRANCH   1  21
ATOM     21  C   UNL     1      34.567 -18.628 -23.094  0.00  0.00    -0.073 C 
BRANCH  21  22
ATOM     22  C   UNL     1      35.521 -18.885 -21.927  0.00  0.00    +0.004 C 
BRANCH  22  23
ATOM     23  C   UNL     1      34.960 -19.905 -20.969  0.00  0.00    -0.024 C 
ATOM     24  C   UNL     1      33.589 -19.973 -20.772  0.00  0.00    -0.004 C 
ATOM     25  C   UNL     1      35.824 -20.759 -20.299  0.00  0.00    -0.004 C 
ATOM     26  C   UNL     1      33.070 -20.916 -19.885  0.00  0.00    -0.000 C 
ATOM     27  C   UNL     1      35.305 -21.702 -19.412  0.00  0.00    -0.000 C 
ATOM     28  C   UNL     1      33.927 -21.780 -19.206  0.00  0.00    -0.000 C 
ENDBRANCH  22  23
ENDBRANCH  21  22
ENDBRANCH   1  21
TORSDOF 6
ENDMDL
MODEL 3
REMARK VINA RESULT:     -10.0      3.014      9.569
REMARK  Name = 162056
REMARK  6 active torsions:
REMARK  status: ('A' for Active; 'I' for Inactive)
REMARK    1  A    between atoms: N_1  and  C_21
REMARK    2  A    between atoms: C_2  and  N_11
REMARK    3  A    between atoms: N_11  and  C_13
REMARK    4  A    between atoms: C_12  and  C_19
REMARK    5  A    between atoms: C_21  and  C_22
REMARK    6  A    between atoms: C_22  and  C_23
REMARK                            x       y       z     vdW  Elec       q    Type
REMARK                         _______ _______ _______ _____ _____    ______ ____
ROOT
ATOM      1  N   UNL     1      31.704  -8.874 -23.242  0.00  0.00    +0.389 N 
ATOM      2  C   UNL     1      33.053 -11.463 -22.994  0.00  0.00    +0.076 C 
ATOM      3  C   UNL     1      33.464 -10.435 -24.067  0.00  0.00    -0.002 C 
ATOM      4  C   UNL     1      31.316  -9.779 -22.147  0.00  0.00    -0.056 C 
ATOM      5  C   UNL     1      31.598 -11.230 -22.568  0.00  0.00    -0.001 C 
ATOM      6  C   UNL     1      33.114  -9.001 -23.625  0.00  0.00    -0.076 C 
ATOM      7  C   UNL     1      34.959 -10.513 -24.396  0.00  0.00    -0.000 C 
ATOM      8  C   UNL     1      31.944  -9.468 -20.780  0.00  0.00    -0.023 C 
ATOM      9  H   UNL     1      31.149  -9.178 -24.041  0.00  0.00    -0.080 HD
ENDROOT
BRANCH   2  11
ATOM     10  O   UNL     1      33.070 -12.390 -25.786  0.00  0.00    -0.275 OA
ATOM     11  N   UNL     1      33.206 -12.824 -23.461  0.00  0.00    -0.260 N 
ATOM     12  C   UNL     1      33.201 -13.175 -24.843  0.00  0.00    +0.229 C 
BRANCH  11  13
ATOM     13  C   UNL     1      33.373 -13.885 -22.473  0.00  0.00    +0.054 C 
ATOM     14  C   UNL     1      32.320 -14.157 -21.651  0.00  0.00    +0.015 C 
ATOM     15  C   UNL     1      34.571 -14.535 -22.439  0.00  0.00    +0.015 C 
ATOM     16  C   UNL     1      32.479 -15.171 -20.708  0.00  0.00    +0.001 C 
ATOM     17  C   UNL     1      34.731 -15.549 -21.494  0.00  0.00    +0.001 C 
ATOM     18  C   UNL     1      33.685 -15.868 -20.629  0.00  0.00    +0.000 C 
ENDBRANCH  11  13
BRANCH  12  19
ATOM     19  C   UNL     1      33.330 -14.669 -25.130  0.00  0.00    +0.086 C 
ATOM     20  C   UNL     1      33.044 -15.016 -26.583  0.00  0.00    +0.010 C 
ENDBRANCH  12  19
ENDBRANCH   2  11
BRANCH   1  21
ATOM     21  C   UNL     1      31.355  -7.479 -22.981  0.00  0.00    -0.073 C 
BRANCH  21  22
ATOM     22  C   UNL     1      32.565  -6.566 -23.177  0.00  0.00    +0.004 C 
BRANCH  22  23
ATOM     23  C   UNL     1      32.322  -5.552 -24.266  0.00  0.00    -0.024 C 
ATOM     24  C   UNL     1      33.122  -5.564 -25.399  0.00  0.00    -0.004 C 
ATOM     25  C   UNL     1      31.303  -4.623 -24.117  0.00  0.00    -0.004 C 
ATOM     26  C   UNL     1      32.897  -4.625 -26.406  0.00  0.00    -0.000 C 
ATOM     27  C   UNL     1      31.078  -3.684 -25.124  0.00  0.00    -0.000 C 
ATOM     28  C   UNL     1      31.875  -3.686 -26.269  0.00  0.00    -0.000 C 
ENDBRANCH  22  23
ENDBRANCH  21  22
ENDBRANCH   1  21
TORSDOF 6
ENDMDL
MODEL 4
REMARK VINA RESULT:      -9.6      6.702     13.084
REMARK  Name = 162056
REMARK  6 active torsions:
REMARK  status: ('A' for Active; 'I' for Inactive)
REMARK    1  A    between atoms: N_1  and  C_21
REMARK    2  A    between atoms: C_2  and  N_11
REMARK    3  A    between atoms: N_11  and  C_13
REMARK    4  A    between atoms: C_12  and  C_19
REMARK    5  A    between atoms: C_21  and  C_22
REMARK    6  A    between atoms: C_22  and  C_23
REMARK                            x       y       z     vdW  Elec       q    Type
REMARK                         _______ _______ _______ _____ _____    ______ ____
ROOT
ATOM      1  N   UNL     1      34.571 -23.205 -17.986  0.00  0.00    +0.389 N 
ATOM      2  C   UNL     1      34.960 -23.397 -15.088  0.00  0.00    +0.076 C 
ATOM      3  C   UNL     1      36.074 -22.885 -16.023  0.00  0.00    -0.002 C 
ATOM      4  C   UNL     1      33.442 -23.629 -17.140  0.00  0.00    -0.056 C 
ATOM      5  C   UNL     1      33.987 -24.293 -15.865  0.00  0.00    -0.001 C 
ATOM      6  C   UNL     1      35.483 -22.277 -17.310  0.00  0.00    -0.076 C 
ATOM      7  C   UNL     1      36.968 -21.846 -15.337  0.00  0.00    -0.000 C 
ATOM      8  C   UNL     1      32.424 -22.530 -16.799  0.00  0.00    -0.023 C 
ATOM      9  H   UNL     1      35.095 -24.060 -18.168  0.00  0.00    -0.080 HD
ENDROOT
BRANCH   2  11
ATOM     10  O   UNL     1      33.838 -23.545 -12.373  0.00  0.00    -0.275 OA
ATOM     11  N   UNL     1      35.494 -24.131 -13.961  0.00  0.00    -0.260 N 
ATOM     12  C   UNL     1      34.875 -24.141 -12.678  0.00  0.00    +0.229 C 
BRANCH  11  13
ATOM     13  C   UNL     1      36.723 -24.896 -14.147  0.00  0.00    +0.054 C 
ATOM     14  C   UNL     1      37.867 -24.402 -13.593  0.00  0.00    +0.015 C 
ATOM     15  C   UNL     1      36.646 -26.055 -14.862  0.00  0.00    +0.015 C 
ATOM     16  C   UNL     1      39.041 -25.133 -13.770  0.00  0.00    +0.001 C 
ATOM     17  C   UNL     1      37.821 -26.786 -15.040  0.00  0.00    +0.001 C 
ATOM     18  C   UNL     1      39.018 -26.325 -14.494  0.00  0.00    +0.000 C 
ENDBRANCH  11  13
BRANCH  12  19
ATOM     19  C   UNL     1      35.617 -24.937 -11.607  0.00  0.00    +0.086 C 
ATOM     20  C   UNL     1      35.779 -24.167 -10.306  0.00  0.00    +0.010 C 
ENDBRANCH  12  19
ENDBRANCH   2  11
BRANCH   1  21
ATOM     21  C   UNL     1      34.147 -22.676 -19.280  0.00  0.00    -0.073 C 
BRANCH  21  22
ATOM     22  C   UNL     1      35.293 -21.935 -19.970  0.00  0.00    +0.004 C 
BRANCH  22  23
ATOM     23  C   UNL     1      34.866 -20.565 -20.433  0.00  0.00    -0.024 C 
ATOM     24  C   UNL     1      35.831 -19.641 -20.806  0.00  0.00    -0.004 C 
ATOM     25  C   UNL     1      33.516 -20.251 -20.479  0.00  0.00    -0.004 C 
ATOM     26  C   UNL     1      35.436 -18.374 -21.234  0.00  0.00    -0.000 C 
ATOM     27  C   UNL     1      33.121 -18.984 -20.907  0.00  0.00    -0.000 C 
ATOM     28  C   UNL     1      34.082 -18.045 -21.285  0.00  0.00    -0.000 C 
ENDBRANCH  22  23
ENDBRANCH  21  22
ENDBRANCH   1  21
TORSDOF 6
ENDMDL
MODEL 5
REMARK VINA RESULT:      -9.6      1.543      3.039
REMARK  Name = 162056
REMARK  6 active torsions:
REMARK  status: ('A' for Active; 'I' for Inactive)
REMARK    1  A    between atoms: N_1  and  C_21
REMARK    2  A    between atoms: C_2  and  N_11
REMARK    3  A    between atoms: N_11  and  C_13
REMARK    4  A    between atoms: C_12  and  C_19
REMARK    5  A    between atoms: C_21  and  C_22
REMARK    6  A    between atoms: C_22  and  C_23
REMARK                            x       y       z     vdW  Elec       q    Type
REMARK                         _______ _______ _______ _____ _____    ______ ____
ROOT
ATOM      1  N   UNL     1      34.949 -16.515 -23.101  0.00  0.00    +0.389 N 
ATOM      2  C   UNL     1      33.222 -14.150 -22.988  0.00  0.00    +0.076 C 
ATOM      3  C   UNL     1      33.706 -14.736 -24.329  0.00  0.00    -0.002 C 
ATOM      4  C   UNL     1      34.458 -16.051 -21.793  0.00  0.00    -0.056 C 
ATOM      5  C   UNL     1      34.188 -14.539 -21.861  0.00  0.00    -0.001 C 
ATOM      6  C   UNL     1      34.016 -16.240 -24.198  0.00  0.00    -0.076 C 
ATOM      7  C   UNL     1      32.684 -14.525 -25.452  0.00  0.00    -0.000 C 
ATOM      8  C   UNL     1      33.240 -16.806 -21.239  0.00  0.00    -0.023 C 
ATOM      9  H   UNL     1      35.787 -15.961 -23.276  0.00  0.00    -0.080 HD
ENDROOT
BRANCH   2  11
ATOM     10  O   UNL     1      34.468 -12.330 -24.934  0.00  0.00    -0.275 OA
ATOM     11  N   UNL     1      33.099 -12.709 -23.040  0.00  0.00    -0.260 N 
ATOM     12  C   UNL     1      33.744 -11.910 -24.027  0.00  0.00    +0.229 C 
BRANCH  11  13
ATOM     13  C   UNL     1      32.274 -12.044 -22.035  0.00  0.00    +0.054 C 
ATOM     14  C   UNL     1      31.392 -11.098 -22.466  0.00  0.00    +0.015 C 
ATOM     15  C   UNL     1      32.441 -12.414 -20.733  0.00  0.00    +0.015 C 
ATOM     16  C   UNL     1      30.604 -10.463 -21.506  0.00  0.00    +0.001 C 
ATOM     17  C   UNL     1      31.653 -11.779 -19.773  0.00  0.00    +0.001 C 
ATOM     18  C   UNL     1      30.734 -10.803 -20.160  0.00  0.00    +0.000 C 
ENDBRANCH  11  13
BRANCH  12  19
ATOM     19  C   UNL     1      33.528 -10.405 -23.885  0.00  0.00    +0.086 C 
ATOM     20  C   UNL     1      34.759  -9.595 -24.257  0.00  0.00    +0.010 C 
ENDBRANCH  12  19
ENDBRANCH   2  11
BRANCH   1  21
ATOM     21  C   UNL     1      35.353 -17.919 -23.095  0.00  0.00    -0.073 C 
BRANCH  21  22
ATOM     22  C   UNL     1      36.352 -18.196 -21.972  0.00  0.00    +0.004 C 
BRANCH  22  23
ATOM     23  C   UNL     1      35.896 -19.334 -21.094  0.00  0.00    -0.024 C 
ATOM     24  C   UNL     1      36.827 -20.017 -20.326  0.00  0.00    -0.004 C 
ATOM     25  C   UNL     1      34.553 -19.680 -21.070  0.00  0.00    -0.004 C 
ATOM     26  C   UNL     1      36.405 -21.070 -19.514  0.00  0.00    -0.000 C 
ATOM     27  C   UNL     1      34.131 -20.733 -20.259  0.00  0.00    -0.000 C 
ATOM     28  C   UNL     1      35.058 -21.428 -19.480  0.00  0.00    -0.000 C 
ENDBRANCH  22  23
ENDBRANCH  21  22
ENDBRANCH   1  21
TORSDOF 6
ENDMDL
MODEL 6
REMARK VINA RESULT:      -9.6      1.803      3.027
REMARK  Name = 162056
REMARK  6 active torsions:
REMARK  status: ('A' for Active; 'I' for Inactive)
REMARK    1  A    between atoms: N_1  and  C_21
REMARK    2  A    between atoms: C_2  and  N_11
REMARK    3  A    between atoms: N_11  and  C_13
REMARK    4  A    between atoms: C_12  and  C_19
REMARK    5  A    between atoms: C_21  and  C_22
REMARK    6  A    between atoms: C_22  and  C_23
REMARK                            x       y       z     vdW  Elec       q    Type
REMARK                         _______ _______ _______ _____ _____    ______ ____
ROOT
ATOM      1  N   UNL     1      35.126 -16.622 -21.608  0.00  0.00    +0.389 N 
ATOM      2  C   UNL     1      33.413 -15.477 -23.691  0.00  0.00    +0.076 C 
ATOM      3  C   UNL     1      34.723 -16.213 -24.034  0.00  0.00    -0.002 C 
ATOM      4  C   UNL     1      33.849 -15.999 -21.221  0.00  0.00    -0.056 C 
ATOM      5  C   UNL     1      33.472 -14.931 -22.259  0.00  0.00    -0.001 C 
ATOM      6  C   UNL     1      35.089 -17.234 -22.940  0.00  0.00    -0.076 C 
ATOM      7  C   UNL     1      34.645 -16.928 -25.388  0.00  0.00    -0.000 C 
ATOM      8  C   UNL     1      32.685 -16.973 -20.982  0.00  0.00    -0.023 C 
ATOM      9  H   UNL     1      35.790 -15.850 -21.653  0.00  0.00    -0.080 HD
ENDROOT
BRANCH   2  11
ATOM     10  O   UNL     1      32.812 -15.688 -26.563  0.00  0.00    -0.275 OA
ATOM     11  N   UNL     1      33.146 -14.391 -24.610  0.00  0.00    -0.260 N 
ATOM     12  C   UNL     1      32.863 -14.596 -25.992  0.00  0.00    +0.229 C 
BRANCH  11  13
ATOM     13  C   UNL     1      33.167 -13.024 -24.098  0.00  0.00    +0.054 C 
ATOM     14  C   UNL     1      34.139 -12.189 -24.564  0.00  0.00    +0.015 C 
ATOM     15  C   UNL     1      32.212 -12.674 -23.190  0.00  0.00    +0.015 C 
ATOM     16  C   UNL     1      34.158 -10.882 -24.076  0.00  0.00    +0.001 C 
ATOM     17  C   UNL     1      32.232 -11.367 -22.701  0.00  0.00    +0.001 C 
ATOM     18  C   UNL     1      33.205 -10.471 -23.144  0.00  0.00    +0.000 C 
ENDBRANCH  11  13
BRANCH  12  19
ATOM     19  C   UNL     1      32.655 -13.321 -26.805  0.00  0.00    +0.086 C 
ATOM     20  C   UNL     1      33.844 -12.987 -27.692  0.00  0.00    +0.010 C 
ENDBRANCH  12  19
ENDBRANCH   2  11
BRANCH   1  21
ATOM     21  C   UNL     1      35.628 -17.564 -20.610  0.00  0.00    -0.073 C 
BRANCH  21  22
ATOM     22  C   UNL     1      35.939 -18.920 -21.245  0.00  0.00    +0.004 C 
BRANCH  22  23
ATOM     23  C   UNL     1      35.282 -20.047 -20.489  0.00  0.00    -0.024 C 
ATOM     24  C   UNL     1      36.069 -20.933 -19.769  0.00  0.00    -0.004 C 
ATOM     25  C   UNL     1      33.902 -20.180 -20.527  0.00  0.00    -0.004 C 
ATOM     26  C   UNL     1      35.463 -21.977 -19.070  0.00  0.00    -0.000 C 
ATOM     27  C   UNL     1      33.295 -21.224 -19.828  0.00  0.00    -0.000 C 
ATOM     28  C   UNL     1      34.076 -22.122 -19.099  0.00  0.00    -0.000 C 
ENDBRANCH  22  23
ENDBRANCH  21  22
ENDBRANCH   1  21
TORSDOF 6
ENDMDL
MODEL 7
REMARK VINA RESULT:      -9.4      7.059     13.426
REMARK  Name = 162056
REMARK  6 active torsions:
REMARK  status: ('A' for Active; 'I' for Inactive)
REMARK    1  A    between atoms: N_1  and  C_21
REMARK    2  A    between atoms: C_2  and  N_11
REMARK    3  A    between atoms: N_11  and  C_13
REMARK    4  A    between atoms: C_12  and  C_19
REMARK    5  A    between atoms: C_21  and  C_22
REMARK    6  A    between atoms: C_22  and  C_23
REMARK                            x       y       z     vdW  Elec       q    Type
REMARK                         _______ _______ _______ _____ _____    ______ ____
ROOT
ATOM      1  N   UNL     1      33.893 -23.143 -17.565  0.00  0.00    +0.389 N 
ATOM      2  C   UNL     1      35.192 -23.637 -14.986  0.00  0.00    +0.076 C 
ATOM      3  C   UNL     1      35.974 -23.085 -16.194  0.00  0.00    -0.002 C 
ATOM      4  C   UNL     1      33.074 -23.597 -16.429  0.00  0.00    -0.056 C 
ATOM      5  C   UNL     1      33.954 -24.407 -15.464  0.00  0.00    -0.001 C 
ATOM      6  C   UNL     1      35.043 -22.328 -17.160  0.00  0.00    -0.076 C 
ATOM      7  C   UNL     1      37.119 -22.161 -15.765  0.00  0.00    -0.000 C 
ATOM      8  C   UNL     1      32.308 -22.493 -15.684  0.00  0.00    -0.023 C 
ATOM      9  H   UNL     1      34.264 -23.998 -17.978  0.00  0.00    -0.080 HD
ENDROOT
BRANCH   2  11
ATOM     10  O   UNL     1      36.529 -26.126 -15.804  0.00  0.00    -0.275 OA
ATOM     11  N   UNL     1      36.008 -24.502 -14.161  0.00  0.00    -0.260 N 
ATOM     12  C   UNL     1      36.617 -25.694 -14.652  0.00  0.00    +0.229 C 
BRANCH  11  13
ATOM     13  C   UNL     1      36.218 -24.137 -12.763  0.00  0.00    +0.054 C 
ATOM     14  C   UNL     1      37.174 -23.205 -12.489  0.00  0.00    +0.015 C 
ATOM     15  C   UNL     1      35.442 -24.752 -11.825  0.00  0.00    +0.015 C 
ATOM     16  C   UNL     1      37.374 -22.855 -11.154  0.00  0.00    +0.001 C 
ATOM     17  C   UNL     1      35.642 -24.403 -10.490  0.00  0.00    +0.001 C 
ATOM     18  C   UNL     1      36.608 -23.454 -10.154  0.00  0.00    +0.000 C 
ENDBRANCH  11  13
BRANCH  12  19
ATOM     19  C   UNL     1      37.401 -26.494 -13.614  0.00  0.00    +0.086 C 
ATOM     20  C   UNL     1      38.883 -26.156 -13.607  0.00  0.00    +0.010 C 
ENDBRANCH  12  19
ENDBRANCH   2  11
BRANCH   1  21
ATOM     21  C   UNL     1      33.112 -22.470 -18.600  0.00  0.00    -0.073 C 
BRANCH  21  22
ATOM     22  C   UNL     1      33.878 -22.424 -19.922  0.00  0.00    +0.004 C 
BRANCH  22  23
ATOM     23  C   UNL     1      34.164 -21.006 -20.347  0.00  0.00    -0.024 C 
ATOM     24  C   UNL     1      35.478 -20.594 -20.506  0.00  0.00    -0.004 C 
ATOM     25  C   UNL     1      33.107 -20.136 -20.571  0.00  0.00    -0.004 C 
ATOM     26  C   UNL     1      35.743 -19.282 -20.898  0.00  0.00    -0.000 C 
ATOM     27  C   UNL     1      33.371 -18.824 -20.964  0.00  0.00    -0.000 C 
ATOM     28  C   UNL     1      34.690 -18.397 -21.128  0.00  0.00    -0.000 C 
ENDBRANCH  22  23
ENDBRANCH  21  22
ENDBRANCH   1  21
TORSDOF 6
ENDMDL
MODEL 8
REMARK VINA RESULT:      -9.4      3.823      6.820
REMARK  Name = 162056
REMARK  6 active torsions:
REMARK  status: ('A' for Active; 'I' for Inactive)
REMARK    1  A    between atoms: N_1  and  C_21
REMARK    2  A    between atoms: C_2  and  N_11
REMARK    3  A    between atoms: N_11  and  C_13
REMARK    4  A    between atoms: C_12  and  C_19
REMARK    5  A    between atoms: C_21  and  C_22
REMARK    6  A    between atoms: C_22  and  C_23
REMARK                            x       y       z     vdW  Elec       q    Type
REMARK                         _______ _______ _______ _____ _____    ______ ____
ROOT
ATOM      1  N   UNL     1      34.345 -21.969 -20.003  0.00  0.00    +0.389 N 
ATOM      2  C   UNL     1      34.613 -19.199 -20.919  0.00  0.00    +0.076 C 
ATOM      3  C   UNL     1      33.234 -19.871 -20.765  0.00  0.00    -0.002 C 
ATOM      4  C   UNL     1      35.685 -21.360 -20.055  0.00  0.00    -0.056 C 
ATOM      5  C   UNL     1      35.699 -20.261 -21.129  0.00  0.00    -0.001 C 
ATOM      6  C   UNL     1      33.281 -21.001 -19.719  0.00  0.00    -0.076 C 
ATOM      7  C   UNL     1      32.143 -18.867 -20.377  0.00  0.00    -0.000 C 
ATOM      8  C   UNL     1      36.222 -20.832 -18.715  0.00  0.00    -0.023 C 
ATOM      9  H   UNL     1      34.183 -22.322 -20.946  0.00  0.00    -0.080 HD
ENDROOT
BRANCH   2  11
ATOM     10  O   UNL     1      35.239 -19.780 -23.733  0.00  0.00    -0.275 OA
ATOM     11  N   UNL     1      34.638 -18.260 -22.020  0.00  0.00    -0.260 N 
ATOM     12  C   UNL     1      34.955 -18.640 -23.357  0.00  0.00    +0.229 C 
BRANCH  11  13
ATOM     13  C   UNL     1      34.324 -16.860 -21.750  0.00  0.00    +0.054 C 
ATOM     14  C   UNL     1      33.434 -16.241 -22.576  0.00  0.00    +0.015 C 
ATOM     15  C   UNL     1      34.940 -16.267 -20.688  0.00  0.00    +0.015 C 
ATOM     16  C   UNL     1      33.133 -14.904 -22.317  0.00  0.00    +0.001 C 
ATOM     17  C   UNL     1      34.640 -14.929 -20.430  0.00  0.00    +0.001 C 
ATOM     18  C   UNL     1      33.736 -14.248 -21.244  0.00  0.00    +0.000 C 
ENDBRANCH  11  13
BRANCH  12  19
ATOM     19  C   UNL     1      34.973 -17.496 -24.367  0.00  0.00    +0.086 C 
ATOM     20  C   UNL     1      34.061 -17.747 -25.558  0.00  0.00    +0.010 C 
ENDBRANCH  12  19
ENDBRANCH   2  11
BRANCH   1  21
ATOM     21  C   UNL     1      34.271 -23.113 -19.097  0.00  0.00    -0.073 C 
BRANCH  21  22
ATOM     22  C   UNL     1      33.175 -22.911 -18.050  0.00  0.00    +0.004 C 
BRANCH  22  23
ATOM     23  C   UNL     1      33.677 -23.211 -16.660  0.00  0.00    -0.024 C 
ATOM     24  C   UNL     1      32.766 -23.486 -15.651  0.00  0.00    -0.004 C 
ATOM     25  C   UNL     1      35.042 -23.207 -16.412  0.00  0.00    -0.004 C 
ATOM     26  C   UNL     1      33.230 -23.763 -14.365  0.00  0.00    -0.000 C 
ATOM     27  C   UNL     1      35.506 -23.484 -15.127  0.00  0.00    -0.000 C 
ATOM     28  C   UNL     1      34.599 -23.762 -14.103  0.00  0.00    -0.000 C 
ENDBRANCH  22  23
ENDBRANCH  21  22
ENDBRANCH   1  21
TORSDOF 6
ENDMDL
MODEL 9
REMARK VINA RESULT:      -9.3      5.797     12.184
REMARK  Name = 162056
REMARK  6 active torsions:
REMARK  status: ('A' for Active; 'I' for Inactive)
REMARK    1  A    between atoms: N_1  and  C_21
REMARK    2  A    between atoms: C_2  and  N_11
REMARK    3  A    between atoms: N_11  and  C_13
REMARK    4  A    between atoms: C_12  and  C_19
REMARK    5  A    between atoms: C_21  and  C_22
REMARK    6  A    between atoms: C_22  and  C_23
REMARK                            x       y       z     vdW  Elec       q    Type
REMARK                         _______ _______ _______ _____ _____    ______ ____
ROOT
ATOM      1  N   UNL     1      35.451 -22.363 -19.318  0.00  0.00    +0.389 N 
ATOM      2  C   UNL     1      34.240 -22.759 -16.680  0.00  0.00    +0.076 C 
ATOM      3  C   UNL     1      35.759 -22.560 -16.852  0.00  0.00    -0.002 C 
ATOM      4  C   UNL     1      33.986 -22.470 -19.213  0.00  0.00    -0.056 C 
ATOM      5  C   UNL     1      33.628 -23.307 -17.975  0.00  0.00    -0.001 C 
ATOM      6  C   UNL     1      36.072 -21.763 -18.133  0.00  0.00    -0.076 C 
ATOM      7  C   UNL     1      36.387 -21.849 -15.647  0.00  0.00    -0.000 C 
ATOM      8  C   UNL     1      33.224 -21.135 -19.218  0.00  0.00    -0.023 C 
ATOM      9  H   UNL     1      35.780 -23.326 -19.372  0.00  0.00    -0.080 HD
ENDROOT
BRANCH   2  11
ATOM     10  O   UNL     1      31.606 -23.230 -15.458  0.00  0.00    -0.275 OA
ATOM     11  N   UNL     1      33.932 -23.655 -15.585  0.00  0.00    -0.260 N 
ATOM     12  C   UNL     1      32.617 -23.815 -15.061  0.00  0.00    +0.229 C 
BRANCH  11  13
ATOM     13  C   UNL     1      35.018 -24.429 -14.993  0.00  0.00    +0.054 C 
ATOM     14  C   UNL     1      35.478 -24.040 -13.769  0.00  0.00    +0.015 C 
ATOM     15  C   UNL     1      35.499 -25.491 -15.701  0.00  0.00    +0.015 C 
ATOM     16  C   UNL     1      36.515 -24.781 -13.202  0.00  0.00    +0.001 C 
ATOM     17  C   UNL     1      36.537 -26.231 -15.134  0.00  0.00    +0.001 C 
ATOM     18  C   UNL     1      37.045 -25.876 -13.884  0.00  0.00    +0.000 C 
ENDBRANCH  11  13
BRANCH  12  19
ATOM     19  C   UNL     1      32.505 -24.772 -13.876  0.00  0.00    +0.086 C 
ATOM     20  C   UNL     1      31.065 -25.058 -13.483  0.00  0.00    +0.010 C 
ENDBRANCH  12  19
ENDBRANCH   2  11
BRANCH   1  21
ATOM     21  C   UNL     1      35.889 -21.689 -20.538  0.00  0.00    -0.073 C 
BRANCH  21  22
ATOM     22  C   UNL     1      36.294 -20.243 -20.251  0.00  0.00    +0.004 C 
BRANCH  22  23
ATOM     23  C   UNL     1      35.702 -19.292 -21.261  0.00  0.00    -0.024 C 
ATOM     24  C   UNL     1      35.256 -19.783 -22.478  0.00  0.00    -0.004 C 
ATOM     25  C   UNL     1      35.614 -17.942 -20.955  0.00  0.00    -0.004 C 
ATOM     26  C   UNL     1      34.709 -18.904 -23.413  0.00  0.00    -0.000 C 
ATOM     27  C   UNL     1      35.067 -17.063 -21.890  0.00  0.00    -0.000 C 
ATOM     28  C   UNL     1      34.614 -17.545 -23.119  0.00  0.00    -0.000 C 
ENDBRANCH  22  23
ENDBRANCH  21  22
ENDBRANCH   1  21
TORSDOF 6
ENDMDL
