MODEL 1
REMARK VINA RESULT:      -8.0      0.000      0.000
REMARK  Name = 17753790
REMARK  6 active torsions:
REMARK  status: ('A' for Active; 'I' for Inactive)
REMARK    1  A    between atoms: C_2  and  C_14
REMARK    2  A    between atoms: C_6  and  N_11
REMARK    3  A    between atoms: C_14  and  CA_15
REMARK    4  A    between atoms: CA_15  and  N_16
REMARK    5  A    between atoms: CA_15  and  C_21
REMARK    6  A    between atoms: C_21  and  O_22
REMARK                            x       y       z     vdW  Elec       q    Type
REMARK                         _______ _______ _______ _____ _____    ______ ____
ROOT
ATOM      1  N   UNL     1      37.035 -19.883 -20.278  0.00  0.00    -0.312 N 
ATOM      2  C   UNL     1      35.295 -19.037 -21.367  0.00  0.00    -0.007 C 
ATOM      3  C   UNL     1      34.829 -20.096 -20.538  0.00  0.00    +0.024 C 
ATOM      4  C   UNL     1      35.940 -20.609 -19.865  0.00  0.00    +0.049 C 
ATOM      5  C   UNL     1      36.654 -18.930 -21.185  0.00  0.00    +0.058 C 
ATOM      6  C   UNL     1      33.565 -20.668 -20.294  0.00  0.00    +0.042 C 
ATOM      7  C   UNL     1      35.849 -21.670 -18.958  0.00  0.00    +0.015 C 
ATOM      8  C   UNL     1      33.459 -21.730 -19.389  0.00  0.00    +0.014 C 
ATOM      9  C   UNL     1      34.585 -22.223 -18.732  0.00  0.00    +0.003 C 
ATOM     10  H   UNL     1      37.957 -20.027 -19.966  0.00  0.00    +0.152 HD
ENDROOT
BRANCH   6  11
ATOM     11  N   UNL     1      32.395 -20.204 -20.935  0.00  0.00    -0.357 N 
ATOM     12  H   UNL     1      31.753 -20.849 -21.313  0.00  0.00    +0.142 HD
ATOM     13  H   UNL     1      32.221 -19.238 -21.003  0.00  0.00    +0.142 HD
ENDBRANCH   6  11
BRANCH   2  14
ATOM     14  C   UNL     1      34.485 -18.191 -22.268  0.00  0.00    +0.017 C 
BRANCH  14  15
ATOM     15  CA  UNL     1      35.276 -17.610 -23.468  0.00  0.00    +0.040 C 
BRANCH  15  16
ATOM     16  N   UNL     1      35.331 -16.151 -23.399  0.00  0.00    +0.389 N 
ATOM     17  H1  UNL     1      36.175 -15.821 -23.866  0.00  0.00    -0.088 HD
ATOM     18  H2  UNL     1      35.346 -15.858 -22.423  0.00  0.00    -0.088 HD
ATOM     19  H3  UNL     1      34.511 -15.757 -23.859  0.00  0.00    -0.088 HD
ENDBRANCH  15  16
BRANCH  15  21
ATOM     20  OXT UNL     1      33.970 -18.972 -25.008  0.00  0.00    -0.253 OA
ATOM     21  C   UNL     1      34.620 -17.957 -24.794  0.00  0.00    +0.293 C 
BRANCH  21  22
ATOM     22  O   UNL     1      34.803 -16.989 -25.729  0.00  0.00    -0.482 OA
ATOM     23  H   UNL     1      35.453 -17.097 -26.396  0.00  0.00    +0.295 HD
ENDBRANCH  21  22
ENDBRANCH  15  21
ENDBRANCH  14  15
ENDBRANCH   2  14
TORSDOF 6
ENDMDL
MODEL 2
REMARK VINA RESULT:      -7.8      1.565      1.851
REMARK  Name = 17753790
REMARK  6 active torsions:
REMARK  status: ('A' for Active; 'I' for Inactive)
REMARK    1  A    between atoms: C_2  and  C_14
REMARK    2  A    between atoms: C_6  and  N_11
REMARK    3  A    between atoms: C_14  and  CA_15
REMARK    4  A    between atoms: CA_15  and  N_16
REMARK    5  A    between atoms: CA_15  and  C_21
REMARK    6  A    between atoms: C_21  and  O_22
REMARK                            x       y       z     vdW  Elec       q    Type
REMARK                         _______ _______ _______ _____ _____    ______ ____
ROOT
ATOM      1  N   UNL     1      36.971 -19.850 -20.283  0.00  0.00    -0.312 N 
ATOM      2  C   UNL     1      35.188 -18.921 -21.225  0.00  0.00    -0.007 C 
ATOM      3  C   UNL     1      34.755 -20.041 -20.461  0.00  0.00    +0.024 C 
ATOM      4  C   UNL     1      35.893 -20.606 -19.881  0.00  0.00    +0.049 C 
ATOM      5  C   UNL     1      36.554 -18.829 -21.095  0.00  0.00    +0.058 C 
ATOM      6  C   UNL     1      33.500 -20.630 -20.207  0.00  0.00    +0.042 C 
ATOM      7  C   UNL     1      35.838 -21.736 -19.057  0.00  0.00    +0.015 C 
ATOM      8  C   UNL     1      33.431 -21.761 -19.385  0.00  0.00    +0.014 C 
ATOM      9  C   UNL     1      34.583 -22.304 -18.819  0.00  0.00    +0.003 C 
ATOM     10  H   UNL     1      37.905 -20.019 -20.025  0.00  0.00    +0.152 HD
ENDROOT
BRANCH   6  11
ATOM     11  N   UNL     1      32.306 -20.117 -20.757  0.00  0.00    -0.357 N 
ATOM     12  H   UNL     1      31.500 -20.683 -20.797  0.00  0.00    +0.142 HD
ATOM     13  H   UNL     1      32.278 -19.195 -21.100  0.00  0.00    +0.142 HD
ENDBRANCH   6  11
BRANCH   2  14
ATOM     14  C   UNL     1      34.343 -18.006 -22.019  0.00  0.00    +0.017 C 
BRANCH  14  15
ATOM     15  CA  UNL     1      34.470 -16.516 -21.614  0.00  0.00    +0.040 C 
BRANCH  15  16
ATOM     16  N   UNL     1      33.205 -16.007 -21.090  0.00  0.00    +0.389 N 
ATOM     17  H1  UNL     1      33.056 -16.373 -20.149  0.00  0.00    -0.088 HD
ATOM     18  H2  UNL     1      32.442 -16.306 -21.696  0.00  0.00    -0.088 HD
ATOM     19  H3  UNL     1      33.234 -14.988 -21.058  0.00  0.00    -0.088 HD
ENDBRANCH  15  16
BRANCH  15  21
ATOM     20  OXT UNL     1      34.410 -14.506 -22.988  0.00  0.00    -0.253 OA
ATOM     21  C   UNL     1      34.831 -15.640 -22.803  0.00  0.00    +0.293 C 
BRANCH  21  22
ATOM     22  O   UNL     1      35.714 -16.244 -23.639  0.00  0.00    -0.482 OA
ATOM     23  H   UNL     1      35.422 -16.910 -24.229  0.00  0.00    +0.295 HD
ENDBRANCH  21  22
ENDBRANCH  15  21
ENDBRANCH  14  15
ENDBRANCH   2  14
TORSDOF 6
ENDMDL
MODEL 3
REMARK VINA RESULT:      -7.7      1.292      2.620
REMARK  Name = 17753790
REMARK  6 active torsions:
REMARK  status: ('A' for Active; 'I' for Inactive)
REMARK    1  A    between atoms: C_2  and  C_14
REMARK    2  A    between atoms: C_6  and  N_11
REMARK    3  A    between atoms: C_14  and  CA_15
REMARK    4  A    between atoms: CA_15  and  N_16
REMARK    5  A    between atoms: CA_15  and  C_21
REMARK    6  A    between atoms: C_21  and  O_22
REMARK                            x       y       z     vdW  Elec       q    Type
REMARK                         _______ _______ _______ _____ _____    ______ ____
ROOT
ATOM      1  N   UNL     1      32.611 -20.531 -20.416  0.00  0.00    -0.312 N 
ATOM      2  C   UNL     1      34.098 -19.185 -21.366  0.00  0.00    -0.007 C 
ATOM      3  C   UNL     1      34.796 -20.089 -20.516  0.00  0.00    +0.024 C 
ATOM      4  C   UNL     1      33.839 -20.923 -19.932  0.00  0.00    +0.049 C 
ATOM      5  C   UNL     1      32.758 -19.482 -21.284  0.00  0.00    +0.058 C 
ATOM      6  C   UNL     1      36.152 -20.278 -20.187  0.00  0.00    +0.042 C 
ATOM      7  C   UNL     1      34.174 -21.940 -19.031  0.00  0.00    +0.015 C 
ATOM      8  C   UNL     1      36.502 -21.292 -19.286  0.00  0.00    +0.014 C 
ATOM      9  C   UNL     1      35.525 -22.109 -18.719  0.00  0.00    +0.003 C 
ATOM     10  H   UNL     1      31.752 -20.945 -20.174  0.00  0.00    +0.152 HD
ENDROOT
BRANCH   6  11
ATOM     11  N   UNL     1      37.177 -19.477 -20.735  0.00  0.00    -0.357 N 
ATOM     12  H   UNL     1      38.116 -19.767 -20.673  0.00  0.00    +0.142 HD
ATOM     13  H   UNL     1      36.953 -18.628 -21.179  0.00  0.00    +0.142 HD
ENDBRANCH   6  11
BRANCH   2  14
ATOM     14  C   UNL     1      34.686 -18.114 -22.198  0.00  0.00    +0.017 C 
BRANCH  14  15
ATOM     15  CA  UNL     1      34.389 -18.256 -23.712  0.00  0.00    +0.040 C 
BRANCH  15  16
ATOM     16  N   UNL     1      34.999 -19.469 -24.252  0.00  0.00    +0.389 N 
ATOM     17  H1  UNL     1      36.012 -19.415 -24.148  0.00  0.00    -0.088 HD
ATOM     18  H2  UNL     1      34.763 -19.556 -25.240  0.00  0.00    -0.088 HD
ATOM     19  H3  UNL     1      34.648 -20.282 -23.746  0.00  0.00    -0.088 HD
ENDBRANCH  15  16
BRANCH  15  21
ATOM     20  OXT UNL     1      34.830 -16.942 -25.715  0.00  0.00    -0.253 OA
ATOM     21  C   UNL     1      34.959 -17.092 -24.507  0.00  0.00    +0.293 C 
BRANCH  21  22
ATOM     22  O   UNL     1      35.611 -16.199 -23.719  0.00  0.00    -0.482 OA
ATOM     23  H   UNL     1      35.157 -15.770 -23.021  0.00  0.00    +0.295 HD
ENDBRANCH  21  22
ENDBRANCH  15  21
ENDBRANCH  14  15
ENDBRANCH   2  14
TORSDOF 6
ENDMDL
MODEL 4
REMARK VINA RESULT:      -7.6      4.490      6.572
REMARK  Name = 17753790
REMARK  6 active torsions:
REMARK  status: ('A' for Active; 'I' for Inactive)
REMARK    1  A    between atoms: C_2  and  C_14
REMARK    2  A    between atoms: C_6  and  N_11
REMARK    3  A    between atoms: C_14  and  CA_15
REMARK    4  A    between atoms: CA_15  and  N_16
REMARK    5  A    between atoms: CA_15  and  C_21
REMARK    6  A    between atoms: C_21  and  O_22
REMARK                            x       y       z     vdW  Elec       q    Type
REMARK                         _______ _______ _______ _____ _____    ______ ____
ROOT
ATOM      1  N   UNL     1      33.001 -21.993 -19.261  0.00  0.00    -0.312 N 
ATOM      2  C   UNL     1      35.181 -21.818 -18.880  0.00  0.00    -0.007 C 
ATOM      3  C   UNL     1      34.811 -20.813 -19.818  0.00  0.00    +0.024 C 
ATOM      4  C   UNL     1      33.438 -20.945 -20.040  0.00  0.00    +0.049 C 
ATOM      5  C   UNL     1      34.047 -22.526 -18.556  0.00  0.00    +0.058 C 
ATOM      6  C   UNL     1      35.515 -19.802 -20.502  0.00  0.00    +0.042 C 
ATOM      7  C   UNL     1      32.732 -20.112 -20.914  0.00  0.00    +0.015 C 
ATOM      8  C   UNL     1      34.821 -18.961 -21.380  0.00  0.00    +0.014 C 
ATOM      9  C   UNL     1      33.450 -19.116 -21.582  0.00  0.00    +0.003 C 
ATOM     10  H   UNL     1      32.072 -22.312 -19.217  0.00  0.00    +0.152 HD
ENDROOT
BRANCH   6  11
ATOM     11  N   UNL     1      36.902 -19.606 -20.331  0.00  0.00    -0.357 N 
ATOM     12  H   UNL     1      37.468 -20.346 -20.012  0.00  0.00    +0.142 HD
ATOM     13  H   UNL     1      37.304 -18.730 -20.529  0.00  0.00    +0.142 HD
ENDBRANCH   6  11
BRANCH   2  14
ATOM     14  C   UNL     1      36.531 -22.073 -18.337  0.00  0.00    +0.017 C 
BRANCH  14  15
ATOM     15  CA  UNL     1      36.655 -21.827 -16.812  0.00  0.00    +0.040 C 
BRANCH  15  16
ATOM     16  N   UNL     1      37.706 -20.853 -16.523  0.00  0.00    +0.389 N 
ATOM     17  H1  UNL     1      38.440 -20.928 -17.227  0.00  0.00    -0.088 HD
ATOM     18  H2  UNL     1      38.098 -21.041 -15.601  0.00  0.00    -0.088 HD
ATOM     19  H3  UNL     1      37.312 -19.913 -16.540  0.00  0.00    -0.088 HD
ENDBRANCH  15  16
BRANCH  15  21
ATOM     20  OXT UNL     1      36.228 -23.955 -15.706  0.00  0.00    -0.253 OA
ATOM     21  C   UNL     1      37.025 -23.099 -16.066  0.00  0.00    +0.293 C 
BRANCH  21  22
ATOM     22  O   UNL     1      38.364 -23.207 -15.864  0.00  0.00    -0.482 OA
ATOM     23  H   UNL     1      38.963 -22.858 -16.494  0.00  0.00    +0.295 HD
ENDBRANCH  21  22
ENDBRANCH  15  21
ENDBRANCH  14  15
ENDBRANCH   2  14
TORSDOF 6
ENDMDL
MODEL 5
REMARK VINA RESULT:      -7.5      3.325      4.837
REMARK  Name = 17753790
REMARK  6 active torsions:
REMARK  status: ('A' for Active; 'I' for Inactive)
REMARK    1  A    between atoms: C_2  and  C_14
REMARK    2  A    between atoms: C_6  and  N_11
REMARK    3  A    between atoms: C_14  and  CA_15
REMARK    4  A    between atoms: CA_15  and  N_16
REMARK    5  A    between atoms: CA_15  and  C_21
REMARK    6  A    between atoms: C_21  and  O_22
REMARK                            x       y       z     vdW  Elec       q    Type
REMARK                         _______ _______ _______ _____ _____    ______ ____
ROOT
ATOM      1  N   UNL     1      34.581 -17.602 -25.151  0.00  0.00    -0.312 N 
ATOM      2  C   UNL     1      34.559 -15.823 -23.825  0.00  0.00    -0.007 C 
ATOM      3  C   UNL     1      34.699 -16.982 -23.011  0.00  0.00    +0.024 C 
ATOM      4  C   UNL     1      34.711 -18.085 -23.868  0.00  0.00    +0.049 C 
ATOM      5  C   UNL     1      34.489 -16.236 -25.135  0.00  0.00    +0.058 C 
ATOM      6  C   UNL     1      34.819 -17.199 -21.624  0.00  0.00    +0.042 C 
ATOM      7  C   UNL     1      34.836 -19.399 -23.405  0.00  0.00    +0.015 C 
ATOM      8  C   UNL     1      34.944 -18.509 -21.147  0.00  0.00    +0.014 C 
ATOM      9  C   UNL     1      34.952 -19.591 -22.025  0.00  0.00    +0.003 C 
ATOM     10  H   UNL     1      34.558 -18.159 -25.963  0.00  0.00    +0.152 HD
ENDROOT
BRANCH   6  11
ATOM     11  N   UNL     1      34.816 -16.137 -20.695  0.00  0.00    -0.357 N 
ATOM     12  H   UNL     1      33.987 -15.904 -20.216  0.00  0.00    +0.142 HD
ATOM     13  H   UNL     1      35.641 -15.628 -20.527  0.00  0.00    +0.142 HD
ENDBRANCH   6  11
BRANCH   2  14
ATOM     14  C   UNL     1      34.497 -14.419 -23.369  0.00  0.00    +0.017 C 
BRANCH  14  15
ATOM     15  CA  UNL     1      33.120 -13.744 -23.588  0.00  0.00    +0.040 C 
BRANCH  15  16
ATOM     16  N   UNL     1      33.278 -12.328 -23.916  0.00  0.00    +0.389 N 
ATOM     17  H1  UNL     1      33.987 -11.916 -23.310  0.00  0.00    -0.088 HD
ATOM     18  H2  UNL     1      32.390 -11.846 -23.777  0.00  0.00    -0.088 HD
ATOM     19  H3  UNL     1      33.566 -12.235 -24.890  0.00  0.00    -0.088 HD
ENDBRANCH  15  16
BRANCH  15  21
ATOM     20  OXT UNL     1      32.175 -14.773 -21.593  0.00  0.00    -0.253 OA
ATOM     21  C   UNL     1      32.259 -13.805 -22.337  0.00  0.00    +0.293 C 
BRANCH  21  22
ATOM     22  O   UNL     1      31.603 -12.639 -22.104  0.00  0.00    -0.482 OA
ATOM     23  H   UNL     1      31.552 -12.293 -21.235  0.00  0.00    +0.295 HD
ENDBRANCH  21  22
ENDBRANCH  15  21
ENDBRANCH  14  15
ENDBRANCH   2  14
TORSDOF 6
ENDMDL
MODEL 6
REMARK VINA RESULT:      -7.4      5.952      8.470
REMARK  Name = 17753790
REMARK  6 active torsions:
REMARK  status: ('A' for Active; 'I' for Inactive)
REMARK    1  A    between atoms: C_2  and  C_14
REMARK    2  A    between atoms: C_6  and  N_11
REMARK    3  A    between atoms: C_14  and  CA_15
REMARK    4  A    between atoms: CA_15  and  N_16
REMARK    5  A    between atoms: CA_15  and  C_21
REMARK    6  A    between atoms: C_21  and  O_22
REMARK                            x       y       z     vdW  Elec       q    Type
REMARK                         _______ _______ _______ _____ _____    ______ ____
ROOT
ATOM      1  N   UNL     1      33.067 -23.172 -17.515  0.00  0.00    -0.312 N 
ATOM      2  C   UNL     1      34.682 -23.169 -15.992  0.00  0.00    -0.007 C 
ATOM      3  C   UNL     1      35.176 -22.534 -17.166  0.00  0.00    +0.024 C 
ATOM      4  C   UNL     1      34.143 -22.548 -18.106  0.00  0.00    +0.049 C 
ATOM      5  C   UNL     1      33.383 -23.550 -16.238  0.00  0.00    +0.058 C 
ATOM      6  C   UNL     1      36.406 -21.945 -17.519  0.00  0.00    +0.042 C 
ATOM      7  C   UNL     1      34.280 -22.002 -19.387  0.00  0.00    +0.015 C 
ATOM      8  C   UNL     1      36.558 -21.395 -18.798  0.00  0.00    +0.014 C 
ATOM      9  C   UNL     1      35.510 -21.424 -19.716  0.00  0.00    +0.003 C 
ATOM     10  H   UNL     1      32.196 -23.324 -17.949  0.00  0.00    +0.152 HD
ENDROOT
BRANCH   6  11
ATOM     11  N   UNL     1      37.497 -21.892 -16.625  0.00  0.00    -0.357 N 
ATOM     12  H   UNL     1      37.409 -21.411 -15.769  0.00  0.00    +0.142 HD
ATOM     13  H   UNL     1      38.345 -22.334 -16.856  0.00  0.00    +0.142 HD
ENDBRANCH   6  11
BRANCH   2  14
ATOM     14  C   UNL     1      35.411 -23.391 -14.727  0.00  0.00    +0.017 C 
BRANCH  14  15
ATOM     15  CA  UNL     1      35.921 -24.842 -14.538  0.00  0.00    +0.040 C 
BRANCH  15  16
ATOM     16  N   UNL     1      35.877 -25.232 -13.130  0.00  0.00    +0.389 N 
ATOM     17  H1  UNL     1      34.913 -25.206 -12.801  0.00  0.00    -0.088 HD
ATOM     18  H2  UNL     1      36.442 -24.584 -12.581  0.00  0.00    -0.088 HD
ATOM     19  H3  UNL     1      36.248 -26.177 -13.027  0.00  0.00    -0.088 HD
ENDBRANCH  15  16
BRANCH  15  21
ATOM     20  OXT UNL     1      38.246 -24.165 -14.795  0.00  0.00    -0.253 OA
ATOM     21  C   UNL     1      37.366 -24.993 -14.986  0.00  0.00    +0.293 C 
BRANCH  21  22
ATOM     22  O   UNL     1      37.593 -26.181 -15.603  0.00  0.00    -0.482 OA
ATOM     23  H   UNL     1      37.250 -26.338 -16.460  0.00  0.00    +0.295 HD
ENDBRANCH  21  22
ENDBRANCH  15  21
ENDBRANCH  14  15
ENDBRANCH   2  14
TORSDOF 6
ENDMDL
MODEL 7
REMARK VINA RESULT:      -7.3      2.954      5.772
REMARK  Name = 17753790
REMARK  6 active torsions:
REMARK  status: ('A' for Active; 'I' for Inactive)
REMARK    1  A    between atoms: C_2  and  C_14
REMARK    2  A    between atoms: C_6  and  N_11
REMARK    3  A    between atoms: C_14  and  CA_15
REMARK    4  A    between atoms: CA_15  and  N_16
REMARK    5  A    between atoms: CA_15  and  C_21
REMARK    6  A    between atoms: C_21  and  O_22
REMARK                            x       y       z     vdW  Elec       q    Type
REMARK                         _______ _______ _______ _____ _____    ______ ____
ROOT
ATOM      1  N   UNL     1      34.650 -18.532 -24.551  0.00  0.00    -0.312 N 
ATOM      2  C   UNL     1      35.012 -18.592 -22.362  0.00  0.00    -0.007 C 
ATOM      3  C   UNL     1      34.713 -17.249 -22.726  0.00  0.00    +0.024 C 
ATOM      4  C   UNL     1      34.489 -17.239 -24.105  0.00  0.00    +0.049 C 
ATOM      5  C   UNL     1      34.966 -19.356 -23.504  0.00  0.00    +0.058 C 
ATOM      6  C   UNL     1      34.609 -16.038 -22.013  0.00  0.00    +0.042 C 
ATOM      7  C   UNL     1      34.166 -16.073 -24.808  0.00  0.00    +0.015 C 
ATOM      8  C   UNL     1      34.288 -14.864 -22.704  0.00  0.00    +0.014 C 
ATOM      9  C   UNL     1      34.070 -14.883 -24.081  0.00  0.00    +0.003 C 
ATOM     10  H   UNL     1      34.552 -18.821 -25.486  0.00  0.00    +0.152 HD
ENDROOT
BRANCH   6  11
ATOM     11  N   UNL     1      34.821 -15.968 -20.620  0.00  0.00    -0.357 N 
ATOM     12  H   UNL     1      35.543 -15.403 -20.259  0.00  0.00    +0.142 HD
ATOM     13  H   UNL     1      34.247 -16.482 -20.008  0.00  0.00    +0.142 HD
ENDBRANCH   6  11
BRANCH   2  14
ATOM     14  C   UNL     1      35.321 -19.098 -21.009  0.00  0.00    +0.017 C 
BRANCH  14  15
ATOM     15  CA  UNL     1      34.707 -20.486 -20.699  0.00  0.00    +0.040 C 
BRANCH  15  16
ATOM     16  N   UNL     1      33.348 -20.352 -20.178  0.00  0.00    +0.389 N 
ATOM     17  H1  UNL     1      32.848 -19.641 -20.711  0.00  0.00    -0.088 HD
ATOM     18  H2  UNL     1      33.386 -20.077 -19.197  0.00  0.00    -0.088 HD
ATOM     19  H3  UNL     1      32.861 -21.245 -20.261  0.00  0.00    -0.088 HD
ENDBRANCH  15  16
BRANCH  15  21
ATOM     20  OXT UNL     1      35.259 -22.363 -19.248  0.00  0.00    -0.253 OA
ATOM     21  C   UNL     1      35.505 -21.231 -19.641  0.00  0.00    +0.293 C 
BRANCH  21  22
ATOM     22  O   UNL     1      36.564 -20.509 -19.191  0.00  0.00    -0.482 OA
ATOM     23  H   UNL     1      37.312 -20.945 -18.833  0.00  0.00    +0.295 HD
ENDBRANCH  21  22
ENDBRANCH  15  21
ENDBRANCH  14  15
ENDBRANCH   2  14
TORSDOF 6
ENDMDL
MODEL 8
REMARK VINA RESULT:      -7.2      3.482      4.903
REMARK  Name = 17753790
REMARK  6 active torsions:
REMARK  status: ('A' for Active; 'I' for Inactive)
REMARK    1  A    between atoms: C_2  and  C_14
REMARK    2  A    between atoms: C_6  and  N_11
REMARK    3  A    between atoms: C_14  and  CA_15
REMARK    4  A    between atoms: CA_15  and  N_16
REMARK    5  A    between atoms: CA_15  and  C_21
REMARK    6  A    between atoms: C_21  and  O_22
REMARK                            x       y       z     vdW  Elec       q    Type
REMARK                         _______ _______ _______ _____ _____    ______ ____
ROOT
ATOM      1  N   UNL     1      34.742 -16.076 -20.623  0.00  0.00    -0.312 N 
ATOM      2  C   UNL     1      34.432 -15.347 -22.697  0.00  0.00    -0.007 C 
ATOM      3  C   UNL     1      34.644 -16.754 -22.747  0.00  0.00    +0.024 C 
ATOM      4  C   UNL     1      34.835 -17.186 -21.432  0.00  0.00    +0.049 C 
ATOM      5  C   UNL     1      34.498 -14.961 -21.378  0.00  0.00    +0.058 C 
ATOM      6  C   UNL     1      34.690 -17.703 -23.786  0.00  0.00    +0.042 C 
ATOM      7  C   UNL     1      35.072 -18.526 -21.105  0.00  0.00    +0.015 C 
ATOM      8  C   UNL     1      34.927 -19.047 -23.474  0.00  0.00    +0.014 C 
ATOM      9  C   UNL     1      35.115 -19.450 -22.153  0.00  0.00    +0.003 C 
ATOM     10  H   UNL     1      34.837 -16.084 -19.644  0.00  0.00    +0.152 HD
ENDROOT
BRANCH   6  11
ATOM     11  N   UNL     1      34.506 -17.344 -25.139  0.00  0.00    -0.357 N 
ATOM     12  H   UNL     1      34.414 -18.044 -25.826  0.00  0.00    +0.142 HD
ATOM     13  H   UNL     1      34.470 -16.395 -25.396  0.00  0.00    +0.142 HD
ENDBRANCH   6  11
BRANCH   2  14
ATOM     14  C   UNL     1      34.184 -14.445 -23.840  0.00  0.00    +0.017 C 
BRANCH  14  15
ATOM     15  CA  UNL     1      33.598 -13.067 -23.440  0.00  0.00    +0.040 C 
BRANCH  15  16
ATOM     16  N   UNL     1      32.145 -13.137 -23.303  0.00  0.00    +0.389 N 
ATOM     17  H1  UNL     1      31.906 -13.770 -22.540  0.00  0.00    -0.088 HD
ATOM     18  H2  UNL     1      31.739 -13.482 -24.172  0.00  0.00    -0.088 HD
ATOM     19  H3  UNL     1      31.777 -12.207 -23.101  0.00  0.00    -0.088 HD
ENDBRANCH  15  16
BRANCH  15  21
ATOM     20  OXT UNL     1      33.609 -12.112 -25.681  0.00  0.00    -0.253 OA
ATOM     21  C   UNL     1      33.884 -12.008 -24.493  0.00  0.00    +0.293 C 
BRANCH  21  22
ATOM     22  O   UNL     1      34.459 -10.897 -23.964  0.00  0.00    -0.482 OA
ATOM     23  H   UNL     1      35.384 -10.870 -23.819  0.00  0.00    +0.295 HD
ENDBRANCH  21  22
ENDBRANCH  15  21
ENDBRANCH  14  15
ENDBRANCH   2  14
TORSDOF 6
ENDMDL
MODEL 9
REMARK VINA RESULT:      -7.2      2.717      6.012
REMARK  Name = 17753790
REMARK  6 active torsions:
REMARK  status: ('A' for Active; 'I' for Inactive)
REMARK    1  A    between atoms: C_2  and  C_14
REMARK    2  A    between atoms: C_6  and  N_11
REMARK    3  A    between atoms: C_14  and  CA_15
REMARK    4  A    between atoms: CA_15  and  N_16
REMARK    5  A    between atoms: CA_15  and  C_21
REMARK    6  A    between atoms: C_21  and  O_22
REMARK                            x       y       z     vdW  Elec       q    Type
REMARK                         _______ _______ _______ _____ _____    ______ ____
ROOT
ATOM      1  N   UNL     1      33.681 -14.351 -21.717  0.00  0.00    -0.312 N 
ATOM      2  C   UNL     1      34.851 -16.180 -22.177  0.00  0.00    -0.007 C 
ATOM      3  C   UNL     1      34.268 -15.710 -23.387  0.00  0.00    +0.024 C 
ATOM      4  C   UNL     1      33.539 -14.561 -23.071  0.00  0.00    +0.049 C 
ATOM      5  C   UNL     1      34.472 -15.325 -21.169  0.00  0.00    +0.058 C 
ATOM      6  C   UNL     1      34.291 -16.152 -24.725  0.00  0.00    +0.042 C 
ATOM      7  C   UNL     1      32.828 -13.830 -24.029  0.00  0.00    +0.015 C 
ATOM      8  C   UNL     1      33.584 -15.431 -25.694  0.00  0.00    +0.014 C 
ATOM      9  C   UNL     1      32.864 -14.288 -25.350  0.00  0.00    +0.003 C 
ATOM     10  H   UNL     1      33.272 -13.609 -21.216  0.00  0.00    +0.152 HD
ENDROOT
BRANCH   6  11
ATOM     11  N   UNL     1      35.004 -17.303 -25.123  0.00  0.00    -0.357 N 
ATOM     12  H   UNL     1      34.818 -18.170 -24.694  0.00  0.00    +0.142 HD
ATOM     13  H   UNL     1      35.688 -17.239 -25.827  0.00  0.00    +0.142 HD
ENDBRANCH   6  11
BRANCH   2  14
ATOM     14  C   UNL     1      35.712 -17.369 -22.009  0.00  0.00    +0.017 C 
BRANCH  14  15
ATOM     15  CA  UNL     1      35.136 -18.435 -21.043  0.00  0.00    +0.040 C 
BRANCH  15  16
ATOM     16  N   UNL     1      36.202 -19.259 -20.478  0.00  0.00    +0.389 N 
ATOM     17  H1  UNL     1      36.335 -20.087 -21.059  0.00  0.00    -0.088 HD
ATOM     18  H2  UNL     1      35.946 -19.544 -19.533  0.00  0.00    -0.088 HD
ATOM     19  H3  UNL     1      37.068 -18.722 -20.447  0.00  0.00    -0.088 HD
ENDBRANCH  15  16
BRANCH  15  21
ATOM     20  OXT UNL     1      33.234 -19.944 -21.230  0.00  0.00    -0.253 OA
ATOM     21  C   UNL     1      34.185 -19.383 -21.755  0.00  0.00    +0.293 C 
BRANCH  21  22
ATOM     22  O   UNL     1      34.486 -19.521 -23.073  0.00  0.00    -0.482 OA
ATOM     23  H   UNL     1      34.786 -20.346 -23.402  0.00  0.00    +0.295 HD
ENDBRANCH  21  22
ENDBRANCH  15  21
ENDBRANCH  14  15
ENDBRANCH   2  14
TORSDOF 6
ENDMDL
