MODEL 1
REMARK VINA RESULT:      -6.9      0.000      0.000
REMARK  Name = 68921
REMARK  8 active torsions:
REMARK  status: ('A' for Active; 'I' for Inactive)
REMARK    1  A    between atoms: C_6  and  C_24
REMARK    2  A    between atoms: C_6  and  O_30
REMARK    3  A    between atoms: C_9  and  O_21
REMARK    4  A    between atoms: C_24  and  C_25
REMARK    5  A    between atoms: C_25  and  O_26
REMARK    6  A    between atoms: O_26  and  C_28
REMARK    7  A    between atoms: O_30  and  C_32
REMARK    8  A    between atoms: C_32  and  C_33
REMARK                            x       y       z     vdW  Elec       q    Type
REMARK                         _______ _______ _______ _____ _____    ______ ____
ROOT
ATOM      1  O   UNL     1      40.262 -26.546 -13.976  0.00  0.00    -0.291 OA
ATOM      2  C   UNL     1      32.529 -23.254 -14.849  0.00  0.00    +0.043 C 
ATOM      3  C   UNL     1      33.652 -23.329 -15.907  0.00  0.00    +0.004 C 
ATOM      4  C   UNL     1      35.060 -23.126 -15.326  0.00  0.00    +0.003 C 
ATOM      5  C   UNL     1      35.329 -24.239 -14.260  0.00  0.00    +0.030 C 
ATOM      6  C   UNL     1      31.293 -23.427 -15.775  0.00  0.00    +0.190 C 
ATOM      7  C   UNL     1      32.776 -24.387 -13.832  0.00  0.00    +0.033 C 
ATOM      8  C   UNL     1      36.799 -24.187 -13.674  0.00  0.00    +0.018 C 
ATOM      9  C   UNL     1      34.186 -24.340 -13.202  0.00  0.00    +0.111 C 
ATOM     10  C   UNL     1      33.166 -22.388 -17.007  0.00  0.00    +0.004 C 
ATOM     11  C   UNL     1      31.635 -22.586 -17.026  0.00  0.00    +0.048 C 
ATOM     12  C   UNL     1      36.112 -23.191 -16.442  0.00  0.00    +0.004 C 
ATOM     13  C   UNL     1      32.453 -21.877 -14.132  0.00  0.00    +0.004 C 
ATOM     14  C   UNL     1      37.802 -24.116 -14.834  0.00  0.00    -0.042 C 
ATOM     15  C   UNL     1      37.527 -23.078 -15.893  0.00  0.00    +0.022 C 
ATOM     16  C   UNL     1      37.034 -25.483 -12.846  0.00  0.00    +0.012 C 
ATOM     17  C   UNL     1      37.062 -22.960 -12.770  0.00  0.00    +0.004 C 
ATOM     18  C   UNL     1      38.499 -25.764 -12.556  0.00  0.00    +0.069 C 
ATOM     19  C   UNL     1      38.899 -24.885 -14.928  0.00  0.00    +0.029 C 
ATOM     20  C   UNL     1      39.283 -25.814 -13.841  0.00  0.00    +0.173 C 
ENDROOT
BRANCH   9  21
ATOM     21  O   UNL     1      34.249 -23.272 -12.267  0.00  0.00    -0.384 OA
ATOM     22  H   UNL     1      33.513 -22.660 -12.426  0.00  0.00    +0.210 HD
ENDBRANCH   9  21
BRANCH   6  24
ATOM     23  O   UNL     1      29.705 -23.421 -13.998  0.00  0.00    -0.288 OA
ATOM     24  C   UNL     1      29.996 -23.040 -15.130  0.00  0.00    +0.230 C 
BRANCH  24  25
ATOM     25  C   UNL     1      29.075 -22.160 -15.950  0.00  0.00    +0.276 C 
BRANCH  25  26
ATOM     26  O   UNL     1      27.852 -21.955 -15.279  0.00  0.00    -0.440 OA
BRANCH  26  28
ATOM     27  O   UNL     1      25.569 -22.090 -15.612  0.00  0.00    -0.250 OA
ATOM     28  C   UNL     1      26.716 -22.079 -16.038  0.00  0.00    +0.318 C 
ATOM     29  C   UNL     1      27.073 -22.201 -17.489  0.00  0.00    +0.121 C 
ENDBRANCH  26  28
ENDBRANCH  25  26
ENDBRANCH  24  25
ENDBRANCH   6  24
BRANCH   6  30
ATOM     30  O   UNL     1      31.121 -24.788 -16.157  0.00  0.00    -0.448 OA
BRANCH  30  32
ATOM     31  O   UNL     1      28.957 -25.103 -16.893  0.00  0.00    -0.250 OA
ATOM     32  C   UNL     1      29.845 -25.276 -16.068  0.00  0.00    +0.317 C 
BRANCH  32  33
ATOM     33  C   UNL     1      29.703 -26.064 -14.787  0.00  0.00    +0.110 C 
ATOM     34  C   UNL     1      28.267 -26.490 -14.535  0.00  0.00    +0.012 C 
ENDBRANCH  32  33
ENDBRANCH  30  32
ENDBRANCH   6  30
TORSDOF 8
ENDMDL
MODEL 2
REMARK VINA RESULT:      -6.9     13.627     16.503
REMARK  Name = 68921
REMARK  8 active torsions:
REMARK  status: ('A' for Active; 'I' for Inactive)
REMARK    1  A    between atoms: C_6  and  C_24
REMARK    2  A    between atoms: C_6  and  O_30
REMARK    3  A    between atoms: C_9  and  O_21
REMARK    4  A    between atoms: C_24  and  C_25
REMARK    5  A    between atoms: C_25  and  O_26
REMARK    6  A    between atoms: O_26  and  C_28
REMARK    7  A    between atoms: O_30  and  C_32
REMARK    8  A    between atoms: C_32  and  C_33
REMARK                            x       y       z     vdW  Elec       q    Type
REMARK                         _______ _______ _______ _____ _____    ______ ____
ROOT
ATOM      1  O   UNL     1      31.068  -4.665 -24.552  0.00  0.00    -0.291 OA
ATOM      2  C   UNL     1      33.667 -12.653 -23.645  0.00  0.00    +0.043 C 
ATOM      3  C   UNL     1      32.411 -11.990 -23.036  0.00  0.00    +0.004 C 
ATOM      4  C   UNL     1      32.631 -10.529 -22.616  0.00  0.00    +0.003 C 
ATOM      5  C   UNL     1      33.048  -9.701 -23.874  0.00  0.00    +0.030 C 
ATOM      6  C   UNL     1      33.112 -14.086 -23.877  0.00  0.00    +0.190 C 
ATOM      7  C   UNL     1      34.039 -11.859 -24.914  0.00  0.00    +0.033 C 
ATOM      8  C   UNL     1      33.194  -8.153 -23.572  0.00  0.00    +0.018 C 
ATOM      9  C   UNL     1      34.237 -10.350 -24.648  0.00  0.00    +0.111 C 
ATOM     10  C   UNL     1      31.953 -12.998 -21.985  0.00  0.00    +0.004 C 
ATOM     11  C   UNL     1      32.261 -14.372 -22.618  0.00  0.00    +0.048 C 
ATOM     12  C   UNL     1      31.347  -9.953 -21.999  0.00  0.00    +0.004 C 
ATOM     13  C   UNL     1      34.867 -12.714 -22.661  0.00  0.00    +0.004 C 
ATOM     14  C   UNL     1      31.941  -7.662 -22.836  0.00  0.00    -0.042 C 
ATOM     15  C   UNL     1      31.500  -8.480 -21.647  0.00  0.00    +0.022 C 
ATOM     16  C   UNL     1      33.339  -7.408 -24.931  0.00  0.00    +0.012 C 
ATOM     17  C   UNL     1      34.410  -7.808 -22.681  0.00  0.00    +0.004 C 
ATOM     18  C   UNL     1      33.093  -5.911 -24.835  0.00  0.00    +0.069 C 
ATOM     19  C   UNL     1      31.259  -6.552 -23.166  0.00  0.00    +0.029 C 
ATOM     20  C   UNL     1      31.739  -5.644 -24.232  0.00  0.00    +0.173 C 
ENDROOT
BRANCH   9  21
ATOM     21  O   UNL     1      35.470 -10.149 -23.969  0.00  0.00    -0.384 OA
ATOM     22  H   UNL     1      36.162  -9.936 -24.614  0.00  0.00    +0.210 HD
ENDBRANCH   9  21
BRANCH   6  24
ATOM     23  O   UNL     1      35.044 -14.941 -24.980  0.00  0.00    -0.288 OA
ATOM     24  C   UNL     1      34.175 -15.114 -24.126  0.00  0.00    +0.230 C 
BRANCH  24  25
ATOM     25  C   UNL     1      34.115 -16.363 -23.271  0.00  0.00    +0.276 C 
BRANCH  25  26
ATOM     26  O   UNL     1      35.274 -16.478 -22.476  0.00  0.00    -0.440 OA
BRANCH  26  28
ATOM     27  O   UNL     1      35.283 -17.923 -20.672  0.00  0.00    -0.250 OA
ATOM     28  C   UNL     1      35.075 -16.821 -21.162  0.00  0.00    +0.318 C 
ATOM     29  C   UNL     1      34.560 -15.644 -20.391  0.00  0.00    +0.121 C 
ENDBRANCH  26  28
ENDBRANCH  25  26
ENDBRANCH  24  25
ENDBRANCH   6  24
BRANCH   6  30
ATOM     30  O   UNL     1      32.276 -14.136 -25.029  0.00  0.00    -0.448 OA
BRANCH  30  32
ATOM     31  O   UNL     1      32.814 -16.024 -26.241  0.00  0.00    -0.250 OA
ATOM     32  C   UNL     1      32.787 -14.808 -26.107  0.00  0.00    +0.317 C 
BRANCH  32  33
ATOM     33  C   UNL     1      33.312 -13.809 -27.111  0.00  0.00    +0.110 C 
ATOM     34  C   UNL     1      32.246 -12.817 -27.541  0.00  0.00    +0.012 C 
ENDBRANCH  32  33
ENDBRANCH  30  32
ENDBRANCH   6  30
TORSDOF 8
ENDMDL
MODEL 3
REMARK VINA RESULT:      -6.3      6.061      8.299
REMARK  Name = 68921
REMARK  8 active torsions:
REMARK  status: ('A' for Active; 'I' for Inactive)
REMARK    1  A    between atoms: C_6  and  C_24
REMARK    2  A    between atoms: C_6  and  O_30
REMARK    3  A    between atoms: C_9  and  O_21
REMARK    4  A    between atoms: C_24  and  C_25
REMARK    5  A    between atoms: C_25  and  O_26
REMARK    6  A    between atoms: O_26  and  C_28
REMARK    7  A    between atoms: O_30  and  C_32
REMARK    8  A    between atoms: C_32  and  C_33
REMARK                            x       y       z     vdW  Elec       q    Type
REMARK                         _______ _______ _______ _____ _____    ______ ____
ROOT
ATOM      1  O   UNL     1      33.997 -23.542 -12.290  0.00  0.00    -0.291 OA
ATOM      2  C   UNL     1      35.424 -20.636 -20.095  0.00  0.00    +0.043 C 
ATOM      3  C   UNL     1      34.062 -20.935 -19.429  0.00  0.00    +0.004 C 
ATOM      4  C   UNL     1      34.084 -22.165 -18.509  0.00  0.00    +0.003 C 
ATOM      5  C   UNL     1      35.131 -21.925 -17.373  0.00  0.00    +0.030 C 
ATOM      6  C   UNL     1      35.018 -19.418 -20.970  0.00  0.00    +0.190 C 
ATOM      7  C   UNL     1      36.436 -20.351 -18.967  0.00  0.00    +0.033 C 
ATOM      8  C   UNL     1      35.157 -23.091 -16.303  0.00  0.00    +0.018 C 
ATOM      9  C   UNL     1      36.524 -21.491 -17.928  0.00  0.00    +0.111 C 
ATOM     10  C   UNL     1      33.082 -20.907 -20.599  0.00  0.00    +0.004 C 
ATOM     11  C   UNL     1      33.623 -19.793 -21.521  0.00  0.00    +0.048 C 
ATOM     12  C   UNL     1      32.691 -22.407 -17.908  0.00  0.00    +0.004 C 
ATOM     13  C   UNL     1      35.925 -21.789 -21.008  0.00  0.00    +0.004 C 
ATOM     14  C   UNL     1      33.723 -23.381 -15.838  0.00  0.00    -0.042 C 
ATOM     15  C   UNL     1      32.693 -23.568 -16.924  0.00  0.00    +0.022 C 
ATOM     16  C   UNL     1      36.021 -22.621 -15.097  0.00  0.00    +0.012 C 
ATOM     17  C   UNL     1      35.736 -24.418 -16.846  0.00  0.00    +0.004 C 
ATOM     18  C   UNL     1      35.820 -23.453 -13.841  0.00  0.00    +0.069 C 
ATOM     19  C   UNL     1      33.359 -23.509 -14.551  0.00  0.00    +0.029 C 
ATOM     20  C   UNL     1      34.362 -23.477 -13.462  0.00  0.00    +0.173 C 
ENDROOT
BRANCH   9  21
ATOM     21  O   UNL     1      37.223 -22.592 -18.494  0.00  0.00    -0.384 OA
ATOM     22  H   UNL     1      37.696 -22.299 -19.288  0.00  0.00    +0.210 HD
ENDBRANCH   9  21
BRANCH   6  24
ATOM     23  O   UNL     1      37.183 -18.818 -21.767  0.00  0.00    -0.288 OA
ATOM     24  C   UNL     1      36.014 -19.085 -22.041  0.00  0.00    +0.230 C 
BRANCH  24  25
ATOM     25  C   UNL     1      35.497 -19.097 -23.465  0.00  0.00    +0.276 C 
BRANCH  25  26
ATOM     26  O   UNL     1      35.414 -17.785 -23.977  0.00  0.00    -0.440 OA
BRANCH  26  28
ATOM     27  O   UNL     1      34.664 -16.648 -25.843  0.00  0.00    -0.250 OA
ATOM     28  C   UNL     1      34.647 -17.622 -25.103  0.00  0.00    +0.318 C 
ATOM     29  C   UNL     1      33.769 -18.818 -25.310  0.00  0.00    +0.121 C 
ENDBRANCH  26  28
ENDBRANCH  25  26
ENDBRANCH  24  25
ENDBRANCH   6  24
BRANCH   6  30
ATOM     30  O   UNL     1      34.911 -18.233 -20.188  0.00  0.00    -0.448 OA
BRANCH  30  32
ATOM     31  O   UNL     1      32.903 -17.350 -20.904  0.00  0.00    -0.250 OA
ATOM     32  C   UNL     1      34.106 -17.251 -20.700  0.00  0.00    +0.317 C 
BRANCH  32  33
ATOM     33  C   UNL     1      34.937 -16.020 -20.973  0.00  0.00    +0.110 C 
ATOM     34  C   UNL     1      34.245 -15.063 -21.927  0.00  0.00    +0.012 C 
ENDBRANCH  32  33
ENDBRANCH  30  32
ENDBRANCH   6  30
TORSDOF 8
ENDMDL
MODEL 4
REMARK VINA RESULT:      -6.2      7.636      9.544
REMARK  Name = 68921
REMARK  8 active torsions:
REMARK  status: ('A' for Active; 'I' for Inactive)
REMARK    1  A    between atoms: C_6  and  C_24
REMARK    2  A    between atoms: C_6  and  O_30
REMARK    3  A    between atoms: C_9  and  O_21
REMARK    4  A    between atoms: C_24  and  C_25
REMARK    5  A    between atoms: C_25  and  O_26
REMARK    6  A    between atoms: O_26  and  C_28
REMARK    7  A    between atoms: O_30  and  C_32
REMARK    8  A    between atoms: C_32  and  C_33
REMARK                            x       y       z     vdW  Elec       q    Type
REMARK                         _______ _______ _______ _____ _____    ______ ____
ROOT
ATOM      1  O   UNL     1      36.146 -23.244 -14.819  0.00  0.00    -0.291 OA
ATOM      2  C   UNL     1      34.954 -18.386 -21.629  0.00  0.00    +0.043 C 
ATOM      3  C   UNL     1      33.893 -19.175 -20.830  0.00  0.00    +0.004 C 
ATOM      4  C   UNL     1      34.397 -20.530 -20.310  0.00  0.00    +0.003 C 
ATOM      5  C   UNL     1      35.621 -20.285 -19.369  0.00  0.00    +0.030 C 
ATOM      6  C   UNL     1      34.101 -17.154 -22.038  0.00  0.00    +0.190 C 
ATOM      7  C   UNL     1      36.134 -18.105 -20.676  0.00  0.00    +0.033 C 
ATOM      8  C   UNL     1      36.152 -21.613 -18.690  0.00  0.00    +0.018 C 
ATOM      9  C   UNL     1      36.711 -19.385 -20.031  0.00  0.00    +0.111 C 
ATOM     10  C   UNL     1      32.669 -19.144 -21.741  0.00  0.00    +0.004 C 
ATOM     11  C   UNL     1      32.722 -17.750 -22.400  0.00  0.00    +0.048 C 
ATOM     12  C   UNL     1      33.278 -21.260 -19.551  0.00  0.00    +0.004 C 
ATOM     13  C   UNL     1      35.440 -19.130 -22.904  0.00  0.00    +0.004 C 
ATOM     14  C   UNL     1      34.971 -22.367 -18.065  0.00  0.00    -0.042 C 
ATOM     15  C   UNL     1      33.764 -22.570 -18.948  0.00  0.00    +0.022 C 
ATOM     16  C   UNL     1      37.173 -21.215 -17.585  0.00  0.00    +0.012 C 
ATOM     17  C   UNL     1      36.839 -22.583 -19.680  0.00  0.00    +0.004 C 
ATOM     18  C   UNL     1      37.467 -22.331 -16.596  0.00  0.00    +0.069 C 
ATOM     19  C   UNL     1      34.973 -22.873 -16.820  0.00  0.00    +0.029 C 
ATOM     20  C   UNL     1      36.186 -22.823 -15.973  0.00  0.00    +0.173 C 
ENDROOT
BRANCH   9  21
ATOM     21  O   UNL     1      37.459 -20.106 -21.001  0.00  0.00    -0.384 OA
ATOM     22  H   UNL     1      37.878 -19.482 -21.614  0.00  0.00    +0.210 HD
ENDBRANCH   9  21
BRANCH   6  24
ATOM     23  O   UNL     1      35.671 -15.600 -22.934  0.00  0.00    -0.288 OA
ATOM     24  C   UNL     1      34.708 -16.337 -23.140  0.00  0.00    +0.230 C 
BRANCH  24  25
ATOM     25  C   UNL     1      34.071 -16.476 -24.507  0.00  0.00    +0.276 C 
BRANCH  25  26
ATOM     26  O   UNL     1      33.948 -15.216 -25.130  0.00  0.00    -0.440 OA
BRANCH  26  28
ATOM     27  O   UNL     1      32.553 -16.114 -26.738  0.00  0.00    -0.250 OA
ATOM     28  C   UNL     1      33.135 -15.164 -26.234  0.00  0.00    +0.318 C 
ATOM     29  C   UNL     1      33.052 -13.760 -26.751  0.00  0.00    +0.121 C 
ENDBRANCH  26  28
ENDBRANCH  25  26
ENDBRANCH  24  25
ENDBRANCH   6  24
BRANCH   6  30
ATOM     30  O   UNL     1      33.950 -16.246 -20.950  0.00  0.00    -0.448 OA
BRANCH  30  32
ATOM     31  O   UNL     1      31.668 -16.049 -20.676  0.00  0.00    -0.250 OA
ATOM     32  C   UNL     1      32.766 -15.560 -20.907  0.00  0.00    +0.317 C 
BRANCH  32  33
ATOM     33  C   UNL     1      33.029 -14.099 -21.186  0.00  0.00    +0.110 C 
ATOM     34  C   UNL     1      32.316 -13.620 -22.439  0.00  0.00    +0.012 C 
ENDBRANCH  32  33
ENDBRANCH  30  32
ENDBRANCH   6  30
TORSDOF 8
ENDMDL
MODEL 5
REMARK VINA RESULT:      -5.9      1.778      8.410
REMARK  Name = 68921
REMARK  8 active torsions:
REMARK  status: ('A' for Active; 'I' for Inactive)
REMARK    1  A    between atoms: C_6  and  C_24
REMARK    2  A    between atoms: C_6  and  O_30
REMARK    3  A    between atoms: C_9  and  O_21
REMARK    4  A    between atoms: C_24  and  C_25
REMARK    5  A    between atoms: C_25  and  O_26
REMARK    6  A    between atoms: O_26  and  C_28
REMARK    7  A    between atoms: O_30  and  C_32
REMARK    8  A    between atoms: C_32  and  C_33
REMARK                            x       y       z     vdW  Elec       q    Type
REMARK                         _______ _______ _______ _____ _____    ______ ____
ROOT
ATOM      1  O   UNL     1      26.482 -21.902 -17.421  0.00  0.00    -0.291 OA
ATOM      2  C   UNL     1      33.968 -23.807 -13.997  0.00  0.00    +0.043 C 
ATOM      3  C   UNL     1      33.441 -24.194 -15.397  0.00  0.00    +0.004 C 
ATOM      4  C   UNL     1      31.938 -24.513 -15.421  0.00  0.00    +0.003 C 
ATOM      5  C   UNL     1      31.148 -23.251 -14.942  0.00  0.00    +0.030 C 
ATOM      6  C   UNL     1      35.475 -23.630 -14.333  0.00  0.00    +0.190 C 
ATOM      7  C   UNL     1      33.219 -22.533 -13.557  0.00  0.00    +0.033 C 
ATOM      8  C   UNL     1      29.578 -23.436 -15.032  0.00  0.00    +0.018 C 
ATOM      9  C   UNL     1      31.683 -22.692 -13.586  0.00  0.00    +0.111 C 
ATOM     10  C   UNL     1      34.427 -25.260 -15.866  0.00  0.00    +0.004 C 
ATOM     11  C   UNL     1      35.787 -24.790 -15.306  0.00  0.00    +0.048 C 
ATOM     12  C   UNL     1      31.499 -24.910 -16.839  0.00  0.00    +0.004 C 
ATOM     13  C   UNL     1      33.800 -24.938 -12.945  0.00  0.00    +0.004 C 
ATOM     14  C   UNL     1      29.212 -23.964 -16.426  0.00  0.00    -0.042 C 
ATOM     15  C   UNL     1      29.999 -25.152 -16.920  0.00  0.00    +0.022 C 
ATOM     16  C   UNL     1      28.914 -22.049 -14.797  0.00  0.00    +0.012 C 
ATOM     17  C   UNL     1      29.013 -24.443 -14.002  0.00  0.00    +0.004 C 
ATOM     18  C   UNL     1      27.461 -21.986 -15.237  0.00  0.00    +0.069 C 
ATOM     19  C   UNL     1      28.229 -23.457 -17.189  0.00  0.00    +0.029 C 
ATOM     20  C   UNL     1      27.339 -22.386 -16.684  0.00  0.00    +0.173 C 
ENDROOT
BRANCH   9  21
ATOM     21  O   UNL     1      31.272 -23.503 -12.493  0.00  0.00    -0.384 OA
ATOM     22  H   UNL     1      31.819 -23.300 -11.718  0.00  0.00    +0.210 HD
ENDBRANCH   9  21
BRANCH   6  24
ATOM     23  O   UNL     1      36.400 -22.631 -12.377  0.00  0.00    -0.288 OA
ATOM     24  C   UNL     1      36.365 -23.606 -13.126  0.00  0.00    +0.230 C 
BRANCH  24  25
ATOM     25  C   UNL     1      37.207 -24.842 -12.888  0.00  0.00    +0.276 C 
BRANCH  25  26
ATOM     26  O   UNL     1      38.528 -24.640 -13.340  0.00  0.00    -0.440 OA
BRANCH  26  28
ATOM     27  O   UNL     1      38.534 -26.706 -14.375  0.00  0.00    -0.250 OA
ATOM     28  C   UNL     1      39.047 -25.618 -14.150  0.00  0.00    +0.318 C 
ATOM     29  C   UNL     1      40.353 -25.170 -14.733  0.00  0.00    +0.121 C 
ENDBRANCH  26  28
ENDBRANCH  25  26
ENDBRANCH  24  25
ENDBRANCH   6  24
BRANCH   6  30
ATOM     30  O   UNL     1      35.715 -22.389 -14.990  0.00  0.00    -0.448 OA
BRANCH  30  32
ATOM     31  O   UNL     1      37.833 -22.569 -15.887  0.00  0.00    -0.250 OA
ATOM     32  C   UNL     1      36.624 -22.422 -16.013  0.00  0.00    +0.317 C 
BRANCH  32  33
ATOM     33  C   UNL     1      35.899 -22.249 -17.327  0.00  0.00    +0.110 C 
ATOM     34  C   UNL     1      36.727 -21.474 -18.338  0.00  0.00    +0.012 C 
ENDBRANCH  32  33
ENDBRANCH  30  32
ENDBRANCH   6  30
TORSDOF 8
ENDMDL
MODEL 6
REMARK VINA RESULT:      -5.8     12.779     15.075
REMARK  Name = 68921
REMARK  8 active torsions:
REMARK  status: ('A' for Active; 'I' for Inactive)
REMARK    1  A    between atoms: C_6  and  C_24
REMARK    2  A    between atoms: C_6  and  O_30
REMARK    3  A    between atoms: C_9  and  O_21
REMARK    4  A    between atoms: C_24  and  C_25
REMARK    5  A    between atoms: C_25  and  O_26
REMARK    6  A    between atoms: O_26  and  C_28
REMARK    7  A    between atoms: O_30  and  C_32
REMARK    8  A    between atoms: C_32  and  C_33
REMARK                            x       y       z     vdW  Elec       q    Type
REMARK                         _______ _______ _______ _____ _____    ______ ____
ROOT
ATOM      1  O   UNL     1      36.578 -18.508 -21.250  0.00  0.00    -0.291 OA
ATOM      2  C   UNL     1      32.141 -11.475 -22.749  0.00  0.00    +0.043 C 
ATOM      3  C   UNL     1      32.078 -12.388 -21.504  0.00  0.00    +0.004 C 
ATOM      4  C   UNL     1      32.238 -13.882 -21.828  0.00  0.00    +0.003 C 
ATOM      5  C   UNL     1      33.625 -14.102 -22.516  0.00  0.00    +0.030 C 
ATOM      6  C   UNL     1      31.883 -10.101 -22.071  0.00  0.00    +0.190 C 
ATOM      7  C   UNL     1      33.531 -11.663 -23.389  0.00  0.00    +0.033 C 
ATOM      8  C   UNL     1      33.938 -15.629 -22.795  0.00  0.00    +0.018 C 
ATOM      9  C   UNL     1      33.853 -13.137 -23.721  0.00  0.00    +0.111 C 
ATOM     10  C   UNL     1      30.815 -11.921 -20.785  0.00  0.00    +0.004 C 
ATOM     11  C   UNL     1      30.788 -10.396 -21.020  0.00  0.00    +0.048 C 
ATOM     12  C   UNL     1      32.139 -14.719 -20.544  0.00  0.00    +0.004 C 
ATOM     13  C   UNL     1      31.015 -11.766 -23.780  0.00  0.00    +0.004 C 
ATOM     14  C   UNL     1      33.692 -16.436 -21.513  0.00  0.00    -0.042 C 
ATOM     15  C   UNL     1      32.377 -16.198 -20.814  0.00  0.00    +0.022 C 
ATOM     16  C   UNL     1      35.431 -15.745 -23.219  0.00  0.00    +0.012 C 
ATOM     17  C   UNL     1      33.053 -16.250 -23.901  0.00  0.00    +0.004 C 
ATOM     18  C   UNL     1      35.979 -17.160 -23.137  0.00  0.00    +0.069 C 
ATOM     19  C   UNL     1      34.550 -17.345 -21.019  0.00  0.00    +0.029 C 
ATOM     20  C   UNL     1      35.784 -17.714 -21.750  0.00  0.00    +0.173 C 
ENDROOT
BRANCH   9  21
ATOM     21  O   UNL     1      33.100 -13.540 -24.857  0.00  0.00    -0.384 OA
ATOM     22  H   UNL     1      33.027 -14.507 -24.870  0.00  0.00    +0.210 HD
ENDBRANCH   9  21
BRANCH   6  24
ATOM     23  O   UNL     1      30.411  -8.466 -22.986  0.00  0.00    -0.288 OA
ATOM     24  C   UNL     1      31.511  -9.013 -23.033  0.00  0.00    +0.230 C 
BRANCH  24  25
ATOM     25  C   UNL     1      32.564  -8.631 -24.054  0.00  0.00    +0.276 C 
BRANCH  25  26
ATOM     26  O   UNL     1      32.697  -7.229 -24.132  0.00  0.00    -0.440 OA
BRANCH  26  28
ATOM     27  O   UNL     1      34.158  -5.922 -25.356  0.00  0.00    -0.250 OA
ATOM     28  C   UNL     1      33.935  -6.758 -24.490  0.00  0.00    +0.318 C 
ATOM     29  C   UNL     1      34.999  -7.414 -23.664  0.00  0.00    +0.121 C 
ENDBRANCH  26  28
ENDBRANCH  25  26
ENDBRANCH  24  25
ENDBRANCH   6  24
BRANCH   6  30
ATOM     30  O   UNL     1      33.051  -9.624 -21.411  0.00  0.00    -0.448 OA
BRANCH  30  32
ATOM     31  O   UNL     1      32.438  -9.230 -19.222  0.00  0.00    -0.250 OA
ATOM     32  C   UNL     1      32.835  -8.838 -20.311  0.00  0.00    +0.317 C 
BRANCH  32  33
ATOM     33  C   UNL     1      33.168  -7.405 -20.653  0.00  0.00    +0.110 C 
ATOM     34  C   UNL     1      31.941  -6.509 -20.615  0.00  0.00    +0.012 C 
ENDBRANCH  32  33
ENDBRANCH  30  32
ENDBRANCH   6  30
TORSDOF 8
ENDMDL
MODEL 7
REMARK VINA RESULT:      -5.7     13.138     15.311
REMARK  Name = 68921
REMARK  8 active torsions:
REMARK  status: ('A' for Active; 'I' for Inactive)
REMARK    1  A    between atoms: C_6  and  C_24
REMARK    2  A    between atoms: C_6  and  O_30
REMARK    3  A    between atoms: C_9  and  O_21
REMARK    4  A    between atoms: C_24  and  C_25
REMARK    5  A    between atoms: C_25  and  O_26
REMARK    6  A    between atoms: O_26  and  C_28
REMARK    7  A    between atoms: O_30  and  C_32
REMARK    8  A    between atoms: C_32  and  C_33
REMARK                            x       y       z     vdW  Elec       q    Type
REMARK                         _______ _______ _______ _____ _____    ______ ____
ROOT
ATOM      1  O   UNL     1      36.068 -18.415 -20.667  0.00  0.00    -0.291 OA
ATOM      2  C   UNL     1      32.464 -11.142 -23.016  0.00  0.00    +0.043 C 
ATOM      3  C   UNL     1      32.141 -12.002 -21.774  0.00  0.00    +0.004 C 
ATOM      4  C   UNL     1      32.234 -13.514 -22.031  0.00  0.00    +0.003 C 
ATOM      5  C   UNL     1      33.690 -13.858 -22.488  0.00  0.00    +0.030 C 
ATOM      6  C   UNL     1      32.210  -9.730 -22.421  0.00  0.00    +0.190 C 
ATOM      7  C   UNL     1      33.918 -11.452 -23.426  0.00  0.00    +0.033 C 
ATOM      8  C   UNL     1      33.925 -15.412 -22.677  0.00  0.00    +0.018 C 
ATOM      9  C   UNL     1      34.174 -12.957 -23.666  0.00  0.00    +0.111 C 
ATOM     10  C   UNL     1      30.822 -11.420 -21.273  0.00  0.00    +0.004 C 
ATOM     11  C   UNL     1      30.947  -9.907 -21.547  0.00  0.00    +0.048 C 
ATOM     12  C   UNL     1      31.875 -14.296 -20.759  0.00  0.00    +0.004 C 
ATOM     13  C   UNL     1      31.492 -11.390 -24.203  0.00  0.00    +0.004 C 
ATOM     14  C   UNL     1      33.424 -16.153 -21.430  0.00  0.00    -0.042 C 
ATOM     15  C   UNL     1      32.038 -15.796 -20.951  0.00  0.00    +0.022 C 
ATOM     16  C   UNL     1      35.452 -15.651 -22.859  0.00  0.00    +0.012 C 
ATOM     17  C   UNL     1      33.176 -16.009 -23.892  0.00  0.00    +0.004 C 
ATOM     18  C   UNL     1      35.871 -17.098 -22.657  0.00  0.00    +0.069 C 
ATOM     19  C   UNL     1      34.123 -17.103 -20.785  0.00  0.00    +0.029 C 
ATOM     20  C   UNL     1      35.423 -17.585 -21.304  0.00  0.00    +0.173 C 
ENDROOT
BRANCH   9  21
ATOM     21  O   UNL     1      33.576 -13.345 -24.896  0.00  0.00    -0.384 OA
ATOM     22  H   UNL     1      32.641 -13.090 -24.895  0.00  0.00    +0.210 HD
ENDBRANCH   9  21
BRANCH   6  24
ATOM     23  O   UNL     1      32.995  -8.391 -24.230  0.00  0.00    -0.288 OA
ATOM     24  C   UNL     1      32.076  -8.653 -23.456  0.00  0.00    +0.230 C 
BRANCH  24  25
ATOM     25  C   UNL     1      30.753  -7.917 -23.491  0.00  0.00    +0.276 C 
BRANCH  25  26
ATOM     26  O   UNL     1      30.735  -6.971 -24.538  0.00  0.00    -0.440 OA
BRANCH  26  28
ATOM     27  O   UNL     1      30.544  -5.018 -23.319  0.00  0.00    -0.250 OA
ATOM     28  C   UNL     1      31.072  -5.685 -24.198  0.00  0.00    +0.318 C 
ATOM     29  C   UNL     1      32.193  -5.196 -25.064  0.00  0.00    +0.121 C 
ENDBRANCH  26  28
ENDBRANCH  25  26
ENDBRANCH  24  25
ENDBRANCH   6  24
BRANCH   6  30
ATOM     30  O   UNL     1      33.296  -9.313 -21.598  0.00  0.00    -0.448 OA
BRANCH  30  32
ATOM     31  O   UNL     1      32.566  -8.997 -19.433  0.00  0.00    -0.250 OA
ATOM     32  C   UNL     1      32.961  -8.560 -20.505  0.00  0.00    +0.317 C 
BRANCH  32  33
ATOM     33  C   UNL     1      33.157  -7.098 -20.831  0.00  0.00    +0.110 C 
ATOM     34  C   UNL     1      31.920  -6.273 -20.521  0.00  0.00    +0.012 C 
ENDBRANCH  32  33
ENDBRANCH  30  32
ENDBRANCH   6  30
TORSDOF 8
ENDMDL
MODEL 8
REMARK VINA RESULT:      -5.4     15.133     17.348
REMARK  Name = 68921
REMARK  8 active torsions:
REMARK  status: ('A' for Active; 'I' for Inactive)
REMARK    1  A    between atoms: C_6  and  C_24
REMARK    2  A    between atoms: C_6  and  O_30
REMARK    3  A    between atoms: C_9  and  O_21
REMARK    4  A    between atoms: C_24  and  C_25
REMARK    5  A    between atoms: C_25  and  O_26
REMARK    6  A    between atoms: O_26  and  C_28
REMARK    7  A    between atoms: O_30  and  C_32
REMARK    8  A    between atoms: C_32  and  C_33
REMARK                            x       y       z     vdW  Elec       q    Type
REMARK                         _______ _______ _______ _____ _____    ______ ____
ROOT
ATOM      1  O   UNL     1      34.308 -16.344 -20.557  0.00  0.00    -0.291 OA
ATOM      2  C   UNL     1      32.707  -8.755 -23.910  0.00  0.00    +0.043 C 
ATOM      3  C   UNL     1      31.953  -9.462 -22.762  0.00  0.00    +0.004 C 
ATOM      4  C   UNL     1      31.835 -10.983 -22.948  0.00  0.00    +0.003 C 
ATOM      5  C   UNL     1      33.273 -11.593 -23.026  0.00  0.00    +0.030 C 
ATOM      6  C   UNL     1      32.575  -7.282 -23.433  0.00  0.00    +0.190 C 
ATOM      7  C   UNL     1      34.139  -9.329 -23.944  0.00  0.00    +0.033 C 
ATOM      8  C   UNL     1      33.266 -13.174 -23.110  0.00  0.00    +0.018 C 
ATOM      9  C   UNL     1      34.173 -10.868 -24.074  0.00  0.00    +0.111 C 
ATOM     10  C   UNL     1      30.678  -8.637 -22.615  0.00  0.00    +0.004 C 
ATOM     11  C   UNL     1      31.130  -7.187 -22.891  0.00  0.00    +0.048 C 
ATOM     12  C   UNL     1      31.053 -11.604 -21.781  0.00  0.00    +0.004 C 
ATOM     13  C   UNL     1      32.015  -8.920 -25.291  0.00  0.00    +0.004 C 
ATOM     14  C   UNL     1      32.362 -13.734 -22.004  0.00  0.00    -0.042 C 
ATOM     15  C   UNL     1      30.989 -13.121 -21.888  0.00  0.00    +0.022 C 
ATOM     16  C   UNL     1      34.726 -13.674 -22.907  0.00  0.00    +0.012 C 
ATOM     17  C   UNL     1      32.733 -13.721 -24.454  0.00  0.00    +0.004 C 
ATOM     18  C   UNL     1      34.823 -15.153 -22.570  0.00  0.00    +0.069 C 
ATOM     19  C   UNL     1      32.710 -14.740 -21.182  0.00  0.00    +0.029 C 
ATOM     20  C   UNL     1      33.989 -15.465 -21.355  0.00  0.00    +0.173 C 
ENDROOT
BRANCH   9  21
ATOM     21  O   UNL     1      33.824 -11.236 -25.402  0.00  0.00    -0.384 OA
ATOM     22  H   UNL     1      34.629 -11.449 -25.899  0.00  0.00    +0.210 HD
ENDBRANCH   9  21
BRANCH   6  24
ATOM     23  O   UNL     1      33.991  -6.217 -25.027  0.00  0.00    -0.288 OA
ATOM     24  C   UNL     1      32.882  -6.272 -24.499  0.00  0.00    +0.230 C 
BRANCH  24  25
ATOM     25  C   UNL     1      31.754  -5.336 -24.880  0.00  0.00    +0.276 C 
BRANCH  25  26
ATOM     26  O   UNL     1      32.107  -3.996 -24.614  0.00  0.00    -0.440 OA
BRANCH  26  28
ATOM     27  O   UNL     1      30.411  -3.826 -23.054  0.00  0.00    -0.250 OA
ATOM     28  C   UNL     1      31.373  -3.357 -23.646  0.00  0.00    +0.318 C 
ATOM     29  C   UNL     1      31.918  -1.982 -23.405  0.00  0.00    +0.121 C 
ENDBRANCH  26  28
ENDBRANCH  25  26
ENDBRANCH  24  25
ENDBRANCH   6  24
BRANCH   6  30
ATOM     30  O   UNL     1      33.491  -6.995 -22.382  0.00  0.00    -0.448 OA
BRANCH  30  32
ATOM     31  O   UNL     1      32.305  -5.557 -21.024  0.00  0.00    -0.250 OA
ATOM     32  C   UNL     1      32.934  -6.592 -21.198  0.00  0.00    +0.317 C 
BRANCH  32  33
ATOM     33  C   UNL     1      33.216  -7.629 -20.138  0.00  0.00    +0.110 C 
ATOM     34  C   UNL     1      31.949  -8.092 -19.439  0.00  0.00    +0.012 C 
ENDBRANCH  32  33
ENDBRANCH  30  32
ENDBRANCH   6  30
TORSDOF 8
ENDMDL
MODEL 9
REMARK VINA RESULT:      -5.2      3.748      8.066
REMARK  Name = 68921
REMARK  8 active torsions:
REMARK  status: ('A' for Active; 'I' for Inactive)
REMARK    1  A    between atoms: C_6  and  C_24
REMARK    2  A    between atoms: C_6  and  O_30
REMARK    3  A    between atoms: C_9  and  O_21
REMARK    4  A    between atoms: C_24  and  C_25
REMARK    5  A    between atoms: C_25  and  O_26
REMARK    6  A    between atoms: O_26  and  C_28
REMARK    7  A    between atoms: O_30  and  C_32
REMARK    8  A    between atoms: C_32  and  C_33
REMARK                            x       y       z     vdW  Elec       q    Type
REMARK                         _______ _______ _______ _____ _____    ______ ____
ROOT
ATOM      1  O   UNL     1      33.462 -18.240 -21.312  0.00  0.00    -0.291 OA
ATOM      2  C   UNL     1      35.736 -23.911 -15.475  0.00  0.00    +0.043 C 
ATOM      3  C   UNL     1      36.619 -22.834 -16.145  0.00  0.00    +0.004 C 
ATOM      4  C   UNL     1      36.287 -22.601 -17.627  0.00  0.00    +0.003 C 
ATOM      5  C   UNL     1      34.797 -22.141 -17.742  0.00  0.00    +0.030 C 
ATOM      6  C   UNL     1      36.379 -23.924 -14.060  0.00  0.00    +0.190 C 
ATOM      7  C   UNL     1      34.275 -23.422 -15.550  0.00  0.00    +0.033 C 
ATOM      8  C   UNL     1      34.381 -21.768 -19.224  0.00  0.00    +0.018 C 
ATOM      9  C   UNL     1      33.818 -23.094 -16.988  0.00  0.00    +0.111 C 
ATOM     10  C   UNL     1      38.037 -23.251 -15.764  0.00  0.00    +0.004 C 
ATOM     11  C   UNL     1      37.897 -23.808 -14.331  0.00  0.00    +0.048 C 
ATOM     12  C   UNL     1      37.222 -21.538 -18.222  0.00  0.00    +0.004 C 
ATOM     13  C   UNL     1      35.882 -25.314 -16.126  0.00  0.00    +0.004 C 
ATOM     14  C   UNL     1      35.424 -20.809 -19.814  0.00  0.00    -0.042 C 
ATOM     15  C   UNL     1      36.868 -21.219 -19.667  0.00  0.00    +0.022 C 
ATOM     16  C   UNL     1      32.989 -21.074 -19.174  0.00  0.00    +0.012 C 
ATOM     17  C   UNL     1      34.299 -22.988 -20.170  0.00  0.00    +0.004 C 
ATOM     18  C   UNL     1      32.640 -20.315 -20.444  0.00  0.00    +0.069 C 
ATOM     19  C   UNL     1      35.120 -19.675 -20.468  0.00  0.00    +0.029 C 
ATOM     20  C   UNL     1      33.715 -19.309 -20.760  0.00  0.00    +0.173 C 
ENDROOT
BRANCH   9  21
ATOM     21  O   UNL     1      33.617 -24.304 -17.706  0.00  0.00    -0.384 OA
ATOM     22  H   UNL     1      32.699 -24.346 -18.017  0.00  0.00    +0.210 HD
ENDBRANCH   9  21
BRANCH   6  24
ATOM     23  O   UNL     1      34.832 -25.433 -13.057  0.00  0.00    -0.288 OA
ATOM     24  C   UNL     1      36.007 -25.122 -13.239  0.00  0.00    +0.230 C 
BRANCH  24  25
ATOM     25  C   UNL     1      37.156 -25.917 -12.654  0.00  0.00    +0.276 C 
BRANCH  25  26
ATOM     26  O   UNL     1      37.522 -26.972 -13.516  0.00  0.00    -0.440 OA
BRANCH  26  28
ATOM     27  O   UNL     1      38.619 -26.977 -15.549  0.00  0.00    -0.250 OA
ATOM     28  C   UNL     1      38.584 -26.731 -14.351  0.00  0.00    +0.318 C 
ATOM     29  C   UNL     1      39.716 -26.115 -13.588  0.00  0.00    +0.121 C 
ENDBRANCH  26  28
ENDBRANCH  25  26
ENDBRANCH  24  25
ENDBRANCH   6  24
BRANCH   6  30
ATOM     30  O   UNL     1      35.953 -22.804 -13.289  0.00  0.00    -0.448 OA
BRANCH  30  32
ATOM     31  O   UNL     1      37.481 -22.367 -11.618  0.00  0.00    -0.250 OA
ATOM     32  C   UNL     1      36.389 -22.773 -11.992  0.00  0.00    +0.317 C 
BRANCH  32  33
ATOM     33  C   UNL     1      35.306 -23.319 -11.092  0.00  0.00    +0.110 C 
ATOM     34  C   UNL     1      35.875 -24.146  -9.952  0.00  0.00    +0.012 C 
ENDBRANCH  32  33
ENDBRANCH  30  32
ENDBRANCH   6  30
TORSDOF 8
ENDMDL
