MODEL 1
REMARK VINA RESULT:     -12.7      0.000      0.000
REMARK  Name = 11955716
REMARK  6 active torsions:
REMARK  status: ('A' for Active; 'I' for Inactive)
REMARK    1  A    between atoms: C_4  and  C_25
REMARK    2  A    between atoms: C_11  and  C_12
REMARK    3  A    between atoms: C_13  and  C_18
REMARK    4  A    between atoms: C_15  and  O_21
REMARK    5  A    between atoms: C_16  and  O_23
REMARK    6  A    between atoms: C_25  and  N_26
REMARK                            x       y       z     vdW  Elec       q    Type
REMARK                         _______ _______ _______ _____ _____    ______ ____
ROOT
ATOM      1  O   UNL     1      35.666 -23.698 -16.132  0.00  0.00    -0.269 OA
ATOM      2  N   UNL     1      34.400 -22.565 -17.719  0.00  0.00    -0.231 N 
ATOM      3  C   UNL     1      34.918 -21.212 -19.542  0.00  0.00    +0.016 C 
ATOM      4  C   UNL     1      34.730 -19.762 -21.425  0.00  0.00    -0.043 C 
ATOM      5  C   UNL     1      33.522 -21.243 -19.426  0.00  0.00    +0.016 C 
ATOM      6  C   UNL     1      35.545 -22.051 -18.480  0.00  0.00    +0.072 C 
ATOM      7  C   UNL     1      33.115 -22.110 -18.281  0.00  0.00    +0.072 C 
ATOM      8  C   UNL     1      35.536 -20.477 -20.536  0.00  0.00    -0.005 C 
ATOM      9  C   UNL     1      33.330 -19.793 -21.310  0.00  0.00    -0.006 C 
ATOM     10  C   UNL     1      32.716 -20.539 -20.302  0.00  0.00    +0.001 C 
ATOM     11  C   UNL     1      34.581 -23.332 -16.578  0.00  0.00    +0.259 C 
ENDROOT
BRANCH  11  12
ATOM     12  C   UNL     1      33.377 -23.727 -15.834  0.00  0.00    +0.088 C 
ATOM     13  C   UNL     1      30.974 -23.699 -15.621  0.00  0.00    +0.012 C 
ATOM     14  C   UNL     1      32.129 -23.335 -16.312  0.00  0.00    +0.006 C 
ATOM     15  C   UNL     1      33.476 -24.482 -14.669  0.00  0.00    +0.141 C 
ATOM     16  C   UNL     1      31.070 -24.456 -14.453  0.00  0.00    +0.133 C 
ATOM     17  C   UNL     1      32.321 -24.847 -13.976  0.00  0.00    +0.073 C 
BRANCH  13  18
ATOM     18  C   UNL     1      29.642 -23.272 -16.145  0.00  0.00    +0.025 C 
ATOM     19  C   UNL     1      28.924 -22.295 -15.197  0.00  0.00    +0.005 C 
ATOM     20  C   UNL     1      28.724 -24.468 -16.460  0.00  0.00    +0.005 C 
ENDBRANCH  13  18
BRANCH  15  21
ATOM     21  O   UNL     1      34.690 -24.873 -14.186  0.00  0.00    -0.505 OA
ATOM     22  H   UNL     1      35.067 -25.682 -14.470  0.00  0.00    +0.292 HD
ENDBRANCH  15  21
BRANCH  16  23
ATOM     23  O   UNL     1      29.952 -24.820 -13.764  0.00  0.00    -0.506 OA
ATOM     24  H   UNL     1      29.760 -25.726 -13.627  0.00  0.00    +0.292 HD
ENDBRANCH  16  23
ENDBRANCH  11  12
BRANCH   4  25
ATOM     25  C   UNL     1      35.364 -18.952 -22.514  0.00  0.00    -0.050 C 
BRANCH  25  26
ATOM     26  N   UNL     1      34.662 -17.688 -22.730  0.00  0.00    +0.387 N 
ATOM     27  N   UNL     1      34.576 -14.855 -23.300  0.00  0.00    +0.383 N 
ATOM     28  C   UNL     1      35.055 -16.696 -21.722  0.00  0.00    -0.100 C 
ATOM     29  C   UNL     1      34.919 -17.174 -24.081  0.00  0.00    -0.100 C 
ATOM     30  C   UNL     1      34.322 -15.369 -21.949  0.00  0.00    -0.101 C 
ATOM     31  C   UNL     1      34.185 -15.848 -24.309  0.00  0.00    -0.101 C 
ATOM     32  C   UNL     1      33.873 -13.592 -23.517  0.00  0.00    -0.101 C 
ATOM     33  H   UNL     1      33.662 -17.863 -22.638  0.00  0.00    -0.079 HD
ATOM     34  H   UNL     1      35.577 -14.679 -23.394  0.00  0.00    -0.080 HD
ENDBRANCH  25  26
ENDBRANCH   4  25
TORSDOF 6
ENDMDL
MODEL 2
REMARK VINA RESULT:     -12.5      5.751     11.659
REMARK  Name = 11955716
REMARK  6 active torsions:
REMARK  status: ('A' for Active; 'I' for Inactive)
REMARK    1  A    between atoms: C_4  and  C_25
REMARK    2  A    between atoms: C_11  and  C_12
REMARK    3  A    between atoms: C_13  and  C_18
REMARK    4  A    between atoms: C_15  and  O_21
REMARK    5  A    between atoms: C_16  and  O_23
REMARK    6  A    between atoms: C_25  and  N_26
REMARK                            x       y       z     vdW  Elec       q    Type
REMARK                         _______ _______ _______ _____ _____    ______ ____
ROOT
ATOM      1  O   UNL     1      33.452 -12.639 -25.904  0.00  0.00    -0.269 OA
ATOM      2  N   UNL     1      34.001 -13.747 -23.935  0.00  0.00    -0.231 N 
ATOM      3  C   UNL     1      34.398 -15.974 -23.385  0.00  0.00    +0.016 C 
ATOM      4  C   UNL     1      34.845 -17.971 -22.160  0.00  0.00    -0.043 C 
ATOM      5  C   UNL     1      34.474 -15.229 -22.200  0.00  0.00    +0.016 C 
ATOM      6  C   UNL     1      34.106 -15.079 -24.542  0.00  0.00    +0.072 C 
ATOM      7  C   UNL     1      34.244 -13.782 -22.481  0.00  0.00    +0.072 C 
ATOM      8  C   UNL     1      34.581 -17.344 -23.380  0.00  0.00    -0.005 C 
ATOM      9  C   UNL     1      34.922 -17.225 -20.972  0.00  0.00    -0.006 C 
ATOM     10  C   UNL     1      34.735 -15.841 -20.987  0.00  0.00    +0.001 C 
ATOM     11  C   UNL     1      33.649 -12.638 -24.691  0.00  0.00    +0.259 C 
ENDROOT
BRANCH  11  12
ATOM     12  C   UNL     1      33.483 -11.363 -23.979  0.00  0.00    +0.088 C 
ATOM     13  C   UNL     1      32.381 -10.081 -22.258  0.00  0.00    +0.012 C 
ATOM     14  C   UNL     1      32.553 -11.282 -22.946  0.00  0.00    +0.006 C 
ATOM     15  C   UNL     1      34.243 -10.250 -24.328  0.00  0.00    +0.141 C 
ATOM     16  C   UNL     1      33.141  -8.964 -22.606  0.00  0.00    +0.133 C 
ATOM     17  C   UNL     1      34.071  -9.048 -23.641  0.00  0.00    +0.073 C 
BRANCH  13  18
ATOM     18  C   UNL     1      31.380 -10.008 -21.152  0.00  0.00    +0.025 C 
ATOM     19  C   UNL     1      32.033  -9.729 -19.787  0.00  0.00    +0.005 C 
ATOM     20  C   UNL     1      30.507 -11.274 -21.067  0.00  0.00    +0.005 C 
ENDBRANCH  13  18
BRANCH  15  21
ATOM     21  O   UNL     1      35.157 -10.312 -25.338  0.00  0.00    -0.505 OA
ATOM     22  H   UNL     1      35.043  -9.786 -26.105  0.00  0.00    +0.292 HD
ENDBRANCH  15  21
BRANCH  16  23
ATOM     23  O   UNL     1      32.984  -7.783 -21.945  0.00  0.00    -0.506 OA
ATOM     24  H   UNL     1      32.132  -7.406 -21.853  0.00  0.00    +0.292 HD
ENDBRANCH  16  23
ENDBRANCH  11  12
BRANCH   4  25
ATOM     25  C   UNL     1      35.048 -19.454 -22.116  0.00  0.00    -0.050 C 
BRANCH  25  26
ATOM     26  N   UNL     1      34.701 -20.011 -20.810  0.00  0.00    +0.387 N 
ATOM     27  N   UNL     1      33.881 -22.165 -19.065  0.00  0.00    +0.383 N 
ATOM     28  C   UNL     1      33.318 -20.503 -20.805  0.00  0.00    -0.100 C 
ATOM     29  C   UNL     1      35.628 -21.087 -20.440  0.00  0.00    -0.100 C 
ATOM     30  C   UNL     1      32.953 -21.091 -19.437  0.00  0.00    -0.101 C 
ATOM     31  C   UNL     1      35.265 -21.673 -19.071  0.00  0.00    -0.101 C 
ATOM     32  C   UNL     1      33.535 -22.721 -17.758  0.00  0.00    -0.101 C 
ATOM     33  H   UNL     1      34.781 -19.266 -20.118  0.00  0.00    -0.079 HD
ATOM     34  H   UNL     1      33.802 -22.912 -19.756  0.00  0.00    -0.080 HD
ENDBRANCH  25  26
ENDBRANCH   4  25
TORSDOF 6
ENDMDL
MODEL 3
REMARK VINA RESULT:     -12.4      2.348      4.308
REMARK  Name = 11955716
REMARK  6 active torsions:
REMARK  status: ('A' for Active; 'I' for Inactive)
REMARK    1  A    between atoms: C_4  and  C_25
REMARK    2  A    between atoms: C_11  and  C_12
REMARK    3  A    between atoms: C_13  and  C_18
REMARK    4  A    between atoms: C_15  and  O_21
REMARK    5  A    between atoms: C_16  and  O_23
REMARK    6  A    between atoms: C_25  and  N_26
REMARK                            x       y       z     vdW  Elec       q    Type
REMARK                         _______ _______ _______ _____ _____    ______ ____
ROOT
ATOM      1  O   UNL     1      32.457 -24.257 -15.484  0.00  0.00    -0.269 OA
ATOM      2  N   UNL     1      34.142 -23.097 -16.590  0.00  0.00    -0.231 N 
ATOM      3  C   UNL     1      34.273 -21.983 -18.629  0.00  0.00    +0.016 C 
ATOM      4  C   UNL     1      35.096 -20.779 -20.516  0.00  0.00    -0.043 C 
ATOM      5  C   UNL     1      35.545 -21.937 -18.044  0.00  0.00    +0.016 C 
ATOM      6  C   UNL     1      33.318 -22.707 -17.740  0.00  0.00    +0.072 C 
ATOM      7  C   UNL     1      35.532 -22.622 -16.718  0.00  0.00    +0.072 C 
ATOM      8  C   UNL     1      34.034 -21.408 -19.864  0.00  0.00    -0.005 C 
ATOM      9  C   UNL     1      36.372 -20.732 -19.929  0.00  0.00    -0.006 C 
ATOM     10  C   UNL     1      36.604 -21.315 -18.681  0.00  0.00    +0.001 C 
ATOM     11  C   UNL     1      33.622 -23.876 -15.566  0.00  0.00    +0.259 C 
ENDROOT
BRANCH  11  12
ATOM     12  C   UNL     1      34.546 -24.289 -14.499  0.00  0.00    +0.088 C 
ATOM     13  C   UNL     1      36.571 -25.422 -13.839  0.00  0.00    +0.012 C 
ATOM     14  C   UNL     1      35.683 -25.020 -14.836  0.00  0.00    +0.006 C 
ATOM     15  C   UNL     1      34.293 -23.958 -13.171  0.00  0.00    +0.141 C 
ATOM     16  C   UNL     1      36.320 -25.091 -12.507  0.00  0.00    +0.133 C 
ATOM     17  C   UNL     1      35.181 -24.359 -12.173  0.00  0.00    +0.073 C 
BRANCH  13  18
ATOM     18  C   UNL     1      37.786 -26.204 -14.215  0.00  0.00    +0.025 C 
ATOM     19  C   UNL     1      38.975 -25.301 -14.587  0.00  0.00    +0.005 C 
ATOM     20  C   UNL     1      37.512 -27.205 -15.352  0.00  0.00    +0.005 C 
ENDBRANCH  13  18
BRANCH  15  21
ATOM     21  O   UNL     1      33.184 -23.244 -12.824  0.00  0.00    -0.505 OA
ATOM     22  H   UNL     1      32.363 -23.424 -13.239  0.00  0.00    +0.292 HD
ENDBRANCH  15  21
BRANCH  16  23
ATOM     23  O   UNL     1      37.177 -25.476 -11.521  0.00  0.00    -0.506 OA
ATOM     24  H   UNL     1      36.850 -25.916 -10.761  0.00  0.00    +0.292 HD
ENDBRANCH  16  23
ENDBRANCH  11  12
BRANCH   4  25
ATOM     25  C   UNL     1      34.876 -20.147 -21.856  0.00  0.00    -0.050 C 
BRANCH  25  26
ATOM     26  N   UNL     1      35.040 -18.696 -21.807  0.00  0.00    +0.387 N 
ATOM     27  N   UNL     1      34.233 -15.991 -22.429  0.00  0.00    +0.383 N 
ATOM     28  C   UNL     1      35.201 -18.145 -23.158  0.00  0.00    -0.100 C 
ATOM     29  C   UNL     1      33.901 -18.065 -21.129  0.00  0.00    -0.100 C 
ATOM     30  C   UNL     1      35.370 -16.622 -23.108  0.00  0.00    -0.101 C 
ATOM     31  C   UNL     1      34.071 -16.543 -21.078  0.00  0.00    -0.101 C 
ATOM     32  C   UNL     1      34.398 -14.539 -22.379  0.00  0.00    -0.101 C 
ATOM     33  H   UNL     1      35.884 -18.492 -21.273  0.00  0.00    -0.079 HD
ATOM     34  H   UNL     1      33.387 -16.194 -22.962  0.00  0.00    -0.080 HD
ENDBRANCH  25  26
ENDBRANCH   4  25
TORSDOF 6
ENDMDL
MODEL 4
REMARK VINA RESULT:     -12.3      3.997      7.645
REMARK  Name = 11955716
REMARK  6 active torsions:
REMARK  status: ('A' for Active; 'I' for Inactive)
REMARK    1  A    between atoms: C_4  and  C_25
REMARK    2  A    between atoms: C_11  and  C_12
REMARK    3  A    between atoms: C_13  and  C_18
REMARK    4  A    between atoms: C_15  and  O_21
REMARK    5  A    between atoms: C_16  and  O_23
REMARK    6  A    between atoms: C_25  and  N_26
REMARK                            x       y       z     vdW  Elec       q    Type
REMARK                         _______ _______ _______ _____ _____    ______ ____
ROOT
ATOM      1  O   UNL     1      35.319 -18.454 -24.035  0.00  0.00    -0.269 OA
ATOM      2  N   UNL     1      34.350 -17.004 -22.497  0.00  0.00    -0.231 N 
ATOM      3  C   UNL     1      33.300 -14.933 -22.661  0.00  0.00    +0.016 C 
ATOM      4  C   UNL     1      32.224 -12.877 -22.111  0.00  0.00    -0.043 C 
ATOM      5  C   UNL     1      33.362 -15.266 -21.301  0.00  0.00    +0.016 C 
ATOM      6  C   UNL     1      33.910 -16.015 -23.488  0.00  0.00    +0.072 C 
ATOM      7  C   UNL     1      34.012 -16.597 -21.121  0.00  0.00    +0.072 C 
ATOM      8  C   UNL     1      32.734 -13.744 -23.081  0.00  0.00    -0.005 C 
ATOM      9  C   UNL     1      32.285 -13.211 -20.748  0.00  0.00    -0.006 C 
ATOM     10  C   UNL     1      32.858 -14.415 -20.334  0.00  0.00    +0.001 C 
ATOM     11  C   UNL     1      35.052 -18.139 -22.878  0.00  0.00    +0.259 C 
ENDROOT
BRANCH  11  12
ATOM     12  C   UNL     1      35.526 -19.027 -21.807  0.00  0.00    +0.088 C 
ATOM     13  C   UNL     1      35.028 -20.639 -20.082  0.00  0.00    +0.012 C 
ATOM     14  C   UNL     1      34.598 -19.790 -21.102  0.00  0.00    +0.006 C 
ATOM     15  C   UNL     1      36.881 -19.109 -21.498  0.00  0.00    +0.141 C 
ATOM     16  C   UNL     1      36.385 -20.723 -19.771  0.00  0.00    +0.133 C 
ATOM     17  C   UNL     1      37.312 -19.958 -20.478  0.00  0.00    +0.073 C 
BRANCH  13  18
ATOM     18  C   UNL     1      34.022 -21.451 -19.334  0.00  0.00    +0.025 C 
ATOM     19  C   UNL     1      34.113 -22.951 -19.668  0.00  0.00    +0.005 C 
ATOM     20  C   UNL     1      32.582 -20.951 -19.555  0.00  0.00    +0.005 C 
ENDBRANCH  13  18
BRANCH  15  21
ATOM     21  O   UNL     1      37.802 -18.368 -22.178  0.00  0.00    -0.505 OA
ATOM     22  H   UNL     1      38.156 -18.687 -22.984  0.00  0.00    +0.292 HD
ENDBRANCH  15  21
BRANCH  16  23
ATOM     23  O   UNL     1      36.822 -21.546 -18.777  0.00  0.00    -0.506 OA
ATOM     24  H   UNL     1      37.153 -22.397 -18.985  0.00  0.00    +0.292 HD
ENDBRANCH  16  23
ENDBRANCH  11  12
BRANCH   4  25
ATOM     25  C   UNL     1      31.605 -11.579 -22.528  0.00  0.00    -0.050 C 
BRANCH  25  26
ATOM     26  N   UNL     1      32.597 -10.510 -22.624  0.00  0.00    +0.387 N 
ATOM     27  N   UNL     1      33.722  -8.143 -23.844  0.00  0.00    +0.383 N 
ATOM     28  C   UNL     1      33.315 -10.580 -23.903  0.00  0.00    -0.100 C 
ATOM     29  C   UNL     1      31.964  -9.195 -22.464  0.00  0.00    -0.100 C 
ATOM     30  C   UNL     1      34.353  -9.457 -24.006  0.00  0.00    -0.101 C 
ATOM     31  C   UNL     1      33.002  -8.073 -22.565  0.00  0.00    -0.101 C 
ATOM     32  C   UNL     1      34.714  -7.074 -23.939  0.00  0.00    -0.101 C 
ATOM     33  H   UNL     1      33.270 -10.636 -21.869  0.00  0.00    -0.079 HD
ATOM     34  H   UNL     1      33.047  -8.014 -24.599  0.00  0.00    -0.080 HD
ENDBRANCH  25  26
ENDBRANCH   4  25
TORSDOF 6
ENDMDL
MODEL 5
REMARK VINA RESULT:     -12.2      5.707     12.101
REMARK  Name = 11955716
REMARK  6 active torsions:
REMARK  status: ('A' for Active; 'I' for Inactive)
REMARK    1  A    between atoms: C_4  and  C_25
REMARK    2  A    between atoms: C_11  and  C_12
REMARK    3  A    between atoms: C_13  and  C_18
REMARK    4  A    between atoms: C_15  and  O_21
REMARK    5  A    between atoms: C_16  and  O_23
REMARK    6  A    between atoms: C_25  and  N_26
REMARK                            x       y       z     vdW  Elec       q    Type
REMARK                         _______ _______ _______ _____ _____    ______ ____
ROOT
ATOM      1  O   UNL     1      33.336 -12.153 -25.406  0.00  0.00    -0.269 OA
ATOM      2  N   UNL     1      33.837 -13.298 -23.445  0.00  0.00    -0.231 N 
ATOM      3  C   UNL     1      34.553 -15.461 -22.968  0.00  0.00    +0.016 C 
ATOM      4  C   UNL     1      35.200 -17.440 -21.805  0.00  0.00    -0.043 C 
ATOM      5  C   UNL     1      34.357 -14.805 -21.746  0.00  0.00    +0.016 C 
ATOM      6  C   UNL     1      34.247 -14.543 -24.104  0.00  0.00    +0.072 C 
ATOM      7  C   UNL     1      33.909 -13.400 -21.976  0.00  0.00    +0.072 C 
ATOM      8  C   UNL     1      34.975 -16.777 -23.014  0.00  0.00    -0.005 C 
ATOM      9  C   UNL     1      35.003 -16.783 -20.579  0.00  0.00    -0.006 C 
ATOM     10  C   UNL     1      34.578 -15.453 -20.544  0.00  0.00    +0.001 C 
ATOM     11  C   UNL     1      33.385 -12.211 -24.179  0.00  0.00    +0.259 C 
ENDROOT
BRANCH  11  12
ATOM     12  C   UNL     1      32.915 -11.039 -23.427  0.00  0.00    +0.088 C 
ATOM     13  C   UNL     1      33.097  -8.684 -22.938  0.00  0.00    +0.012 C 
ATOM     14  C   UNL     1      33.528  -9.808 -23.642  0.00  0.00    +0.006 C 
ATOM     15  C   UNL     1      31.872 -11.153 -22.512  0.00  0.00    +0.141 C 
ATOM     16  C   UNL     1      32.052  -8.795 -22.020  0.00  0.00    +0.133 C 
ATOM     17  C   UNL     1      31.440 -10.030 -21.807  0.00  0.00    +0.073 C 
BRANCH  13  18
ATOM     18  C   UNL     1      33.763  -7.369 -23.179  0.00  0.00    +0.025 C 
ATOM     19  C   UNL     1      33.002  -6.502 -24.197  0.00  0.00    +0.005 C 
ATOM     20  C   UNL     1      35.231  -7.527 -23.618  0.00  0.00    +0.005 C 
ENDBRANCH  13  18
BRANCH  15  21
ATOM     21  O   UNL     1      31.262 -12.352 -22.288  0.00  0.00    -0.505 OA
ATOM     22  H   UNL     1      30.334 -12.431 -22.391  0.00  0.00    +0.292 HD
ENDBRANCH  15  21
BRANCH  16  23
ATOM     23  O   UNL     1      31.619  -7.708 -21.323  0.00  0.00    -0.506 OA
ATOM     24  H   UNL     1      30.801  -7.306 -21.541  0.00  0.00    +0.292 HD
ENDBRANCH  16  23
ENDBRANCH  11  12
BRANCH   4  25
ATOM     25  C   UNL     1      35.655 -18.867 -21.815  0.00  0.00    -0.050 C 
BRANCH  25  26
ATOM     26  N   UNL     1      35.124 -19.614 -20.677  0.00  0.00    +0.387 N 
ATOM     27  N   UNL     1      34.077 -22.001 -19.426  0.00  0.00    +0.383 N 
ATOM     28  C   UNL     1      33.761 -20.084 -20.953  0.00  0.00    -0.100 C 
ATOM     29  C   UNL     1      35.997 -20.746 -20.344  0.00  0.00    -0.100 C 
ATOM     30  C   UNL     1      33.204 -20.870 -19.761  0.00  0.00    -0.101 C 
ATOM     31  C   UNL     1      35.441 -21.532 -19.151  0.00  0.00    -0.101 C 
ATOM     32  C   UNL     1      33.547 -22.748 -18.286  0.00  0.00    -0.101 C 
ATOM     33  H   UNL     1      35.092 -18.986 -19.874  0.00  0.00    -0.079 HD
ATOM     34  H   UNL     1      34.110 -22.631 -20.228  0.00  0.00    -0.080 HD
ENDBRANCH  25  26
ENDBRANCH   4  25
TORSDOF 6
ENDMDL
MODEL 6
REMARK VINA RESULT:     -12.0      4.082      9.910
REMARK  Name = 11955716
REMARK  6 active torsions:
REMARK  status: ('A' for Active; 'I' for Inactive)
REMARK    1  A    between atoms: C_4  and  C_25
REMARK    2  A    between atoms: C_11  and  C_12
REMARK    3  A    between atoms: C_13  and  C_18
REMARK    4  A    between atoms: C_15  and  O_21
REMARK    5  A    between atoms: C_16  and  O_23
REMARK    6  A    between atoms: C_25  and  N_26
REMARK                            x       y       z     vdW  Elec       q    Type
REMARK                         _______ _______ _______ _____ _____    ______ ____
ROOT
ATOM      1  O   UNL     1      37.373 -18.365 -22.311  0.00  0.00    -0.269 OA
ATOM      2  N   UNL     1      35.479 -19.232 -21.278  0.00  0.00    -0.231 N 
ATOM      3  C   UNL     1      35.107 -20.959 -19.762  0.00  0.00    +0.016 C 
ATOM      4  C   UNL     1      34.041 -22.542 -18.332  0.00  0.00    -0.043 C 
ATOM      5  C   UNL     1      33.858 -20.427 -20.107  0.00  0.00    +0.016 C 
ATOM      6  C   UNL     1      36.197 -20.228 -20.473  0.00  0.00    +0.072 C 
ATOM      7  C   UNL     1      34.021 -19.298 -21.070  0.00  0.00    +0.072 C 
ATOM      8  C   UNL     1      35.215 -22.015 -18.876  0.00  0.00    -0.005 C 
ATOM      9  C   UNL     1      32.788 -22.009 -18.678  0.00  0.00    -0.006 C 
ATOM     10  C   UNL     1      32.690 -20.942 -19.573  0.00  0.00    +0.001 C 
ATOM     11  C   UNL     1      36.155 -18.399 -22.159  0.00  0.00    +0.259 C 
ENDROOT
BRANCH  11  12
ATOM     12  C   UNL     1      35.343 -17.495 -22.985  0.00  0.00    +0.088 C 
ATOM     13  C   UNL     1      34.230 -15.370 -23.249  0.00  0.00    +0.012 C 
ATOM     14  C   UNL     1      35.001 -16.243 -22.480  0.00  0.00    +0.006 C 
ATOM     15  C   UNL     1      34.920 -17.879 -24.255  0.00  0.00    +0.141 C 
ATOM     16  C   UNL     1      33.805 -15.752 -24.522  0.00  0.00    +0.133 C 
ATOM     17  C   UNL     1      34.150 -17.007 -25.025  0.00  0.00    +0.073 C 
BRANCH  13  18
ATOM     18  C   UNL     1      33.870 -14.031 -22.695  0.00  0.00    +0.025 C 
ATOM     19  C   UNL     1      32.491 -14.029 -22.012  0.00  0.00    +0.005 C 
ATOM     20  C   UNL     1      33.930 -12.920 -23.760  0.00  0.00    +0.005 C 
ENDBRANCH  13  18
BRANCH  15  21
ATOM     21  O   UNL     1      35.246 -19.101 -24.764  0.00  0.00    -0.505 OA
ATOM     22  H   UNL     1      36.120 -19.425 -24.680  0.00  0.00    +0.292 HD
ENDBRANCH  15  21
BRANCH  16  23
ATOM     23  O   UNL     1      33.052 -14.913 -25.286  0.00  0.00    -0.506 OA
ATOM     24  H   UNL     1      33.244 -14.808 -26.196  0.00  0.00    +0.292 HD
ENDBRANCH  16  23
ENDBRANCH  11  12
BRANCH   4  25
ATOM     25  C   UNL     1      34.117 -23.688 -17.371  0.00  0.00    -0.050 C 
BRANCH  25  26
ATOM     26  N   UNL     1      34.587 -23.263 -16.054  0.00  0.00    +0.387 N 
ATOM     27  N   UNL     1      35.965 -23.694 -13.550  0.00  0.00    +0.383 N 
ATOM     28  C   UNL     1      34.005 -24.101 -14.999  0.00  0.00    -0.100 C 
ATOM     29  C   UNL     1      36.053 -23.301 -15.987  0.00  0.00    -0.100 C 
ATOM     30  C   UNL     1      34.499 -23.660 -13.617  0.00  0.00    -0.101 C 
ATOM     31  C   UNL     1      36.547 -22.857 -14.606  0.00  0.00    -0.101 C 
ATOM     32  C   UNL     1      36.435 -23.268 -12.233  0.00  0.00    -0.101 C 
ATOM     33  H   UNL     1      34.283 -22.302 -15.907  0.00  0.00    -0.079 HD
ATOM     34  H   UNL     1      36.271 -24.657 -13.697  0.00  0.00    -0.080 HD
ENDBRANCH  25  26
ENDBRANCH   4  25
TORSDOF 6
ENDMDL
MODEL 7
REMARK VINA RESULT:     -11.8      3.771     10.019
REMARK  Name = 11955716
REMARK  6 active torsions:
REMARK  status: ('A' for Active; 'I' for Inactive)
REMARK    1  A    between atoms: C_4  and  C_25
REMARK    2  A    between atoms: C_11  and  C_12
REMARK    3  A    between atoms: C_13  and  C_18
REMARK    4  A    between atoms: C_15  and  O_21
REMARK    5  A    between atoms: C_16  and  O_23
REMARK    6  A    between atoms: C_25  and  N_26
REMARK                            x       y       z     vdW  Elec       q    Type
REMARK                         _______ _______ _______ _____ _____    ______ ____
ROOT
ATOM      1  O   UNL     1      37.349 -18.288 -22.443  0.00  0.00    -0.269 OA
ATOM      2  N   UNL     1      35.455 -19.147 -21.404  0.00  0.00    -0.231 N 
ATOM      3  C   UNL     1      35.085 -20.844 -19.854  0.00  0.00    +0.016 C 
ATOM      4  C   UNL     1      34.020 -22.404 -18.398  0.00  0.00    -0.043 C 
ATOM      5  C   UNL     1      33.834 -20.329 -20.218  0.00  0.00    +0.016 C 
ATOM      6  C   UNL     1      36.174 -20.120 -20.573  0.00  0.00    +0.072 C 
ATOM      7  C   UNL     1      33.996 -19.220 -21.204  0.00  0.00    +0.072 C 
ATOM      8  C   UNL     1      35.194 -21.880 -18.945  0.00  0.00    -0.005 C 
ATOM      9  C   UNL     1      32.765 -21.888 -18.763  0.00  0.00    -0.006 C 
ATOM     10  C   UNL     1      32.666 -20.841 -19.681  0.00  0.00    +0.001 C 
ATOM     11  C   UNL     1      36.130 -18.328 -22.297  0.00  0.00    +0.259 C 
ENDROOT
BRANCH  11  12
ATOM     12  C   UNL     1      35.317 -17.447 -23.149  0.00  0.00    +0.088 C 
ATOM     13  C   UNL     1      34.232 -15.319 -23.485  0.00  0.00    +0.012 C 
ATOM     14  C   UNL     1      35.003 -16.170 -22.692  0.00  0.00    +0.006 C 
ATOM     15  C   UNL     1      34.866 -17.879 -24.393  0.00  0.00    +0.141 C 
ATOM     16  C   UNL     1      33.779 -15.749 -24.733  0.00  0.00    +0.133 C 
ATOM     17  C   UNL     1      34.095 -17.029 -25.186  0.00  0.00    +0.073 C 
BRANCH  13  18
ATOM     18  C   UNL     1      33.902 -13.951 -22.984  0.00  0.00    +0.025 C 
ATOM     19  C   UNL     1      32.573 -13.914 -22.210  0.00  0.00    +0.005 C 
ATOM     20  C   UNL     1      33.883 -12.902 -24.111  0.00  0.00    +0.005 C 
ENDBRANCH  13  18
BRANCH  15  21
ATOM     21  O   UNL     1      35.164 -19.127 -24.853  0.00  0.00    -0.505 OA
ATOM     22  H   UNL     1      35.783 -19.660 -24.395  0.00  0.00    +0.292 HD
ENDBRANCH  15  21
BRANCH  16  23
ATOM     23  O   UNL     1      33.024 -14.931 -25.519  0.00  0.00    -0.506 OA
ATOM     24  H   UNL     1      33.097 -14.980 -26.452  0.00  0.00    +0.292 HD
ENDBRANCH  16  23
ENDBRANCH  11  12
BRANCH   4  25
ATOM     25  C   UNL     1      34.098 -23.529 -17.412  0.00  0.00    -0.050 C 
BRANCH  25  26
ATOM     26  N   UNL     1      33.280 -23.273 -16.229  0.00  0.00    +0.387 N 
ATOM     27  N   UNL     1      31.484 -24.086 -14.114  0.00  0.00    +0.383 N 
ATOM     28  C   UNL     1      31.867 -23.566 -16.500  0.00  0.00    -0.100 C 
ATOM     29  C   UNL     1      33.756 -24.061 -15.086  0.00  0.00    -0.100 C 
ATOM     30  C   UNL     1      31.008 -23.301 -15.259  0.00  0.00    -0.101 C 
ATOM     31  C   UNL     1      32.898 -23.794 -13.844  0.00  0.00    -0.101 C 
ATOM     32  C   UNL     1      30.666 -23.829 -12.931  0.00  0.00    -0.101 C 
ATOM     33  H   UNL     1      33.365 -22.284 -15.995  0.00  0.00    -0.079 HD
ATOM     34  H   UNL     1      31.400 -25.076 -14.347  0.00  0.00    -0.080 HD
ENDBRANCH  25  26
ENDBRANCH   4  25
TORSDOF 6
ENDMDL
MODEL 8
REMARK VINA RESULT:     -11.5      1.548      2.337
REMARK  Name = 11955716
REMARK  6 active torsions:
REMARK  status: ('A' for Active; 'I' for Inactive)
REMARK    1  A    between atoms: C_4  and  C_25
REMARK    2  A    between atoms: C_11  and  C_12
REMARK    3  A    between atoms: C_13  and  C_18
REMARK    4  A    between atoms: C_15  and  O_21
REMARK    5  A    between atoms: C_16  and  O_23
REMARK    6  A    between atoms: C_25  and  N_26
REMARK                            x       y       z     vdW  Elec       q    Type
REMARK                         _______ _______ _______ _____ _____    ______ ____
ROOT
ATOM      1  O   UNL     1      37.929 -22.451 -16.453  0.00  0.00    -0.269 OA
ATOM      2  N   UNL     1      36.071 -21.992 -17.773  0.00  0.00    -0.231 N 
ATOM      3  C   UNL     1      35.742 -20.823 -19.759  0.00  0.00    +0.016 C 
ATOM      4  C   UNL     1      34.717 -19.782 -21.644  0.00  0.00    -0.043 C 
ATOM      5  C   UNL     1      34.486 -21.256 -19.313  0.00  0.00    +0.016 C 
ATOM      6  C   UNL     1      36.809 -21.273 -18.818  0.00  0.00    +0.072 C 
ATOM      7  C   UNL     1      34.622 -22.031 -18.045  0.00  0.00    +0.072 C 
ATOM      8  C   UNL     1      35.873 -20.087 -20.921  0.00  0.00    -0.005 C 
ATOM      9  C   UNL     1      33.457 -20.216 -21.198  0.00  0.00    -0.006 C 
ATOM     10  C   UNL     1      33.335 -20.960 -20.022  0.00  0.00    +0.001 C 
ATOM     11  C   UNL     1      36.718 -22.497 -16.654  0.00  0.00    +0.259 C 
ENDROOT
BRANCH  11  12
ATOM     12  C   UNL     1      35.884 -23.125 -15.620  0.00  0.00    +0.088 C 
ATOM     13  C   UNL     1      33.690 -23.709 -14.802  0.00  0.00    +0.012 C 
ATOM     14  C   UNL     1      34.499 -23.118 -15.773  0.00  0.00    +0.006 C 
ATOM     15  C   UNL     1      36.463 -23.719 -14.502  0.00  0.00    +0.141 C 
ATOM     16  C   UNL     1      34.268 -24.305 -13.681  0.00  0.00    +0.133 C 
ATOM     17  C   UNL     1      35.654 -24.310 -13.531  0.00  0.00    +0.073 C 
BRANCH  13  18
ATOM     18  C   UNL     1      32.207 -23.694 -14.979  0.00  0.00    +0.025 C 
ATOM     19  C   UNL     1      31.792 -23.419 -16.436  0.00  0.00    +0.005 C 
ATOM     20  C   UNL     1      31.513 -22.693 -14.038  0.00  0.00    +0.005 C 
ENDBRANCH  13  18
BRANCH  15  21
ATOM     21  O   UNL     1      37.816 -23.734 -14.337  0.00  0.00    -0.505 OA
ATOM     22  H   UNL     1      38.272 -22.939 -14.142  0.00  0.00    +0.292 HD
ENDBRANCH  15  21
BRANCH  16  23
ATOM     23  O   UNL     1      33.492 -24.885 -12.724  0.00  0.00    -0.506 OA
ATOM     24  H   UNL     1      33.150 -25.747 -12.856  0.00  0.00    +0.292 HD
ENDBRANCH  16  23
ENDBRANCH  11  12
BRANCH   4  25
ATOM     25  C   UNL     1      34.819 -18.984 -22.907  0.00  0.00    -0.050 C 
BRANCH  25  26
ATOM     26  N   UNL     1      34.822 -17.547 -22.644  0.00  0.00    +0.387 N 
ATOM     27  N   UNL     1      33.573 -14.941 -22.561  0.00  0.00    +0.383 N 
ATOM     28  C   UNL     1      34.552 -16.792 -23.874  0.00  0.00    -0.100 C 
ATOM     29  C   UNL     1      33.841 -17.205 -21.607  0.00  0.00    -0.100 C 
ATOM     30  C   UNL     1      34.552 -15.285 -23.599  0.00  0.00    -0.101 C 
ATOM     31  C   UNL     1      33.842 -15.697 -21.331  0.00  0.00    -0.101 C 
ATOM     32  C   UNL     1      33.577 -13.504 -22.297  0.00  0.00    -0.101 C 
ATOM     33  H   UNL     1      35.749 -17.291 -22.305  0.00  0.00    -0.079 HD
ATOM     34  H   UNL     1      32.644 -15.197 -22.898  0.00  0.00    -0.080 HD
ENDBRANCH  25  26
ENDBRANCH   4  25
TORSDOF 6
ENDMDL
MODEL 9
REMARK VINA RESULT:     -11.5      2.608      4.494
REMARK  Name = 11955716
REMARK  6 active torsions:
REMARK  status: ('A' for Active; 'I' for Inactive)
REMARK    1  A    between atoms: C_4  and  C_25
REMARK    2  A    between atoms: C_11  and  C_12
REMARK    3  A    between atoms: C_13  and  C_18
REMARK    4  A    between atoms: C_15  and  O_21
REMARK    5  A    between atoms: C_16  and  O_23
REMARK    6  A    between atoms: C_25  and  N_26
REMARK                            x       y       z     vdW  Elec       q    Type
REMARK                         _______ _______ _______ _____ _____    ______ ____
ROOT
ATOM      1  O   UNL     1      33.051 -24.680 -15.112  0.00  0.00    -0.269 OA
ATOM      2  N   UNL     1      34.446 -23.411 -16.473  0.00  0.00    -0.231 N 
ATOM      3  C   UNL     1      34.110 -22.114 -18.376  0.00  0.00    +0.016 C 
ATOM      4  C   UNL     1      34.484 -20.736 -20.286  0.00  0.00    -0.043 C 
ATOM      5  C   UNL     1      35.485 -22.113 -18.105  0.00  0.00    +0.016 C 
ATOM      6  C   UNL     1      33.381 -22.923 -17.357  0.00  0.00    +0.072 C 
ATOM      7  C   UNL     1      35.773 -22.917 -16.881  0.00  0.00    +0.072 C 
ATOM      8  C   UNL     1      33.596 -21.430 -19.462  0.00  0.00    -0.005 C 
ATOM      9  C   UNL     1      35.863 -20.734 -20.014  0.00  0.00    -0.006 C 
ATOM     10  C   UNL     1      36.373 -21.428 -18.914  0.00  0.00    +0.001 C 
ATOM     11  C   UNL     1      34.170 -24.284 -15.430  0.00  0.00    +0.259 C 
ENDROOT
BRANCH  11  12
ATOM     12  C   UNL     1      35.312 -24.787 -14.654  0.00  0.00    +0.088 C 
ATOM     13  C   UNL     1      36.729 -24.614 -12.709  0.00  0.00    +0.012 C 
ATOM     14  C   UNL     1      35.648 -24.153 -13.460  0.00  0.00    +0.006 C 
ATOM     15  C   UNL     1      36.050 -25.880 -15.101  0.00  0.00    +0.141 C 
ATOM     16  C   UNL     1      37.471 -25.709 -13.154  0.00  0.00    +0.133 C 
ATOM     17  C   UNL     1      37.132 -26.342 -14.350  0.00  0.00    +0.073 C 
BRANCH  13  18
ATOM     18  C   UNL     1      37.079 -23.926 -11.431  0.00  0.00    +0.025 C 
ATOM     19  C   UNL     1      35.897 -23.883 -10.445  0.00  0.00    +0.005 C 
ATOM     20  C   UNL     1      37.623 -22.503 -11.660  0.00  0.00    +0.005 C 
ENDBRANCH  13  18
BRANCH  15  21
ATOM     21  O   UNL     1      35.735 -26.510 -16.268  0.00  0.00    -0.505 OA
ATOM     22  H   UNL     1      36.224 -26.327 -17.045  0.00  0.00    +0.292 HD
ENDBRANCH  15  21
BRANCH  16  23
ATOM     23  O   UNL     1      38.530 -26.172 -12.433  0.00  0.00    -0.506 OA
ATOM     24  H   UNL     1      38.685 -27.094 -12.366  0.00  0.00    +0.292 HD
ENDBRANCH  16  23
ENDBRANCH  11  12
BRANCH   4  25
ATOM     25  C   UNL     1      33.965 -19.985 -21.473  0.00  0.00    -0.050 C 
BRANCH  25  26
ATOM     26  N   UNL     1      34.365 -18.580 -21.447  0.00  0.00    +0.387 N 
ATOM     27  N   UNL     1      34.140 -15.822 -22.283  0.00  0.00    +0.383 N 
ATOM     28  C   UNL     1      34.827 -18.146 -22.771  0.00  0.00    -0.100 C 
ATOM     29  C   UNL     1      33.259 -17.731 -20.987  0.00  0.00    -0.100 C 
ATOM     30  C   UNL     1      35.244 -16.671 -22.745  0.00  0.00    -0.101 C 
ATOM     31  C   UNL     1      33.677 -16.257 -20.959  0.00  0.00    -0.101 C 
ATOM     32  C   UNL     1      34.542 -14.417 -22.255  0.00  0.00    -0.101 C 
ATOM     33  H   UNL     1      35.138 -18.485 -20.789  0.00  0.00    -0.079 HD
ATOM     34  H   UNL     1      33.366 -15.916 -22.941  0.00  0.00    -0.080 HD
ENDBRANCH  25  26
ENDBRANCH   4  25
TORSDOF 6
ENDMDL
