MODEL 1
REMARK VINA RESULT:      -9.5      0.000      0.000
REMARK  Name = 708990
REMARK  6 active torsions:
REMARK  status: ('A' for Active; 'I' for Inactive)
REMARK    1  A    between atoms: N_2  and  C_5
REMARK    2  A    between atoms: C_3  and  C_15
REMARK    3  A    between atoms: C_6  and  C_12
REMARK    4  A    between atoms: C_12  and  O_13
REMARK    5  A    between atoms: C_15  and  O_16
REMARK    6  A    between atoms: O_16  and  C_18
REMARK                            x       y       z     vdW  Elec       q    Type
REMARK                         _______ _______ _______ _____ _____    ______ ____
ROOT
ATOM      1  O   UNL     1      36.031 -22.206 -15.961  0.00  0.00    -0.271 OA
ATOM      2  N   UNL     1      35.085 -24.078 -14.889  0.00  0.00    -0.281 N 
ATOM      3  C   UNL     1      35.165 -23.066 -15.838  0.00  0.00    +0.271 C 
ATOM      4  H   UNL     1      34.310 -24.683 -14.946  0.00  0.00    +0.155 HD
ENDROOT
BRANCH   2   5
ATOM      5  C   UNL     1      36.003 -24.317 -13.862  0.00  0.00    +0.057 C 
ATOM      6  C   UNL     1      36.950 -25.335 -13.968  0.00  0.00    +0.089 C 
ATOM      7  C   UNL     1      35.959 -23.520 -12.718  0.00  0.00    +0.015 C 
ATOM      8  C   UNL     1      37.855 -25.556 -12.930  0.00  0.00    +0.008 C 
ATOM      9  C   UNL     1      36.865 -23.741 -11.680  0.00  0.00    +0.001 C 
ATOM     10  C   UNL     1      37.812 -24.759 -11.786  0.00  0.00    +0.000 C 
BRANCH   6  12
ATOM     11  O   UNL     1      36.053 -26.655 -15.749  0.00  0.00    -0.245 OA
ATOM     12  C   UNL     1      37.022 -26.186 -15.149  0.00  0.00    +0.339 C 
BRANCH  12  13
ATOM     13  O   UNL     1      38.303 -26.422 -15.539  0.00  0.00    -0.477 OA
ATOM     14  H   UNL     1      38.859 -26.967 -15.018  0.00  0.00    +0.295 HD
ENDBRANCH  12  13
ENDBRANCH   6  12
ENDBRANCH   2   5
BRANCH   3  15
ATOM     15  C   UNL     1      33.981 -23.135 -16.786  0.00  0.00    +0.290 C 
BRANCH  15  16
ATOM     16  O   UNL     1      34.411 -23.340 -18.115  0.00  0.00    -0.466 OA
BRANCH  16  18
ATOM     17 CL   UNL     1      34.383 -18.679 -21.686  0.00  0.00    -0.082 Cl
ATOM     18  C   UNL     1      34.405 -22.249 -18.952  0.00  0.00    +0.139 C 
ATOM     19  C   UNL     1      35.603 -21.776 -19.468  0.00  0.00    +0.038 C 
ATOM     20  C   UNL     1      33.200 -21.636 -19.267  0.00  0.00    +0.038 C 
ATOM     21  C   UNL     1      35.596 -20.669 -20.316  0.00  0.00    +0.015 C 
ATOM     22  C   UNL     1      33.192 -20.529 -20.115  0.00  0.00    +0.015 C 
ATOM     23  C   UNL     1      34.391 -20.045 -20.639  0.00  0.00    +0.058 C 
ENDBRANCH  16  18
ENDBRANCH  15  16
ENDBRANCH   3  15
TORSDOF 6
ENDMDL
MODEL 2
REMARK VINA RESULT:      -9.1      6.505     10.888
REMARK  Name = 708990
REMARK  6 active torsions:
REMARK  status: ('A' for Active; 'I' for Inactive)
REMARK    1  A    between atoms: N_2  and  C_5
REMARK    2  A    between atoms: C_3  and  C_15
REMARK    3  A    between atoms: C_6  and  C_12
REMARK    4  A    between atoms: C_12  and  O_13
REMARK    5  A    between atoms: C_15  and  O_16
REMARK    6  A    between atoms: O_16  and  C_18
REMARK                            x       y       z     vdW  Elec       q    Type
REMARK                         _______ _______ _______ _____ _____    ______ ____
ROOT
ATOM      1  O   UNL     1      35.130 -16.310 -20.259  0.00  0.00    -0.271 OA
ATOM      2  N   UNL     1      34.025 -15.952 -22.308  0.00  0.00    -0.281 N 
ATOM      3  C   UNL     1      34.868 -16.609 -21.419  0.00  0.00    +0.271 C 
ATOM      4  H   UNL     1      33.935 -16.342 -23.208  0.00  0.00    +0.155 HD
ENDROOT
BRANCH   2   5
ATOM      5  C   UNL     1      33.294 -14.791 -22.042  0.00  0.00    +0.057 C 
ATOM      6  C   UNL     1      32.948 -13.910 -23.067  0.00  0.00    +0.089 C 
ATOM      7  C   UNL     1      32.914 -14.517 -20.728  0.00  0.00    +0.015 C 
ATOM      8  C   UNL     1      32.220 -12.756 -22.778  0.00  0.00    +0.008 C 
ATOM      9  C   UNL     1      32.185 -13.363 -20.440  0.00  0.00    +0.001 C 
ATOM     10  C   UNL     1      31.838 -12.483 -21.465  0.00  0.00    +0.000 C 
BRANCH   6  12
ATOM     11  O   UNL     1      33.460 -15.281 -24.959  0.00  0.00    -0.245 OA
ATOM     12  C   UNL     1      33.331 -14.165 -24.450  0.00  0.00    +0.339 C 
BRANCH  12  13
ATOM     13  O   UNL     1      33.537 -13.018 -25.150  0.00  0.00    -0.477 OA
ATOM     14  H   UNL     1      33.534 -12.192 -24.707  0.00  0.00    +0.295 HD
ENDBRANCH  12  13
ENDBRANCH   6  12
ENDBRANCH   2   5
BRANCH   3  15
ATOM     15  C   UNL     1      35.480 -17.833 -22.076  0.00  0.00    +0.290 C 
BRANCH  15  16
ATOM     16  O   UNL     1      34.514 -18.849 -22.248  0.00  0.00    -0.466 OA
BRANCH  16  18
ATOM     17 CL   UNL     1      33.962 -22.779 -17.921  0.00  0.00    -0.082 Cl
ATOM     18  C   UNL     1      34.385 -19.769 -21.234  0.00  0.00    +0.139 C 
ATOM     19  C   UNL     1      35.518 -20.391 -20.727  0.00  0.00    +0.038 C 
ATOM     20  C   UNL     1      33.124 -20.062 -20.734  0.00  0.00    +0.038 C 
ATOM     21  C   UNL     1      35.386 -21.324 -19.699  0.00  0.00    +0.015 C 
ATOM     22  C   UNL     1      32.992 -20.995 -19.706  0.00  0.00    +0.015 C 
ATOM     23  C   UNL     1      34.123 -21.627 -19.189  0.00  0.00    +0.058 C 
ENDBRANCH  16  18
ENDBRANCH  15  16
ENDBRANCH   3  15
TORSDOF 6
ENDMDL
MODEL 3
REMARK VINA RESULT:      -9.1      1.544      2.436
REMARK  Name = 708990
REMARK  6 active torsions:
REMARK  status: ('A' for Active; 'I' for Inactive)
REMARK    1  A    between atoms: N_2  and  C_5
REMARK    2  A    between atoms: C_3  and  C_15
REMARK    3  A    between atoms: C_6  and  C_12
REMARK    4  A    between atoms: C_12  and  O_13
REMARK    5  A    between atoms: C_15  and  O_16
REMARK    6  A    between atoms: O_16  and  C_18
REMARK                            x       y       z     vdW  Elec       q    Type
REMARK                         _______ _______ _______ _____ _____    ______ ____
ROOT
ATOM      1  O   UNL     1      36.078 -22.337 -16.033  0.00  0.00    -0.271 OA
ATOM      2  N   UNL     1      35.189 -24.434 -15.431  0.00  0.00    -0.281 N 
ATOM      3  C   UNL     1      35.224 -23.215 -16.098  0.00  0.00    +0.271 C 
ATOM      4  H   UNL     1      34.417 -25.018 -15.610  0.00  0.00    +0.155 HD
ENDROOT
BRANCH   2   5
ATOM      5  C   UNL     1      36.149 -24.907 -14.533  0.00  0.00    +0.057 C 
ATOM      6  C   UNL     1      35.944 -24.828 -13.156  0.00  0.00    +0.089 C 
ATOM      7  C   UNL     1      37.328 -25.461 -15.032  0.00  0.00    +0.015 C 
ATOM      8  C   UNL     1      36.916 -25.304 -12.276  0.00  0.00    +0.008 C 
ATOM      9  C   UNL     1      38.301 -25.937 -14.152  0.00  0.00    +0.001 C 
ATOM     10  C   UNL     1      38.095 -25.859 -12.775  0.00  0.00    +0.000 C 
BRANCH   6  12
ATOM     11  O   UNL     1      33.585 -24.448 -13.032  0.00  0.00    -0.245 OA
ATOM     12  C   UNL     1      34.724 -24.254 -12.600  0.00  0.00    +0.339 C 
BRANCH  12  13
ATOM     13  O   UNL     1      34.969 -23.459 -11.525  0.00  0.00    -0.477 OA
ATOM     14  H   UNL     1      34.275 -22.949 -11.152  0.00  0.00    +0.295 HD
ENDBRANCH  12  13
ENDBRANCH   6  12
ENDBRANCH   2   5
BRANCH   3  15
ATOM     15  C   UNL     1      34.003 -23.064 -16.988  0.00  0.00    +0.290 C 
BRANCH  15  16
ATOM     16  O   UNL     1      34.344 -23.249 -18.346  0.00  0.00    -0.466 OA
BRANCH  16  18
ATOM     17 CL   UNL     1      34.576 -18.456 -21.729  0.00  0.00    -0.082 Cl
ATOM     18  C   UNL     1      34.398 -22.127 -19.138  0.00  0.00    +0.139 C 
ATOM     19  C   UNL     1      33.220 -21.496 -19.512  0.00  0.00    +0.038 C 
ATOM     20  C   UNL     1      35.631 -21.641 -19.552  0.00  0.00    +0.038 C 
ATOM     21  C   UNL     1      33.275 -20.358 -20.315  0.00  0.00    +0.015 C 
ATOM     22  C   UNL     1      35.687 -20.503 -20.356  0.00  0.00    +0.015 C 
ATOM     23  C   UNL     1      34.508 -19.861 -20.738  0.00  0.00    +0.058 C 
ENDBRANCH  16  18
ENDBRANCH  15  16
ENDBRANCH   3  15
TORSDOF 6
ENDMDL
MODEL 4
REMARK VINA RESULT:      -9.1      7.078     11.966
REMARK  Name = 708990
REMARK  6 active torsions:
REMARK  status: ('A' for Active; 'I' for Inactive)
REMARK    1  A    between atoms: N_2  and  C_5
REMARK    2  A    between atoms: C_3  and  C_15
REMARK    3  A    between atoms: C_6  and  C_12
REMARK    4  A    between atoms: C_12  and  O_13
REMARK    5  A    between atoms: C_15  and  O_16
REMARK    6  A    between atoms: O_16  and  C_18
REMARK                            x       y       z     vdW  Elec       q    Type
REMARK                         _______ _______ _______ _____ _____    ______ ____
ROOT
ATOM      1  O   UNL     1      35.677 -15.980 -23.242  0.00  0.00    -0.271 OA
ATOM      2  N   UNL     1      33.441 -15.240 -23.267  0.00  0.00    -0.281 N 
ATOM      3  C   UNL     1      34.502 -16.057 -22.897  0.00  0.00    +0.271 C 
ATOM      4  H   UNL     1      32.559 -15.455 -22.886  0.00  0.00    +0.155 HD
ENDROOT
BRANCH   2   5
ATOM      5  C   UNL     1      33.510 -14.143 -24.130  0.00  0.00    +0.057 C 
ATOM      6  C   UNL     1      33.450 -14.311 -25.513  0.00  0.00    +0.089 C 
ATOM      7  C   UNL     1      33.644 -12.864 -23.588  0.00  0.00    +0.015 C 
ATOM      8  C   UNL     1      33.523 -13.202 -26.355  0.00  0.00    +0.008 C 
ATOM      9  C   UNL     1      33.716 -11.754 -24.430  0.00  0.00    +0.001 C 
ATOM     10  C   UNL     1      33.656 -11.923 -25.813  0.00  0.00    +0.000 C 
BRANCH   6  12
ATOM     11  O   UNL     1      32.310 -16.046 -26.701  0.00  0.00    -0.245 OA
ATOM     12  C   UNL     1      33.312 -15.633 -26.112  0.00  0.00    +0.339 C 
BRANCH  12  13
ATOM     13  O   UNL     1      34.428 -16.392 -25.956  0.00  0.00    -0.477 OA
ATOM     14  H   UNL     1      34.847 -16.769 -26.706  0.00  0.00    +0.295 HD
ENDBRANCH  12  13
ENDBRANCH   6  12
ENDBRANCH   2   5
BRANCH   3  15
ATOM     15  C   UNL     1      34.029 -17.140 -21.945  0.00  0.00    +0.290 C 
BRANCH  15  16
ATOM     16  O   UNL     1      34.864 -18.277 -22.020  0.00  0.00    -0.466 OA
BRANCH  16  18
ATOM     17 CL   UNL     1      33.607 -22.764 -18.447  0.00  0.00    -0.082 Cl
ATOM     18  C   UNL     1      34.570 -19.328 -21.184  0.00  0.00    +0.139 C 
ATOM     19  C   UNL     1      33.247 -19.586 -20.850  0.00  0.00    +0.038 C 
ATOM     20  C   UNL     1      35.599 -20.115 -20.686  0.00  0.00    +0.038 C 
ATOM     21  C   UNL     1      32.950 -20.652 -20.001  0.00  0.00    +0.015 C 
ATOM     22  C   UNL     1      35.301 -21.180 -19.837  0.00  0.00    +0.015 C 
ATOM     23  C   UNL     1      33.976 -21.449 -19.494  0.00  0.00    +0.058 C 
ENDBRANCH  16  18
ENDBRANCH  15  16
ENDBRANCH   3  15
TORSDOF 6
ENDMDL
MODEL 5
REMARK VINA RESULT:      -9.0      9.164     11.918
REMARK  Name = 708990
REMARK  6 active torsions:
REMARK  status: ('A' for Active; 'I' for Inactive)
REMARK    1  A    between atoms: N_2  and  C_5
REMARK    2  A    between atoms: C_3  and  C_15
REMARK    3  A    between atoms: C_6  and  C_12
REMARK    4  A    between atoms: C_12  and  O_13
REMARK    5  A    between atoms: C_15  and  O_16
REMARK    6  A    between atoms: O_16  and  C_18
REMARK                            x       y       z     vdW  Elec       q    Type
REMARK                         _______ _______ _______ _____ _____    ______ ____
ROOT
ATOM      1  O   UNL     1      32.297 -15.116 -21.840  0.00  0.00    -0.271 OA
ATOM      2  N   UNL     1      34.287 -15.320 -23.083  0.00  0.00    -0.281 N 
ATOM      3  C   UNL     1      33.143 -14.684 -22.616  0.00  0.00    +0.271 C 
ATOM      4  H   UNL     1      34.856 -14.813 -23.708  0.00  0.00    +0.155 HD
ENDROOT
BRANCH   2   5
ATOM      5  C   UNL     1      34.706 -16.610 -22.748  0.00  0.00    +0.057 C 
ATOM      6  C   UNL     1      34.796 -17.610 -23.716  0.00  0.00    +0.089 C 
ATOM      7  C   UNL     1      35.033 -16.892 -21.421  0.00  0.00    +0.015 C 
ATOM      8  C   UNL     1      35.215 -18.892 -23.358  0.00  0.00    +0.008 C 
ATOM      9  C   UNL     1      35.451 -18.173 -21.064  0.00  0.00    +0.001 C 
ATOM     10  C   UNL     1      35.542 -19.173 -22.032  0.00  0.00    +0.000 C 
BRANCH   6  12
ATOM     11  O   UNL     1      34.886 -16.406 -25.781  0.00  0.00    -0.245 OA
ATOM     12  C   UNL     1      34.462 -17.350 -25.111  0.00  0.00    +0.339 C 
BRANCH  12  13
ATOM     13  O   UNL     1      33.610 -18.279 -25.621  0.00  0.00    -0.477 OA
ATOM     14  H   UNL     1      33.112 -18.085 -26.391  0.00  0.00    +0.295 HD
ENDBRANCH  12  13
ENDBRANCH   6  12
ENDBRANCH   2   5
BRANCH   3  15
ATOM     15  C   UNL     1      33.033 -13.290 -23.208  0.00  0.00    +0.290 C 
BRANCH  15  16
ATOM     16  O   UNL     1      31.813 -12.682 -22.840  0.00  0.00    -0.466 OA
BRANCH  16  18
ATOM     17 CL   UNL     1      32.126  -7.596 -19.921  0.00  0.00    -0.082 Cl
ATOM     18  C   UNL     1      31.886 -11.491 -22.156  0.00  0.00    +0.139 C 
ATOM     19  C   UNL     1      31.498 -11.442 -20.825  0.00  0.00    +0.038 C 
ATOM     20  C   UNL     1      32.348 -10.356 -22.808  0.00  0.00    +0.038 C 
ATOM     21  C   UNL     1      31.573 -10.234 -20.132  0.00  0.00    +0.015 C 
ATOM     22  C   UNL     1      32.423  -9.148 -22.116  0.00  0.00    +0.015 C 
ATOM     23  C   UNL     1      32.034  -9.086 -20.777  0.00  0.00    +0.058 C 
ENDBRANCH  16  18
ENDBRANCH  15  16
ENDBRANCH   3  15
TORSDOF 6
ENDMDL
MODEL 6
REMARK VINA RESULT:      -9.0     11.242     15.459
REMARK  Name = 708990
REMARK  6 active torsions:
REMARK  status: ('A' for Active; 'I' for Inactive)
REMARK    1  A    between atoms: N_2  and  C_5
REMARK    2  A    between atoms: C_3  and  C_15
REMARK    3  A    between atoms: C_6  and  C_12
REMARK    4  A    between atoms: C_12  and  O_13
REMARK    5  A    between atoms: C_15  and  O_16
REMARK    6  A    between atoms: O_16  and  C_18
REMARK                            x       y       z     vdW  Elec       q    Type
REMARK                         _______ _______ _______ _____ _____    ______ ____
ROOT
ATOM      1  O   UNL     1      33.221 -10.515 -23.594  0.00  0.00    -0.271 OA
ATOM      2  N   UNL     1      31.517  -9.709 -22.181  0.00  0.00    -0.281 N 
ATOM      3  C   UNL     1      32.320 -10.674 -22.777  0.00  0.00    +0.271 C 
ATOM      4  H   UNL     1      30.839 -10.026 -21.542  0.00  0.00    +0.155 HD
ENDROOT
BRANCH   2   5
ATOM      5  C   UNL     1      31.585  -8.331 -22.406  0.00  0.00    +0.057 C 
ATOM      6  C   UNL     1      32.017  -7.461 -21.406  0.00  0.00    +0.089 C 
ATOM      7  C   UNL     1      31.207  -7.830 -23.652  0.00  0.00    +0.015 C 
ATOM      8  C   UNL     1      32.076  -6.089 -21.651  0.00  0.00    +0.008 C 
ATOM      9  C   UNL     1      31.265  -6.458 -23.897  0.00  0.00    +0.001 C 
ATOM     10  C   UNL     1      31.699  -5.588 -22.898  0.00  0.00    +0.000 C 
BRANCH   6  12
ATOM     11  O   UNL     1      31.920  -8.917 -19.511  0.00  0.00    -0.245 OA
ATOM     12  C   UNL     1      32.418  -7.951 -20.092  0.00  0.00    +0.339 C 
BRANCH  12  13
ATOM     13  O   UNL     1      33.427  -7.218 -19.552  0.00  0.00    -0.477 OA
ATOM     14  H   UNL     1      34.247  -7.145 -20.001  0.00  0.00    +0.295 HD
ENDBRANCH  12  13
ENDBRANCH   6  12
ENDBRANCH   2   5
BRANCH   3  15
ATOM     15  C   UNL     1      31.944 -12.058 -22.277  0.00  0.00    +0.290 C 
BRANCH  15  16
ATOM     16  O   UNL     1      32.351 -13.053 -23.193  0.00  0.00    -0.466 OA
BRANCH  16  18
ATOM     17 CL   UNL     1      35.314 -17.636 -21.026  0.00  0.00    -0.082 Cl
ATOM     18  C   UNL     1      33.045 -14.126 -22.685  0.00  0.00    +0.139 C 
ATOM     19  C   UNL     1      34.105 -14.658 -23.407  0.00  0.00    +0.038 C 
ATOM     20  C   UNL     1      32.676 -14.661 -21.459  0.00  0.00    +0.038 C 
ATOM     21  C   UNL     1      34.808 -15.746 -22.892  0.00  0.00    +0.015 C 
ATOM     22  C   UNL     1      33.379 -15.749 -20.943  0.00  0.00    +0.015 C 
ATOM     23  C   UNL     1      34.445 -16.293 -21.660  0.00  0.00    +0.058 C 
ENDBRANCH  16  18
ENDBRANCH  15  16
ENDBRANCH   3  15
TORSDOF 6
ENDMDL
MODEL 7
REMARK VINA RESULT:      -9.0      6.430     10.615
REMARK  Name = 708990
REMARK  6 active torsions:
REMARK  status: ('A' for Active; 'I' for Inactive)
REMARK    1  A    between atoms: N_2  and  C_5
REMARK    2  A    between atoms: C_3  and  C_15
REMARK    3  A    between atoms: C_6  and  C_12
REMARK    4  A    between atoms: C_12  and  O_13
REMARK    5  A    between atoms: C_15  and  O_16
REMARK    6  A    between atoms: O_16  and  C_18
REMARK                            x       y       z     vdW  Elec       q    Type
REMARK                         _______ _______ _______ _____ _____    ______ ____
ROOT
ATOM      1  O   UNL     1      34.223 -17.822 -24.802  0.00  0.00    -0.271 OA
ATOM      2  N   UNL     1      34.800 -16.559 -22.899  0.00  0.00    -0.281 N 
ATOM      3  C   UNL     1      34.832 -17.658 -23.750  0.00  0.00    +0.271 C 
ATOM      4  H   UNL     1      35.362 -16.605 -22.092  0.00  0.00    +0.155 HD
ENDROOT
BRANCH   2   5
ATOM      5  C   UNL     1      34.045 -15.398 -23.084  0.00  0.00    +0.057 C 
ATOM      6  C   UNL     1      33.517 -14.704 -21.996  0.00  0.00    +0.089 C 
ATOM      7  C   UNL     1      33.820 -14.937 -24.381  0.00  0.00    +0.015 C 
ATOM      8  C   UNL     1      32.765 -13.548 -22.204  0.00  0.00    +0.008 C 
ATOM      9  C   UNL     1      33.068 -13.781 -24.589  0.00  0.00    +0.001 C 
ATOM     10  C   UNL     1      32.541 -13.086 -23.501  0.00  0.00    +0.000 C 
BRANCH   6  12
ATOM     11  O   UNL     1      34.814 -15.523 -20.160  0.00  0.00    -0.245 OA
ATOM     12  C   UNL     1      33.732 -15.158 -20.627  0.00  0.00    +0.339 C 
BRANCH  12  13
ATOM     13  O   UNL     1      32.590 -15.141 -19.890  0.00  0.00    -0.477 OA
ATOM     14  H   UNL     1      31.922 -14.510 -20.076  0.00  0.00    +0.295 HD
ENDBRANCH  12  13
ENDBRANCH   6  12
ENDBRANCH   2   5
BRANCH   3  15
ATOM     15  C   UNL     1      35.772 -18.720 -23.209  0.00  0.00    +0.290 C 
BRANCH  15  16
ATOM     16  O   UNL     1      35.923 -18.593 -21.810  0.00  0.00    -0.466 OA
BRANCH  16  18
ATOM     17 CL   UNL     1      33.318 -22.651 -18.459  0.00  0.00    -0.082 Cl
ATOM     18  C   UNL     1      35.313 -19.543 -21.025  0.00  0.00    +0.139 C 
ATOM     19  C   UNL     1      36.091 -20.465 -20.339  0.00  0.00    +0.038 C 
ATOM     20  C   UNL     1      33.928 -19.566 -20.930  0.00  0.00    +0.038 C 
ATOM     21  C   UNL     1      35.472 -21.429 -19.543  0.00  0.00    +0.015 C 
ATOM     22  C   UNL     1      33.309 -20.529 -20.135  0.00  0.00    +0.015 C 
ATOM     23  C   UNL     1      34.081 -21.462 -19.441  0.00  0.00    +0.058 C 
ENDBRANCH  16  18
ENDBRANCH  15  16
ENDBRANCH   3  15
TORSDOF 6
ENDMDL
MODEL 8
REMARK VINA RESULT:      -9.0      9.440     12.266
REMARK  Name = 708990
REMARK  6 active torsions:
REMARK  status: ('A' for Active; 'I' for Inactive)
REMARK    1  A    between atoms: N_2  and  C_5
REMARK    2  A    between atoms: C_3  and  C_15
REMARK    3  A    between atoms: C_6  and  C_12
REMARK    4  A    between atoms: C_12  and  O_13
REMARK    5  A    between atoms: C_15  and  O_16
REMARK    6  A    between atoms: O_16  and  C_18
REMARK                            x       y       z     vdW  Elec       q    Type
REMARK                         _______ _______ _______ _____ _____    ______ ____
ROOT
ATOM      1  O   UNL     1      31.931 -15.148 -21.402  0.00  0.00    -0.271 OA
ATOM      2  N   UNL     1      33.937 -14.832 -22.596  0.00  0.00    -0.281 N 
ATOM      3  C   UNL     1      32.719 -14.459 -22.042  0.00  0.00    +0.271 C 
ATOM      4  H   UNL     1      34.439 -14.137 -23.080  0.00  0.00    +0.155 HD
ENDROOT
BRANCH   2   5
ATOM      5  C   UNL     1      34.516 -16.102 -22.527  0.00  0.00    +0.057 C 
ATOM      6  C   UNL     1      34.692 -16.874 -23.675  0.00  0.00    +0.089 C 
ATOM      7  C   UNL     1      34.917 -16.596 -21.286  0.00  0.00    +0.015 C 
ATOM      8  C   UNL     1      35.272 -18.139 -23.583  0.00  0.00    +0.008 C 
ATOM      9  C   UNL     1      35.496 -17.862 -21.194  0.00  0.00    +0.001 C 
ATOM     10  C   UNL     1      35.673 -18.633 -22.342  0.00  0.00    +0.000 C 
BRANCH   6  12
ATOM     11  O   UNL     1      33.371 -15.587 -25.198  0.00  0.00    -0.245 OA
ATOM     12  C   UNL     1      34.284 -16.388 -24.988  0.00  0.00    +0.339 C 
BRANCH  12  13
ATOM     13  O   UNL     1      35.031 -16.920 -25.992  0.00  0.00    -0.477 OA
ATOM     14  H   UNL     1      35.673 -17.576 -25.802  0.00  0.00    +0.295 HD
ENDBRANCH  12  13
ENDBRANCH   6  12
ENDBRANCH   2   5
BRANCH   3  15
ATOM     15  C   UNL     1      32.434 -12.995 -22.329  0.00  0.00    +0.290 C 
BRANCH  15  16
ATOM     16  O   UNL     1      32.983 -12.609 -23.571  0.00  0.00    -0.466 OA
BRANCH  16  18
ATOM     17 CL   UNL     1      34.757  -7.036 -24.096  0.00  0.00    -0.082 Cl
ATOM     18  C   UNL     1      33.398 -11.304 -23.695  0.00  0.00    +0.139 C 
ATOM     19  C   UNL     1      34.502 -11.009 -24.482  0.00  0.00    +0.038 C 
ATOM     20  C   UNL     1      32.707 -10.300 -23.029  0.00  0.00    +0.038 C 
ATOM     21  C   UNL     1      34.924  -9.686 -24.607  0.00  0.00    +0.015 C 
ATOM     22  C   UNL     1      33.128  -8.977 -23.153  0.00  0.00    +0.015 C 
ATOM     23  C   UNL     1      34.237  -8.669 -23.942  0.00  0.00    +0.058 C 
ENDBRANCH  16  18
ENDBRANCH  15  16
ENDBRANCH   3  15
TORSDOF 6
ENDMDL
MODEL 9
REMARK VINA RESULT:      -9.0      2.592      4.025
REMARK  Name = 708990
REMARK  6 active torsions:
REMARK  status: ('A' for Active; 'I' for Inactive)
REMARK    1  A    between atoms: N_2  and  C_5
REMARK    2  A    between atoms: C_3  and  C_15
REMARK    3  A    between atoms: C_6  and  C_12
REMARK    4  A    between atoms: C_12  and  O_13
REMARK    5  A    between atoms: C_15  and  O_16
REMARK    6  A    between atoms: O_16  and  C_18
REMARK                            x       y       z     vdW  Elec       q    Type
REMARK                         _______ _______ _______ _____ _____    ______ ____
ROOT
ATOM      1  O   UNL     1      33.464 -24.067 -18.197  0.00  0.00    -0.271 OA
ATOM      2  N   UNL     1      33.403 -22.954 -16.122  0.00  0.00    -0.281 N 
ATOM      3  C   UNL     1      33.881 -23.237 -17.396  0.00  0.00    +0.271 C 
ATOM      4  H   UNL     1      33.868 -22.248 -15.618  0.00  0.00    +0.155 HD
ENDROOT
BRANCH   2   5
ATOM      5  C   UNL     1      32.325 -23.579 -15.491  0.00  0.00    +0.057 C 
ATOM      6  C   UNL     1      32.503 -24.303 -14.312  0.00  0.00    +0.089 C 
ATOM      7  C   UNL     1      31.055 -23.475 -16.060  0.00  0.00    +0.015 C 
ATOM      8  C   UNL     1      31.412 -24.920 -13.700  0.00  0.00    +0.008 C 
ATOM      9  C   UNL     1      29.964 -24.092 -15.448  0.00  0.00    +0.001 C 
ATOM     10  C   UNL     1      30.142 -24.814 -14.269  0.00  0.00    +0.000 C 
BRANCH   6  12
ATOM     11  O   UNL     1      34.127 -23.985 -12.585  0.00  0.00    -0.245 OA
ATOM     12  C   UNL     1      33.815 -24.433 -13.691  0.00  0.00    +0.339 C 
BRANCH  12  13
ATOM     13  O   UNL     1      34.692 -25.119 -14.471  0.00  0.00    -0.477 OA
ATOM     14  H   UNL     1      35.350 -25.656 -14.075  0.00  0.00    +0.295 HD
ENDBRANCH  12  13
ENDBRANCH   6  12
ENDBRANCH   2   5
BRANCH   3  15
ATOM     15  C   UNL     1      35.065 -22.346 -17.727  0.00  0.00    +0.290 C 
BRANCH  15  16
ATOM     16  O   UNL     1      35.342 -22.371 -19.112  0.00  0.00    -0.466 OA
BRANCH  16  18
ATOM     17 CL   UNL     1      34.633 -17.349 -22.071  0.00  0.00    -0.082 Cl
ATOM     18  C   UNL     1      35.176 -21.195 -19.805  0.00  0.00    +0.139 C 
ATOM     19  C   UNL     1      36.291 -20.456 -20.174  0.00  0.00    +0.038 C 
ATOM     20  C   UNL     1      33.896 -20.765 -20.126  0.00  0.00    +0.038 C 
ATOM     21  C   UNL     1      36.122 -19.263 -20.877  0.00  0.00    +0.015 C 
ATOM     22  C   UNL     1      33.727 -19.573 -20.829  0.00  0.00    +0.015 C 
ATOM     23  C   UNL     1      34.840 -18.821 -21.204  0.00  0.00    +0.058 C 
ENDBRANCH  16  18
ENDBRANCH  15  16
ENDBRANCH   3  15
TORSDOF 6
ENDMDL
