MODEL 1
REMARK VINA RESULT:     -10.2      0.000      0.000
REMARK  Name = 5834
REMARK  6 active torsions:
REMARK  status: ('A' for Active; 'I' for Inactive)
REMARK    1  A    between atoms: C_6  and  O_21
REMARK    2  A    between atoms: C_6  and  C_26
REMARK    3  A    between atoms: C_9  and  O_23
REMARK    4  A    between atoms: C_26  and  C_27
REMARK    5  A    between atoms: C_27  and  O_28
REMARK    6  A    between atoms: O_28  and  C_30
REMARK                            x       y       z     vdW  Elec       q    Type
REMARK                         _______ _______ _______ _____ _____    ______ ____
ROOT
ATOM      1  O   UNL     1      39.732 -26.553 -14.627  0.00  0.00    -0.287 OA
ATOM      2  C   UNL     1      32.029 -23.671 -14.785  0.00  0.00    +0.031 C 
ATOM      3  C   UNL     1      33.124 -23.544 -15.866  0.00  0.00    +0.003 C 
ATOM      4  C   UNL     1      34.511 -23.206 -15.300  0.00  0.00    +0.003 C 
ATOM      5  C   UNL     1      34.947 -24.349 -14.316  0.00  0.00    +0.034 C 
ATOM      6  C   UNL     1      30.801 -23.942 -15.698  0.00  0.00    +0.143 C 
ATOM      7  C   UNL     1      32.440 -24.822 -13.843  0.00  0.00    +0.032 C 
ATOM      8  C   UNL     1      32.499 -22.607 -16.896  0.00  0.00    +0.003 C 
ATOM      9  C   UNL     1      33.851 -24.641 -13.242  0.00  0.00    +0.111 C 
ATOM     10  C   UNL     1      36.415 -24.138 -13.770  0.00  0.00    +0.036 C 
ATOM     11  C   UNL     1      31.005 -22.990 -16.899  0.00  0.00    +0.034 C 
ATOM     12  C   UNL     1      35.531 -23.035 -16.440  0.00  0.00    +0.004 C 
ATOM     13  C   UNL     1      31.801 -22.359 -13.984  0.00  0.00    +0.003 C 
ATOM     14  C   UNL     1      36.949 -22.825 -15.922  0.00  0.00    +0.022 C 
ATOM     15  C   UNL     1      37.330 -23.941 -14.983  0.00  0.00    -0.038 C 
ATOM     16  C   UNL     1      36.572 -22.912 -12.843  0.00  0.00    +0.009 C 
ATOM     17  C   UNL     1      36.844 -25.347 -12.950  0.00  0.00    -0.020 C 
ATOM     18  C   UNL     1      38.390 -24.719 -15.254  0.00  0.00    +0.034 C 
ATOM     19  C   UNL     1      37.896 -26.127 -13.215  0.00  0.00    +0.038 C 
ATOM     20  C   UNL     1      38.753 -25.856 -14.383  0.00  0.00    +0.195 C 
ENDROOT
BRANCH   6  21
ATOM     21  O   UNL     1      30.787 -25.289 -16.160  0.00  0.00    -0.380 OA
ATOM     22  H   UNL     1      31.688 -25.556 -16.405  0.00  0.00    +0.211 HD
ENDBRANCH   6  21
BRANCH   9  23
ATOM     23  O   UNL     1      33.819 -23.625 -12.248  0.00  0.00    -0.384 OA
ATOM     24  H   UNL     1      34.725 -23.346 -12.042  0.00  0.00    +0.210 HD
ENDBRANCH   9  23
BRANCH   6  26
ATOM     25  O   UNL     1      29.015 -24.628 -14.279  0.00  0.00    -0.290 OA
ATOM     26  C   UNL     1      29.473 -23.765 -15.027  0.00  0.00    +0.218 C 
BRANCH  26  27
ATOM     27  C   UNL     1      28.738 -22.476 -15.323  0.00  0.00    +0.274 C 
BRANCH  27  28
ATOM     28  O   UNL     1      27.425 -22.742 -15.769  0.00  0.00    -0.440 OA
BRANCH  28  30
ATOM     29  O   UNL     1      27.665 -23.290 -18.001  0.00  0.00    -0.250 OA
ATOM     30  C   UNL     1      27.201 -22.587 -17.114  0.00  0.00    +0.318 C 
ATOM     31  C   UNL     1      26.293 -21.419 -17.357  0.00  0.00    +0.121 C 
ENDBRANCH  28  30
ENDBRANCH  27  28
ENDBRANCH  26  27
ENDBRANCH   6  26
TORSDOF 6
ENDMDL
MODEL 2
REMARK VINA RESULT:      -9.3     10.141     12.744
REMARK  Name = 5834
REMARK  6 active torsions:
REMARK  status: ('A' for Active; 'I' for Inactive)
REMARK    1  A    between atoms: C_6  and  O_21
REMARK    2  A    between atoms: C_6  and  C_26
REMARK    3  A    between atoms: C_9  and  O_23
REMARK    4  A    between atoms: C_26  and  C_27
REMARK    5  A    between atoms: C_27  and  O_28
REMARK    6  A    between atoms: O_28  and  C_30
REMARK                            x       y       z     vdW  Elec       q    Type
REMARK                         _______ _______ _______ _____ _____    ______ ____
ROOT
ATOM      1  O   UNL     1      34.842 -10.077 -26.128  0.00  0.00    -0.287 OA
ATOM      2  C   UNL     1      34.711 -17.376 -22.338  0.00  0.00    +0.031 C 
ATOM      3  C   UNL     1      34.650 -17.079 -23.852  0.00  0.00    +0.003 C 
ATOM      4  C   UNL     1      33.725 -15.908 -24.212  0.00  0.00    +0.003 C 
ATOM      5  C   UNL     1      34.249 -14.612 -23.496  0.00  0.00    +0.034 C 
ATOM      6  C   UNL     1      35.651 -18.613 -22.359  0.00  0.00    +0.143 C 
ATOM      7  C   UNL     1      35.264 -16.116 -21.641  0.00  0.00    +0.032 C 
ATOM      8  C   UNL     1      34.382 -18.448 -24.472  0.00  0.00    +0.003 C 
ATOM      9  C   UNL     1      34.457 -14.839 -21.965  0.00  0.00    +0.111 C 
ATOM     10  C   UNL     1      33.419 -13.330 -23.901  0.00  0.00    +0.036 C 
ATOM     11  C   UNL     1      35.178 -19.428 -23.585  0.00  0.00    +0.034 C 
ATOM     12  C   UNL     1      33.670 -15.715 -25.738  0.00  0.00    +0.004 C 
ATOM     13  C   UNL     1      33.336 -17.780 -21.735  0.00  0.00    +0.003 C 
ATOM     14  C   UNL     1      32.866 -14.484 -26.139  0.00  0.00    +0.022 C 
ATOM     15  C   UNL     1      33.398 -13.263 -25.432  0.00  0.00    -0.038 C 
ATOM     16  C   UNL     1      31.957 -13.342 -23.399  0.00  0.00    +0.009 C 
ATOM     17  C   UNL     1      34.062 -12.085 -23.305  0.00  0.00    -0.020 C 
ATOM     18  C   UNL     1      33.858 -12.220 -26.140  0.00  0.00    +0.034 C 
ATOM     19  C   UNL     1      34.523 -11.044 -24.005  0.00  0.00    +0.038 C 
ATOM     20  C   UNL     1      34.439 -11.035 -25.476  0.00  0.00    +0.195 C 
ENDROOT
BRANCH   6  21
ATOM     21  O   UNL     1      37.010 -18.227 -22.545  0.00  0.00    -0.380 OA
ATOM     22  H   UNL     1      37.459 -18.201 -21.685  0.00  0.00    +0.211 HD
ENDBRANCH   6  21
BRANCH   9  23
ATOM     23  O   UNL     1      33.216 -14.871 -21.274  0.00  0.00    -0.384 OA
ATOM     24  H   UNL     1      33.228 -14.217 -20.558  0.00  0.00    +0.210 HD
ENDBRANCH   9  23
BRANCH   6  26
ATOM     25  O   UNL     1      36.352 -19.075 -20.130  0.00  0.00    -0.290 OA
ATOM     26  C   UNL     1      35.662 -19.412 -21.091  0.00  0.00    +0.218 C 
BRANCH  26  27
ATOM     27  C   UNL     1      34.782 -20.643 -21.066  0.00  0.00    +0.274 C 
BRANCH  27  28
ATOM     28  O   UNL     1      34.774 -21.224 -19.780  0.00  0.00    -0.440 OA
BRANCH  28  30
ATOM     29  O   UNL     1      32.520 -20.836 -19.447  0.00  0.00    -0.250 OA
ATOM     30  C   UNL     1      33.538 -21.483 -19.242  0.00  0.00    +0.318 C 
ATOM     31  C   UNL     1      33.602 -22.687 -18.352  0.00  0.00    +0.121 C 
ENDBRANCH  28  30
ENDBRANCH  27  28
ENDBRANCH  26  27
ENDBRANCH   6  26
TORSDOF 6
ENDMDL
MODEL 3
REMARK VINA RESULT:      -7.8      3.328      7.621
REMARK  Name = 5834
REMARK  6 active torsions:
REMARK  status: ('A' for Active; 'I' for Inactive)
REMARK    1  A    between atoms: C_6  and  O_21
REMARK    2  A    between atoms: C_6  and  C_26
REMARK    3  A    between atoms: C_9  and  O_23
REMARK    4  A    between atoms: C_26  and  C_27
REMARK    5  A    between atoms: C_27  and  O_28
REMARK    6  A    between atoms: O_28  and  C_30
REMARK                            x       y       z     vdW  Elec       q    Type
REMARK                         _______ _______ _______ _____ _____    ______ ____
ROOT
ATOM      1  O   UNL     1      33.488 -18.302 -21.389  0.00  0.00    -0.287 OA
ATOM      2  C   UNL     1      35.366 -23.584 -15.370  0.00  0.00    +0.031 C 
ATOM      3  C   UNL     1      36.283 -22.551 -16.062  0.00  0.00    +0.003 C 
ATOM      4  C   UNL     1      36.106 -22.496 -17.586  0.00  0.00    +0.003 C 
ATOM      5  C   UNL     1      34.621 -22.103 -17.909  0.00  0.00    +0.034 C 
ATOM      6  C   UNL     1      35.850 -23.411 -13.904  0.00  0.00    +0.143 C 
ATOM      7  C   UNL     1      33.907 -23.172 -15.655  0.00  0.00    +0.032 C 
ATOM      8  C   UNL     1      37.663 -22.862 -15.489  0.00  0.00    +0.003 C 
ATOM      9  C   UNL     1      33.602 -23.021 -17.161  0.00  0.00    +0.111 C 
ATOM     10  C   UNL     1      34.377 -21.914 -19.459  0.00  0.00    +0.036 C 
ATOM     11  C   UNL     1      37.385 -23.263 -14.026  0.00  0.00    +0.034 C 
ATOM     12  C   UNL     1      37.094 -21.493 -18.207  0.00  0.00    +0.004 C 
ATOM     13  C   UNL     1      35.627 -25.044 -15.834  0.00  0.00    +0.003 C 
ATOM     14  C   UNL     1      36.871 -21.308 -19.703  0.00  0.00    +0.022 C 
ATOM     15  C   UNL     1      35.436 -20.932 -19.972  0.00  0.00    -0.038 C 
ATOM     16  C   UNL     1      34.494 -23.219 -20.278  0.00  0.00    +0.009 C 
ATOM     17  C   UNL     1      32.971 -21.384 -19.704  0.00  0.00    -0.020 C 
ATOM     18  C   UNL     1      35.146 -19.775 -20.587  0.00  0.00    +0.034 C 
ATOM     19  C   UNL     1      32.676 -20.232 -20.314  0.00  0.00    +0.038 C 
ATOM     20  C   UNL     1      33.748 -19.353 -20.812  0.00  0.00    +0.195 C 
ENDROOT
BRANCH   6  21
ATOM     21  O   UNL     1      35.308 -22.232 -13.315  0.00  0.00    -0.380 OA
ATOM     22  H   UNL     1      35.871 -21.473 -13.535  0.00  0.00    +0.211 HD
ENDBRANCH   6  21
BRANCH   9  23
ATOM     23  O   UNL     1      33.525 -24.305 -17.764  0.00  0.00    -0.384 OA
ATOM     24  H   UNL     1      32.735 -24.766 -17.442  0.00  0.00    +0.210 HD
ENDBRANCH   9  23
BRANCH   6  26
ATOM     25  O   UNL     1      34.252 -24.774 -12.780  0.00  0.00    -0.290 OA
ATOM     26  C   UNL     1      35.438 -24.513 -12.975  0.00  0.00    +0.218 C 
BRANCH  26  27
ATOM     27  C   UNL     1      36.558 -25.276 -12.301  0.00  0.00    +0.274 C 
BRANCH  27  28
ATOM     28  O   UNL     1      36.777 -26.513 -12.945  0.00  0.00    -0.440 OA
BRANCH  28  30
ATOM     29  O   UNL     1      38.025 -27.267 -14.739  0.00  0.00    -0.250 OA
ATOM     30  C   UNL     1      37.906 -26.599 -13.720  0.00  0.00    +0.318 C 
ATOM     31  C   UNL     1      38.997 -25.750 -13.141  0.00  0.00    +0.121 C 
ENDBRANCH  28  30
ENDBRANCH  27  28
ENDBRANCH  26  27
ENDBRANCH   6  26
TORSDOF 6
ENDMDL
MODEL 4
REMARK VINA RESULT:      -7.4      3.468      7.510
REMARK  Name = 5834
REMARK  6 active torsions:
REMARK  status: ('A' for Active; 'I' for Inactive)
REMARK    1  A    between atoms: C_6  and  O_21
REMARK    2  A    between atoms: C_6  and  C_26
REMARK    3  A    between atoms: C_9  and  O_23
REMARK    4  A    between atoms: C_26  and  C_27
REMARK    5  A    between atoms: C_27  and  O_28
REMARK    6  A    between atoms: O_28  and  C_30
REMARK                            x       y       z     vdW  Elec       q    Type
REMARK                         _______ _______ _______ _____ _____    ______ ____
ROOT
ATOM      1  O   UNL     1      33.551 -18.148 -21.484  0.00  0.00    -0.287 OA
ATOM      2  C   UNL     1      35.259 -23.577 -15.546  0.00  0.00    +0.031 C 
ATOM      3  C   UNL     1      36.195 -22.531 -16.189  0.00  0.00    +0.003 C 
ATOM      4  C   UNL     1      36.059 -22.439 -17.716  0.00  0.00    +0.003 C 
ATOM      5  C   UNL     1      34.583 -22.034 -18.068  0.00  0.00    +0.034 C 
ATOM      6  C   UNL     1      35.705 -23.441 -14.064  0.00  0.00    +0.143 C 
ATOM      7  C   UNL     1      33.809 -23.155 -15.859  0.00  0.00    +0.032 C 
ATOM      8  C   UNL     1      37.559 -22.859 -15.588  0.00  0.00    +0.003 C 
ATOM      9  C   UNL     1      33.543 -22.966 -17.369  0.00  0.00    +0.111 C 
ATOM     10  C   UNL     1      34.381 -21.808 -19.618  0.00  0.00    +0.036 C 
ATOM     11  C   UNL     1      37.242 -23.295 -14.142  0.00  0.00    +0.034 C 
ATOM     12  C   UNL     1      37.065 -21.424 -18.286  0.00  0.00    +0.004 C 
ATOM     13  C   UNL     1      35.528 -25.027 -16.038  0.00  0.00    +0.003 C 
ATOM     14  C   UNL     1      36.881 -21.203 -19.783  0.00  0.00    +0.022 C 
ATOM     15  C   UNL     1      35.455 -20.816 -20.080  0.00  0.00    -0.038 C 
ATOM     16  C   UNL     1      34.516 -23.093 -20.466  0.00  0.00    +0.009 C 
ATOM     17  C   UNL     1      32.983 -21.268 -19.887  0.00  0.00    -0.020 C 
ATOM     18  C   UNL     1      35.183 -19.645 -20.675  0.00  0.00    +0.034 C 
ATOM     19  C   UNL     1      32.706 -20.101 -20.477  0.00  0.00    +0.038 C 
ATOM     20  C   UNL     1      33.793 -19.213 -20.926  0.00  0.00    +0.195 C 
ENDROOT
BRANCH   6  21
ATOM     21  O   UNL     1      35.150 -22.275 -13.462  0.00  0.00    -0.380 OA
ATOM     22  H   UNL     1      34.240 -22.459 -13.178  0.00  0.00    +0.211 HD
ENDBRANCH   6  21
BRANCH   9  23
ATOM     23  O   UNL     1      33.479 -24.236 -18.004  0.00  0.00    -0.384 OA
ATOM     24  H   UNL     1      32.787 -24.772 -17.586  0.00  0.00    +0.210 HD
ENDBRANCH   9  23
BRANCH   6  26
ATOM     25  O   UNL     1      34.078 -24.747 -12.915  0.00  0.00    -0.290 OA
ATOM     26  C   UNL     1      35.266 -24.564 -13.173  0.00  0.00    +0.218 C 
BRANCH  26  27
ATOM     27  C   UNL     1      36.362 -25.446 -12.617  0.00  0.00    +0.274 C 
BRANCH  27  28
ATOM     28  O   UNL     1      36.173 -25.666 -11.235  0.00  0.00    -0.440 OA
BRANCH  28  30
ATOM     29  O   UNL     1      35.148 -24.378  -9.613  0.00  0.00    -0.250 OA
ATOM     30  C   UNL     1      36.014 -24.544 -10.461  0.00  0.00    +0.318 C 
ATOM     31  C   UNL     1      37.064 -23.529 -10.799  0.00  0.00    +0.121 C 
ENDBRANCH  28  30
ENDBRANCH  27  28
ENDBRANCH  26  27
ENDBRANCH   6  26
TORSDOF 6
ENDMDL
MODEL 5
REMARK VINA RESULT:      -7.3      3.089      6.597
REMARK  Name = 5834
REMARK  6 active torsions:
REMARK  status: ('A' for Active; 'I' for Inactive)
REMARK    1  A    between atoms: C_6  and  O_21
REMARK    2  A    between atoms: C_6  and  C_26
REMARK    3  A    between atoms: C_9  and  O_23
REMARK    4  A    between atoms: C_26  and  C_27
REMARK    5  A    between atoms: C_27  and  O_28
REMARK    6  A    between atoms: O_28  and  C_30
REMARK                            x       y       z     vdW  Elec       q    Type
REMARK                         _______ _______ _______ _____ _____    ______ ____
ROOT
ATOM      1  O   UNL     1      33.669 -18.244 -21.352  0.00  0.00    -0.287 OA
ATOM      2  C   UNL     1      35.407 -23.654 -15.404  0.00  0.00    +0.031 C 
ATOM      3  C   UNL     1      36.357 -22.660 -16.106  0.00  0.00    +0.003 C 
ATOM      4  C   UNL     1      36.157 -22.585 -17.626  0.00  0.00    +0.003 C 
ATOM      5  C   UNL     1      34.686 -22.121 -17.919  0.00  0.00    +0.034 C 
ATOM      6  C   UNL     1      35.924 -23.516 -13.946  0.00  0.00    +0.143 C 
ATOM      7  C   UNL     1      33.964 -23.174 -15.660  0.00  0.00    +0.032 C 
ATOM      8  C   UNL     1      37.732 -23.038 -15.561  0.00  0.00    +0.003 C 
ATOM      9  C   UNL     1      33.639 -22.996 -17.160  0.00  0.00    +0.111 C 
ATOM     10  C   UNL     1      34.423 -21.909 -19.463  0.00  0.00    +0.036 C 
ATOM     11  C   UNL     1      37.462 -23.438 -14.095  0.00  0.00    +0.034 C 
ATOM     12  C   UNL     1      37.179 -21.623 -18.258  0.00  0.00    +0.004 C 
ATOM     13  C   UNL     1      35.591 -25.122 -15.883  0.00  0.00    +0.003 C 
ATOM     14  C   UNL     1      36.938 -21.417 -19.748  0.00  0.00    +0.022 C 
ATOM     15  C   UNL     1      35.517 -20.972 -19.988  0.00  0.00    -0.038 C 
ATOM     16  C   UNL     1      34.465 -23.212 -20.294  0.00  0.00    +0.009 C 
ATOM     17  C   UNL     1      33.039 -21.312 -19.678  0.00  0.00    -0.020 C 
ATOM     18  C   UNL     1      35.270 -19.799 -20.590  0.00  0.00    +0.034 C 
ATOM     19  C   UNL     1      32.787 -20.143 -20.275  0.00  0.00    +0.038 C 
ATOM     20  C   UNL     1      33.889 -19.310 -20.786  0.00  0.00    +0.195 C 
ENDROOT
BRANCH   6  21
ATOM     21  O   UNL     1      35.448 -22.318 -13.340  0.00  0.00    -0.380 OA
ATOM     22  H   UNL     1      35.484 -22.408 -12.374  0.00  0.00    +0.211 HD
ENDBRANCH   6  21
BRANCH   9  23
ATOM     23  O   UNL     1      33.491 -24.271 -17.770  0.00  0.00    -0.384 OA
ATOM     24  H   UNL     1      33.445 -24.955 -17.083  0.00  0.00    +0.210 HD
ENDBRANCH   9  23
BRANCH   6  26
ATOM     25  O   UNL     1      36.186 -25.587 -12.799  0.00  0.00    -0.290 OA
ATOM     26  C   UNL     1      35.478 -24.605 -13.018  0.00  0.00    +0.218 C 
BRANCH  26  27
ATOM     27  C   UNL     1      34.120 -24.425 -12.376  0.00  0.00    +0.274 C 
BRANCH  27  28
ATOM     28  O   UNL     1      33.118 -25.063 -13.140  0.00  0.00    -0.440 OA
BRANCH  28  30
ATOM     29  O   UNL     1      31.722 -23.238 -12.884  0.00  0.00    -0.250 OA
ATOM     30  C   UNL     1      31.958 -24.355 -13.327  0.00  0.00    +0.318 C 
ATOM     31  C   UNL     1      30.997 -25.146 -14.163  0.00  0.00    +0.121 C 
ENDBRANCH  28  30
ENDBRANCH  27  28
ENDBRANCH  26  27
ENDBRANCH   6  26
TORSDOF 6
ENDMDL
MODEL 6
REMARK VINA RESULT:      -7.2      1.667      8.119
REMARK  Name = 5834
REMARK  6 active torsions:
REMARK  status: ('A' for Active; 'I' for Inactive)
REMARK    1  A    between atoms: C_6  and  O_21
REMARK    2  A    between atoms: C_6  and  C_26
REMARK    3  A    between atoms: C_9  and  O_23
REMARK    4  A    between atoms: C_26  and  C_27
REMARK    5  A    between atoms: C_27  and  O_28
REMARK    6  A    between atoms: O_28  and  C_30
REMARK                            x       y       z     vdW  Elec       q    Type
REMARK                         _______ _______ _______ _____ _____    ______ ____
ROOT
ATOM      1  O   UNL     1      27.807 -21.626 -15.636  0.00  0.00    -0.287 OA
ATOM      2  C   UNL     1      35.398 -24.244 -13.850  0.00  0.00    +0.031 C 
ATOM      3  C   UNL     1      34.961 -23.235 -14.934  0.00  0.00    +0.003 C 
ATOM      4  C   UNL     1      33.703 -23.664 -15.703  0.00  0.00    +0.003 C 
ATOM      5  C   UNL     1      32.515 -23.812 -14.686  0.00  0.00    +0.034 C 
ATOM      6  C   UNL     1      36.686 -23.536 -13.348  0.00  0.00    +0.143 C 
ATOM      7  C   UNL     1      34.246 -24.358 -12.831  0.00  0.00    +0.032 C 
ATOM      8  C   UNL     1      36.247 -22.969 -15.712  0.00  0.00    +0.003 C 
ATOM      9  C   UNL     1      32.895 -24.730 -13.481  0.00  0.00    +0.111 C 
ATOM     10  C   UNL     1      31.150 -24.145 -15.409  0.00  0.00    +0.036 C 
ATOM     11  C   UNL     1      37.353 -23.003 -14.637  0.00  0.00    +0.034 C 
ATOM     12  C   UNL     1      33.368 -22.640 -16.802  0.00  0.00    +0.004 C 
ATOM     13  C   UNL     1      35.764 -25.641 -14.425  0.00  0.00    +0.003 C 
ATOM     14  C   UNL     1      32.056 -22.956 -17.509  0.00  0.00    +0.022 C 
ATOM     15  C   UNL     1      30.942 -23.090 -16.501  0.00  0.00    -0.038 C 
ATOM     16  C   UNL     1      31.112 -25.540 -16.072  0.00  0.00    +0.009 C 
ATOM     17  C   UNL     1      30.009 -24.123 -14.401  0.00  0.00    -0.020 C 
ATOM     18  C   UNL     1      29.871 -22.285 -16.568  0.00  0.00    +0.034 C 
ATOM     19  C   UNL     1      28.941 -23.322 -14.460  0.00  0.00    +0.038 C 
ATOM     20  C   UNL     1      28.792 -22.354 -15.561  0.00  0.00    +0.195 C 
ENDROOT
BRANCH   6  21
ATOM     21  O   UNL     1      36.375 -22.441 -12.491  0.00  0.00    -0.380 OA
ATOM     22  H   UNL     1      35.446 -22.501 -12.216  0.00  0.00    +0.211 HD
ENDBRANCH   6  21
BRANCH   9  23
ATOM     23  O   UNL     1      32.908 -26.100 -13.858  0.00  0.00    -0.384 OA
ATOM     24  H   UNL     1      32.745 -26.174 -14.812  0.00  0.00    +0.210 HD
ENDBRANCH   9  23
BRANCH   6  26
ATOM     25  O   UNL     1      37.202 -24.955 -11.505  0.00  0.00    -0.290 OA
ATOM     26  C   UNL     1      37.597 -24.401 -12.530  0.00  0.00    +0.218 C 
BRANCH  26  27
ATOM     27  C   UNL     1      39.015 -24.549 -13.036  0.00  0.00    +0.274 C 
BRANCH  27  28
ATOM     28  O   UNL     1      39.299 -25.899 -13.339  0.00  0.00    -0.440 OA
BRANCH  28  30
ATOM     29  O   UNL     1      41.275 -26.883 -14.023  0.00  0.00    -0.250 OA
ATOM     30  C   UNL     1      40.338 -26.118 -14.208  0.00  0.00    +0.318 C 
ATOM     31  C   UNL     1      40.171 -25.277 -15.438  0.00  0.00    +0.121 C 
ENDBRANCH  28  30
ENDBRANCH  27  28
ENDBRANCH  26  27
ENDBRANCH   6  26
TORSDOF 6
ENDMDL
