MODEL 1
REMARK VINA RESULT:      -7.7      0.000      0.000
REMARK  Name = 2823014
REMARK  8 active torsions:
REMARK  status: ('A' for Active; 'I' for Inactive)
REMARK    1  A    between atoms: C_2  and  C_8
REMARK    2  A    between atoms: C_3  and  C_18
REMARK    3  A    between atoms: N_7  and  N_10
REMARK    4  A    between atoms: N_10  and  C_13
REMARK    5  A    between atoms: C_13  and  N_14
REMARK    6  A    between atoms: C_17  and  C_19
REMARK    7  A    between atoms: C_19  and  C_20
REMARK    8  A    between atoms: C_20  and  C_21
REMARK                            x       y       z     vdW  Elec       q    Type
REMARK                         _______ _______ _______ _____ _____    ______ ____
ROOT
ATOM      1  O   UNL     1      34.421 -19.840 -20.683  0.00  0.00    -0.441 OA
ATOM      2  C   UNL     1      34.871 -20.887 -19.943  0.00  0.00    +0.201 C 
ATOM      3  C   UNL     1      35.518 -19.139 -21.041  0.00  0.00    +0.187 C 
ATOM      4  C   UNL     1      36.241 -20.848 -19.835  0.00  0.00    +0.046 C 
ATOM      5  C   UNL     1      36.660 -19.703 -20.555  0.00  0.00    +0.049 C 
ENDROOT
BRANCH   2   8
ATOM      6  O   UNL     1      32.759 -21.963 -19.913  0.00  0.00    -0.265 OA
ATOM      7  N   UNL     1      34.295 -22.587 -18.323  0.00  0.00    -0.229 N 
ATOM      8  C   UNL     1      33.910 -21.802 -19.429  0.00  0.00    +0.296 C 
ATOM      9  H   UNL     1      35.191 -22.473 -17.934  0.00  0.00    +0.173 HD
BRANCH   7  10
ATOM     10  N   UNL     1      33.428 -23.509 -17.783  0.00  0.00    -0.246 N 
ATOM     11  H   UNL     1      33.391 -24.416 -18.164  0.00  0.00    +0.172 HD
BRANCH  10  13
ATOM     12  S   UNL     1      33.152 -23.472 -15.153  0.00  0.00    -0.017 S 
ATOM     13  C   UNL     1      32.608 -23.192 -16.717  0.00  0.00    +0.147 C 
BRANCH  13  14
ATOM     14  N   UNL     1      31.376 -22.659 -17.058  0.00  0.00    -0.314 N 
ATOM     15  C   UNL     1      30.110 -22.927 -16.402  0.00  0.00    +0.110 C 
ATOM     16  H   UNL     1      31.358 -22.036 -17.820  0.00  0.00    +0.149 HD
ENDBRANCH  13  14
ENDBRANCH  10  13
ENDBRANCH   7  10
ENDBRANCH   2   8
BRANCH   3  18
ATOM     17  C   UNL     1      35.123 -16.986 -22.503  0.00  0.00    -0.083 C 
ATOM     18  C   UNL     1      35.301 -17.971 -21.837  0.00  0.00    -0.027 C 
BRANCH  17  19
ATOM     19  C   UNL     1      34.909 -15.780 -23.313  0.00  0.00    +0.076 C 
BRANCH  19  20
ATOM     20  C   UNL     1      34.309 -14.633 -22.499  0.00  0.00    +0.014 C 
BRANCH  20  21
ATOM     21  C   UNL     1      32.889 -14.931 -22.008  0.00  0.00    +0.001 C 
ATOM     22  C   UNL     1      32.775 -14.761 -20.501  0.00  0.00    +0.000 C 
ENDBRANCH  20  21
ENDBRANCH  19  20
ENDBRANCH  17  19
ENDBRANCH   3  18
TORSDOF 8
ENDMDL
MODEL 2
REMARK VINA RESULT:      -7.7      4.232      6.125
REMARK  Name = 2823014
REMARK  8 active torsions:
REMARK  status: ('A' for Active; 'I' for Inactive)
REMARK    1  A    between atoms: C_2  and  C_8
REMARK    2  A    between atoms: C_3  and  C_18
REMARK    3  A    between atoms: N_7  and  N_10
REMARK    4  A    between atoms: N_10  and  C_13
REMARK    5  A    between atoms: C_13  and  N_14
REMARK    6  A    between atoms: C_17  and  C_19
REMARK    7  A    between atoms: C_19  and  C_20
REMARK    8  A    between atoms: C_20  and  C_21
REMARK                            x       y       z     vdW  Elec       q    Type
REMARK                         _______ _______ _______ _____ _____    ______ ____
ROOT
ATOM      1  O   UNL     1      34.472 -14.509 -22.481  0.00  0.00    -0.441 OA
ATOM      2  C   UNL     1      34.560 -15.856 -22.638  0.00  0.00    +0.201 C 
ATOM      3  C   UNL     1      33.975 -14.032 -23.643  0.00  0.00    +0.187 C 
ATOM      4  C   UNL     1      34.123 -16.227 -23.888  0.00  0.00    +0.046 C 
ATOM      5  C   UNL     1      33.741 -15.031 -24.541  0.00  0.00    +0.049 C 
ENDROOT
BRANCH   2   8
ATOM      6  O   UNL     1      35.045 -16.239 -20.350  0.00  0.00    -0.265 OA
ATOM      7  N   UNL     1      35.584 -17.898 -21.845  0.00  0.00    -0.229 N 
ATOM      8  C   UNL     1      35.061 -16.623 -21.549  0.00  0.00    +0.296 C 
ATOM      9  H   UNL     1      35.603 -18.212 -22.777  0.00  0.00    +0.173 HD
BRANCH   7  10
ATOM     10  N   UNL     1      36.068 -18.706 -20.842  0.00  0.00    -0.246 N 
ATOM     11  H   UNL     1      36.865 -18.422 -20.337  0.00  0.00    +0.172 HD
BRANCH  10  13
ATOM     12  S   UNL     1      36.370 -21.112 -19.788  0.00  0.00    -0.017 S 
ATOM     13  C   UNL     1      35.463 -19.907 -20.526  0.00  0.00    +0.147 C 
BRANCH  13  14
ATOM     14  N   UNL     1      34.123 -20.000 -20.863  0.00  0.00    -0.314 N 
ATOM     15  C   UNL     1      33.073 -20.605 -20.066  0.00  0.00    +0.110 C 
ATOM     16  H   UNL     1      33.856 -19.616 -21.730  0.00  0.00    +0.149 HD
ENDBRANCH  13  14
ENDBRANCH  10  13
ENDBRANCH   7  10
ENDBRANCH   2   8
BRANCH   3  18
ATOM     17  C   UNL     1      33.637 -11.427 -23.800  0.00  0.00    -0.083 C 
ATOM     18  C   UNL     1      33.788 -12.617 -23.727  0.00  0.00    -0.027 C 
BRANCH  17  19
ATOM     19  C   UNL     1      33.457  -9.971 -23.890  0.00  0.00    +0.076 C 
BRANCH  19  20
ATOM     20  C   UNL     1      34.773  -9.240 -24.159  0.00  0.00    +0.014 C 
BRANCH  20  21
ATOM     21  C   UNL     1      34.791  -7.817 -23.589  0.00  0.00    +0.001 C 
ATOM     22  C   UNL     1      33.648  -7.598 -22.611  0.00  0.00    +0.000 C 
ENDBRANCH  20  21
ENDBRANCH  19  20
ENDBRANCH  17  19
ENDBRANCH   3  18
TORSDOF 8
ENDMDL
MODEL 3
REMARK VINA RESULT:      -7.6      1.020      1.459
REMARK  Name = 2823014
REMARK  8 active torsions:
REMARK  status: ('A' for Active; 'I' for Inactive)
REMARK    1  A    between atoms: C_2  and  C_8
REMARK    2  A    between atoms: C_3  and  C_18
REMARK    3  A    between atoms: N_7  and  N_10
REMARK    4  A    between atoms: N_10  and  C_13
REMARK    5  A    between atoms: C_13  and  N_14
REMARK    6  A    between atoms: C_17  and  C_19
REMARK    7  A    between atoms: C_19  and  C_20
REMARK    8  A    between atoms: C_20  and  C_21
REMARK                            x       y       z     vdW  Elec       q    Type
REMARK                         _______ _______ _______ _____ _____    ______ ____
ROOT
ATOM      1  O   UNL     1      34.420 -19.828 -20.640  0.00  0.00    -0.441 OA
ATOM      2  C   UNL     1      34.883 -20.886 -19.922  0.00  0.00    +0.201 C 
ATOM      3  C   UNL     1      35.513 -19.133 -21.023  0.00  0.00    +0.187 C 
ATOM      4  C   UNL     1      36.256 -20.859 -19.853  0.00  0.00    +0.046 C 
ATOM      5  C   UNL     1      36.663 -19.712 -20.575  0.00  0.00    +0.049 C 
ENDROOT
BRANCH   2   8
ATOM      6  O   UNL     1      32.777 -21.972 -19.865  0.00  0.00    -0.265 OA
ATOM      7  N   UNL     1      34.323 -22.561 -18.271  0.00  0.00    -0.229 N 
ATOM      8  C   UNL     1      33.929 -21.797 -19.389  0.00  0.00    +0.296 C 
ATOM      9  H   UNL     1      35.220 -22.435 -17.887  0.00  0.00    +0.173 HD
BRANCH   7  10
ATOM     10  N   UNL     1      33.463 -23.478 -17.711  0.00  0.00    -0.246 N 
ATOM     11  H   UNL     1      33.200 -24.272 -18.232  0.00  0.00    +0.172 HD
BRANCH  10  13
ATOM     12  S   UNL     1      31.301 -23.160 -16.222  0.00  0.00    -0.017 S 
ATOM     13  C   UNL     1      32.960 -23.313 -16.435  0.00  0.00    +0.147 C 
BRANCH  13  14
ATOM     14  N   UNL     1      33.908 -23.287 -15.426  0.00  0.00    -0.314 N 
ATOM     15  C   UNL     1      34.816 -24.359 -15.068  0.00  0.00    +0.110 C 
ATOM     16  H   UNL     1      33.971 -22.457 -14.898  0.00  0.00    +0.149 HD
ENDBRANCH  13  14
ENDBRANCH  10  13
ENDBRANCH   7  10
ENDBRANCH   2   8
BRANCH   3  18
ATOM     17  C   UNL     1      35.097 -16.968 -22.459  0.00  0.00    -0.083 C 
ATOM     18  C   UNL     1      35.284 -17.957 -21.803  0.00  0.00    -0.027 C 
BRANCH  17  19
ATOM     19  C   UNL     1      34.874 -15.758 -23.263  0.00  0.00    +0.076 C 
BRANCH  19  20
ATOM     20  C   UNL     1      34.365 -14.588 -22.420  0.00  0.00    +0.014 C 
BRANCH  20  21
ATOM     21  C   UNL     1      32.910 -14.767 -21.972  0.00  0.00    +0.001 C 
ATOM     22  C   UNL     1      32.811 -14.933 -20.464  0.00  0.00    +0.000 C 
ENDBRANCH  20  21
ENDBRANCH  19  20
ENDBRANCH  17  19
ENDBRANCH   3  18
TORSDOF 8
ENDMDL
MODEL 4
REMARK VINA RESULT:      -7.5      6.967      9.839
REMARK  Name = 2823014
REMARK  8 active torsions:
REMARK  status: ('A' for Active; 'I' for Inactive)
REMARK    1  A    between atoms: C_2  and  C_8
REMARK    2  A    between atoms: C_3  and  C_18
REMARK    3  A    between atoms: N_7  and  N_10
REMARK    4  A    between atoms: N_10  and  C_13
REMARK    5  A    between atoms: C_13  and  N_14
REMARK    6  A    between atoms: C_17  and  C_19
REMARK    7  A    between atoms: C_19  and  C_20
REMARK    8  A    between atoms: C_20  and  C_21
REMARK                            x       y       z     vdW  Elec       q    Type
REMARK                         _______ _______ _______ _____ _____    ______ ____
ROOT
ATOM      1  O   UNL     1      34.360 -15.629 -22.818  0.00  0.00    -0.441 OA
ATOM      2  C   UNL     1      33.847 -14.940 -23.871  0.00  0.00    +0.201 C 
ATOM      3  C   UNL     1      34.824 -16.791 -23.325  0.00  0.00    +0.187 C 
ATOM      4  C   UNL     1      33.986 -15.661 -25.034  0.00  0.00    +0.046 C 
ATOM      5  C   UNL     1      34.626 -16.870 -24.672  0.00  0.00    +0.049 C 
ENDROOT
BRANCH   2   8
ATOM      6  O   UNL     1      32.136 -13.478 -23.129  0.00  0.00    -0.265 OA
ATOM      7  N   UNL     1      34.075 -12.533 -23.918  0.00  0.00    -0.229 N 
ATOM      8  C   UNL     1      33.281 -13.659 -23.618  0.00  0.00    +0.296 C 
ATOM      9  H   UNL     1      34.973 -12.658 -24.301  0.00  0.00    +0.173 HD
BRANCH   7  10
ATOM     10  N   UNL     1      33.605 -11.261 -23.682  0.00  0.00    -0.246 N 
ATOM     11  H   UNL     1      32.740 -11.145 -23.227  0.00  0.00    +0.172 HD
BRANCH  10  13
ATOM     12  S   UNL     1      33.759  -8.622 -23.631  0.00  0.00    -0.017 S 
ATOM     13  C   UNL     1      34.319 -10.144 -24.068  0.00  0.00    +0.147 C 
BRANCH  13  14
ATOM     14  N   UNL     1      35.464 -10.399 -24.805  0.00  0.00    -0.314 N 
ATOM     15  C   UNL     1      35.606 -10.288 -26.244  0.00  0.00    +0.110 C 
ATOM     16  H   UNL     1      36.261 -10.683 -24.301  0.00  0.00    +0.149 HD
ENDBRANCH  13  14
ENDBRANCH  10  13
ENDBRANCH   7  10
ENDBRANCH   2   8
BRANCH   3  18
ATOM     17  C   UNL     1      35.916 -18.468 -21.616  0.00  0.00    -0.083 C 
ATOM     18  C   UNL     1      35.420 -17.702 -22.398  0.00  0.00    -0.027 C 
BRANCH  17  19
ATOM     19  C   UNL     1      36.516 -19.406 -20.657  0.00  0.00    +0.076 C 
BRANCH  19  20
ATOM     20  C   UNL     1      35.659 -20.655 -20.453  0.00  0.00    +0.014 C 
BRANCH  20  21
ATOM     21  C   UNL     1      34.162 -20.342 -20.365  0.00  0.00    +0.001 C 
ATOM     22  C   UNL     1      33.424 -21.384 -19.540  0.00  0.00    +0.000 C 
ENDBRANCH  20  21
ENDBRANCH  19  20
ENDBRANCH  17  19
ENDBRANCH   3  18
TORSDOF 8
ENDMDL
MODEL 5
REMARK VINA RESULT:      -7.5      4.680      7.158
REMARK  Name = 2823014
REMARK  8 active torsions:
REMARK  status: ('A' for Active; 'I' for Inactive)
REMARK    1  A    between atoms: C_2  and  C_8
REMARK    2  A    between atoms: C_3  and  C_18
REMARK    3  A    between atoms: N_7  and  N_10
REMARK    4  A    between atoms: N_10  and  C_13
REMARK    5  A    between atoms: C_13  and  N_14
REMARK    6  A    between atoms: C_17  and  C_19
REMARK    7  A    between atoms: C_19  and  C_20
REMARK    8  A    between atoms: C_20  and  C_21
REMARK                            x       y       z     vdW  Elec       q    Type
REMARK                         _______ _______ _______ _____ _____    ______ ____
ROOT
ATOM      1  O   UNL     1      34.140 -23.743 -15.387  0.00  0.00    -0.441 OA
ATOM      2  C   UNL     1      33.695 -24.183 -14.181  0.00  0.00    +0.201 C 
ATOM      3  C   UNL     1      33.042 -23.353 -16.068  0.00  0.00    +0.187 C 
ATOM      4  C   UNL     1      32.327 -24.072 -14.101  0.00  0.00    +0.046 C 
ATOM      5  C   UNL     1      31.904 -23.528 -15.338  0.00  0.00    +0.049 C 
ENDROOT
BRANCH   2   8
ATOM      6  O   UNL     1      34.594 -24.466 -12.006  0.00  0.00    -0.265 OA
ATOM      7  N   UNL     1      35.732 -25.416 -13.761  0.00  0.00    -0.229 N 
ATOM      8  C   UNL     1      34.658 -24.660 -13.248  0.00  0.00    +0.296 C 
ATOM      9  H   UNL     1      35.796 -25.576 -14.729  0.00  0.00    +0.173 HD
BRANCH   7  10
ATOM     10  N   UNL     1      36.693 -25.929 -12.919  0.00  0.00    -0.246 N 
ATOM     11  H   UNL     1      36.471 -26.701 -12.350  0.00  0.00    +0.172 HD
BRANCH  10  13
ATOM     12  S   UNL     1      38.196 -23.949 -12.018  0.00  0.00    -0.017 S 
ATOM     13  C   UNL     1      37.961 -25.386 -12.854  0.00  0.00    +0.147 C 
BRANCH  13  14
ATOM     14  N   UNL     1      38.946 -26.106 -13.510  0.00  0.00    -0.314 N 
ATOM     15  C   UNL     1      40.047 -25.558 -14.278  0.00  0.00    +0.110 C 
ATOM     16  H   UNL     1      38.893 -27.088 -13.448  0.00  0.00    +0.149 HD
ENDBRANCH  13  14
ENDBRANCH  10  13
ENDBRANCH   7  10
ENDBRANCH   2   8
BRANCH   3  18
ATOM     17  C   UNL     1      33.429 -22.420 -18.499  0.00  0.00    -0.083 C 
ATOM     18  C   UNL     1      33.253 -22.843 -17.388  0.00  0.00    -0.027 C 
BRANCH  17  19
ATOM     19  C   UNL     1      33.642 -21.907 -19.859  0.00  0.00    +0.076 C 
BRANCH  19  20
ATOM     20  C   UNL     1      33.031 -20.520 -20.058  0.00  0.00    +0.014 C 
BRANCH  20  21
ATOM     21  C   UNL     1      33.887 -19.615 -20.950  0.00  0.00    +0.001 C 
ATOM     22  C   UNL     1      35.367 -19.927 -20.798  0.00  0.00    +0.000 C 
ENDBRANCH  20  21
ENDBRANCH  19  20
ENDBRANCH  17  19
ENDBRANCH   3  18
TORSDOF 8
ENDMDL
MODEL 6
REMARK VINA RESULT:      -7.5      4.438      6.548
REMARK  Name = 2823014
REMARK  8 active torsions:
REMARK  status: ('A' for Active; 'I' for Inactive)
REMARK    1  A    between atoms: C_2  and  C_8
REMARK    2  A    between atoms: C_3  and  C_18
REMARK    3  A    between atoms: N_7  and  N_10
REMARK    4  A    between atoms: N_10  and  C_13
REMARK    5  A    between atoms: C_13  and  N_14
REMARK    6  A    between atoms: C_17  and  C_19
REMARK    7  A    between atoms: C_19  and  C_20
REMARK    8  A    between atoms: C_20  and  C_21
REMARK                            x       y       z     vdW  Elec       q    Type
REMARK                         _______ _______ _______ _____ _____    ______ ____
ROOT
ATOM      1  O   UNL     1      34.608 -23.800 -16.636  0.00  0.00    -0.441 OA
ATOM      2  C   UNL     1      34.422 -24.445 -15.455  0.00  0.00    +0.201 C 
ATOM      3  C   UNL     1      33.453 -23.145 -16.887  0.00  0.00    +0.187 C 
ATOM      4  C   UNL     1      33.161 -24.200 -14.963  0.00  0.00    +0.046 C 
ATOM      5  C   UNL     1      32.532 -23.349 -15.903  0.00  0.00    +0.049 C 
ENDROOT
BRANCH   2   8
ATOM      6  O   UNL     1      36.302 -25.874 -15.666  0.00  0.00    -0.265 OA
ATOM      7  N   UNL     1      35.673 -25.247 -13.547  0.00  0.00    -0.229 N 
ATOM      8  C   UNL     1      35.497 -25.226 -14.946  0.00  0.00    +0.296 C 
ATOM      9  H   UNL     1      35.053 -24.746 -12.971  0.00  0.00    +0.173 HD
BRANCH   7  10
ATOM     10  N   UNL     1      36.703 -25.962 -12.981  0.00  0.00    -0.246 N 
ATOM     11  H   UNL     1      36.519 -26.851 -12.598  0.00  0.00    +0.172 HD
BRANCH  10  13
ATOM     12  S   UNL     1      38.307 -24.092 -12.021  0.00  0.00    -0.017 S 
ATOM     13  C   UNL     1      37.991 -25.464 -12.937  0.00  0.00    +0.147 C 
BRANCH  13  14
ATOM     14  N   UNL     1      38.923 -26.168 -13.681  0.00  0.00    -0.314 N 
ATOM     15  C   UNL     1      40.193 -25.667 -14.170  0.00  0.00    +0.110 C 
ATOM     16  H   UNL     1      38.701 -27.103 -13.900  0.00  0.00    +0.149 HD
ENDBRANCH  13  14
ENDBRANCH  10  13
ENDBRANCH   7  10
ENDBRANCH   2   8
BRANCH   3  18
ATOM     17  C   UNL     1      33.348 -21.737 -19.108  0.00  0.00    -0.083 C 
ATOM     18  C   UNL     1      33.399 -22.379 -18.094  0.00  0.00    -0.027 C 
BRANCH  17  19
ATOM     19  C   UNL     1      33.279 -20.952 -20.348  0.00  0.00    +0.076 C 
BRANCH  19  20
ATOM     20  C   UNL     1      34.546 -20.129 -20.584  0.00  0.00    +0.014 C 
BRANCH  20  21
ATOM     21  C   UNL     1      34.295 -18.881 -21.436  0.00  0.00    +0.001 C 
ATOM     22  C   UNL     1      35.548 -18.027 -21.552  0.00  0.00    +0.000 C 
ENDBRANCH  20  21
ENDBRANCH  19  20
ENDBRANCH  17  19
ENDBRANCH   3  18
TORSDOF 8
ENDMDL
MODEL 7
REMARK VINA RESULT:      -7.4      1.627      2.042
REMARK  Name = 2823014
REMARK  8 active torsions:
REMARK  status: ('A' for Active; 'I' for Inactive)
REMARK    1  A    between atoms: C_2  and  C_8
REMARK    2  A    between atoms: C_3  and  C_18
REMARK    3  A    between atoms: N_7  and  N_10
REMARK    4  A    between atoms: N_10  and  C_13
REMARK    5  A    between atoms: C_13  and  N_14
REMARK    6  A    between atoms: C_17  and  C_19
REMARK    7  A    between atoms: C_19  and  C_20
REMARK    8  A    between atoms: C_20  and  C_21
REMARK                            x       y       z     vdW  Elec       q    Type
REMARK                         _______ _______ _______ _____ _____    ______ ____
ROOT
ATOM      1  O   UNL     1      34.310 -20.911 -20.243  0.00  0.00    -0.441 OA
ATOM      2  C   UNL     1      34.748 -21.867 -19.382  0.00  0.00    +0.201 C 
ATOM      3  C   UNL     1      35.383 -20.136 -20.513  0.00  0.00    +0.187 C 
ATOM      4  C   UNL     1      36.085 -21.698 -19.111  0.00  0.00    +0.046 C 
ATOM      5  C   UNL     1      36.496 -20.565 -19.853  0.00  0.00    +0.049 C 
ENDROOT
BRANCH   2   8
ATOM      6  O   UNL     1      33.870 -24.061 -19.198  0.00  0.00    -0.265 OA
ATOM      7  N   UNL     1      32.763 -22.375 -18.098  0.00  0.00    -0.229 N 
ATOM      8  C   UNL     1      33.808 -22.834 -18.925  0.00  0.00    +0.296 C 
ATOM      9  H   UNL     1      32.702 -21.419 -17.876  0.00  0.00    +0.173 HD
BRANCH   7  10
ATOM     10  N   UNL     1      31.827 -23.253 -17.600  0.00  0.00    -0.246 N 
ATOM     11  H   UNL     1      31.727 -24.139 -18.019  0.00  0.00    +0.172 HD
BRANCH  10  13
ATOM     12  S   UNL     1      31.665 -22.991 -14.974  0.00  0.00    -0.017 S 
ATOM     13  C   UNL     1      31.025 -22.922 -16.525  0.00  0.00    +0.147 C 
BRANCH  13  14
ATOM     14  N   UNL     1      29.729 -22.556 -16.846  0.00  0.00    -0.314 N 
ATOM     15  C   UNL     1      28.521 -23.290 -16.521  0.00  0.00    +0.110 C 
ATOM     16  H   UNL     1      29.616 -21.714 -17.344  0.00  0.00    +0.149 HD
ENDBRANCH  13  14
ENDBRANCH  10  13
ENDBRANCH   7  10
ENDBRANCH   2   8
BRANCH   3  18
ATOM     17  C   UNL     1      34.995 -18.119 -22.159  0.00  0.00    -0.083 C 
ATOM     18  C   UNL     1      35.173 -19.042 -21.410  0.00  0.00    -0.027 C 
BRANCH  17  19
ATOM     19  C   UNL     1      34.776 -16.988 -23.071  0.00  0.00    +0.076 C 
BRANCH  19  20
ATOM     20  C   UNL     1      34.645 -17.435 -24.527  0.00  0.00    +0.014 C 
BRANCH  20  21
ATOM     21  C   UNL     1      34.137 -16.320 -25.448  0.00  0.00    +0.001 C 
ATOM     22  C   UNL     1      33.558 -15.162 -24.650  0.00  0.00    +0.000 C 
ENDBRANCH  20  21
ENDBRANCH  19  20
ENDBRANCH  17  19
ENDBRANCH   3  18
TORSDOF 8
ENDMDL
MODEL 8
REMARK VINA RESULT:      -7.4      6.092      9.042
REMARK  Name = 2823014
REMARK  8 active torsions:
REMARK  status: ('A' for Active; 'I' for Inactive)
REMARK    1  A    between atoms: C_2  and  C_8
REMARK    2  A    between atoms: C_3  and  C_18
REMARK    3  A    between atoms: N_7  and  N_10
REMARK    4  A    between atoms: N_10  and  C_13
REMARK    5  A    between atoms: C_13  and  N_14
REMARK    6  A    between atoms: C_17  and  C_19
REMARK    7  A    between atoms: C_19  and  C_20
REMARK    8  A    between atoms: C_20  and  C_21
REMARK                            x       y       z     vdW  Elec       q    Type
REMARK                         _______ _______ _______ _____ _____    ______ ____
ROOT
ATOM      1  O   UNL     1      34.200 -17.368 -21.585  0.00  0.00    -0.441 OA
ATOM      2  C   UNL     1      34.580 -16.588 -22.632  0.00  0.00    +0.201 C 
ATOM      3  C   UNL     1      34.395 -18.644 -21.984  0.00  0.00    +0.187 C 
ATOM      4  C   UNL     1      35.011 -17.364 -23.682  0.00  0.00    +0.046 C 
ATOM      5  C   UNL     1      34.888 -18.707 -23.253  0.00  0.00    +0.049 C 
ENDROOT
BRANCH   2   8
ATOM      6  O   UNL     1      34.652 -14.567 -21.395  0.00  0.00    -0.265 OA
ATOM      7  N   UNL     1      34.183 -14.426 -23.639  0.00  0.00    -0.229 N 
ATOM      8  C   UNL     1      34.477 -15.176 -22.482  0.00  0.00    +0.296 C 
ATOM      9  H   UNL     1      34.043 -14.887 -24.496  0.00  0.00    +0.173 HD
BRANCH   7  10
ATOM     10  N   UNL     1      34.088 -13.054 -23.578  0.00  0.00    -0.246 N 
ATOM     11  H   UNL     1      34.221 -12.600 -22.715  0.00  0.00    +0.172 HD
BRANCH  10  13
ATOM     12  S   UNL     1      33.389 -13.077 -26.128  0.00  0.00    -0.017 S 
ATOM     13  C   UNL     1      33.811 -12.299 -24.701  0.00  0.00    +0.147 C 
BRANCH  13  14
ATOM     14  N   UNL     1      33.914 -10.928 -24.532  0.00  0.00    -0.314 N 
ATOM     15  C   UNL     1      33.143 -10.112 -23.614  0.00  0.00    +0.110 C 
ATOM     16  H   UNL     1      34.578 -10.461 -25.090  0.00  0.00    +0.149 HD
ENDBRANCH  13  14
ENDBRANCH  10  13
ENDBRANCH   7  10
ENDBRANCH   2   8
BRANCH   3  18
ATOM     17  C   UNL     1      33.779 -20.530 -20.255  0.00  0.00    -0.083 C 
ATOM     18  C   UNL     1      34.063 -19.667 -21.042  0.00  0.00    -0.027 C 
BRANCH  17  19
ATOM     19  C   UNL     1      33.430 -21.586 -19.296  0.00  0.00    +0.076 C 
BRANCH  19  20
ATOM     20  C   UNL     1      34.639 -22.439 -18.907  0.00  0.00    +0.014 C 
BRANCH  20  21
ATOM     21  C   UNL     1      35.948 -21.643 -18.888  0.00  0.00    +0.001 C 
ATOM     22  C   UNL     1      36.692 -21.831 -17.575  0.00  0.00    +0.000 C 
ENDBRANCH  20  21
ENDBRANCH  19  20
ENDBRANCH  17  19
ENDBRANCH   3  18
TORSDOF 8
ENDMDL
MODEL 9
REMARK VINA RESULT:      -7.4      3.764      4.936
REMARK  Name = 2823014
REMARK  8 active torsions:
REMARK  status: ('A' for Active; 'I' for Inactive)
REMARK    1  A    between atoms: C_2  and  C_8
REMARK    2  A    between atoms: C_3  and  C_18
REMARK    3  A    between atoms: N_7  and  N_10
REMARK    4  A    between atoms: N_10  and  C_13
REMARK    5  A    between atoms: C_13  and  N_14
REMARK    6  A    between atoms: C_17  and  C_19
REMARK    7  A    between atoms: C_19  and  C_20
REMARK    8  A    between atoms: C_20  and  C_21
REMARK                            x       y       z     vdW  Elec       q    Type
REMARK                         _______ _______ _______ _____ _____    ______ ____
ROOT
ATOM      1  O   UNL     1      35.807 -21.164 -18.692  0.00  0.00    -0.441 OA
ATOM      2  C   UNL     1      35.557 -22.125 -17.764  0.00  0.00    +0.201 C 
ATOM      3  C   UNL     1      34.769 -21.201 -19.555  0.00  0.00    +0.187 C 
ATOM      4  C   UNL     1      34.371 -22.763 -18.038  0.00  0.00    +0.046 C 
ATOM      5  C   UNL     1      33.859 -22.155 -19.210  0.00  0.00    +0.049 C 
ENDROOT
BRANCH   2   8
ATOM      6  O   UNL     1      37.534 -21.595 -16.569  0.00  0.00    -0.265 OA
ATOM      7  N   UNL     1      36.254 -23.337 -15.792  0.00  0.00    -0.229 N 
ATOM      8  C   UNL     1      36.507 -22.306 -16.720  0.00  0.00    +0.296 C 
ATOM      9  H   UNL     1      35.456 -23.901 -15.896  0.00  0.00    +0.173 HD
BRANCH   7  10
ATOM     10  N   UNL     1      37.116 -23.560 -14.742  0.00  0.00    -0.246 N 
ATOM     11  H   UNL     1      37.234 -22.861 -14.059  0.00  0.00    +0.172 HD
BRANCH  10  13
ATOM     12  S   UNL     1      37.223 -25.953 -13.622  0.00  0.00    -0.017 S 
ATOM     13  C   UNL     1      37.819 -24.744 -14.623  0.00  0.00    +0.147 C 
BRANCH  13  14
ATOM     14  N   UNL     1      38.985 -24.815 -15.367  0.00  0.00    -0.314 N 
ATOM     15  C   UNL     1      40.246 -25.390 -14.939  0.00  0.00    +0.110 C 
ATOM     16  H   UNL     1      38.955 -24.438 -16.276  0.00  0.00    +0.149 HD
ENDBRANCH  13  14
ENDBRANCH  10  13
ENDBRANCH   7  10
ENDBRANCH   2   8
BRANCH   3  18
ATOM     17  C   UNL     1      34.836 -19.486 -21.550  0.00  0.00    -0.083 C 
ATOM     18  C   UNL     1      34.802 -20.268 -20.638  0.00  0.00    -0.027 C 
BRANCH  17  19
ATOM     19  C   UNL     1      34.883 -18.529 -22.664  0.00  0.00    +0.076 C 
BRANCH  19  20
ATOM     20  C   UNL     1      34.839 -19.224 -24.026  0.00  0.00    +0.014 C 
BRANCH  20  21
ATOM     21  C   UNL     1      34.299 -18.318 -25.138  0.00  0.00    +0.001 C 
ATOM     22  C   UNL     1      34.812 -16.894 -24.991  0.00  0.00    +0.000 C 
ENDBRANCH  20  21
ENDBRANCH  19  20
ENDBRANCH  17  19
ENDBRANCH   3  18
TORSDOF 8
ENDMDL
