MODEL 1
REMARK VINA RESULT:      -9.8      0.000      0.000
REMARK  Name = 4822
REMARK  0 active torsions:
REMARK  status: ('A' for Active; 'I' for Inactive)
REMARK                            x       y       z     vdW  Elec       q    Type
REMARK                         _______ _______ _______ _____ _____    ______ ____
ROOT
ATOM      1  S   UNL     1      31.746 -11.443 -23.143  0.00  0.00    -0.087 S 
ATOM      2  N   UNL     1      31.313  -5.361 -23.892  0.00  0.00    +0.386 N 
ATOM      3  C   UNL     1      32.966  -7.349 -22.893  0.00  0.00    -0.048 C 
ATOM      4  C   UNL     1      32.313  -6.419 -21.902  0.00  0.00    -0.001 C 
ATOM      5  C   UNL     1      33.453  -6.693 -24.153  0.00  0.00    -0.001 C 
ATOM      6  C   UNL     1      31.850  -5.106 -22.554  0.00  0.00    -0.073 C 
ATOM      7  C   UNL     1      32.347  -5.853 -24.818  0.00  0.00    -0.073 C 
ATOM      8  C   UNL     1      33.056  -8.670 -22.680  0.00  0.00    -0.007 C 
ATOM      9  C   UNL     1      33.716  -9.523 -23.704  0.00  0.00    +0.005 C 
ATOM     10  C   UNL     1      32.379  -9.259 -21.495  0.00  0.00    +0.005 C 
ATOM     11  C   UNL     1      30.637  -4.187 -24.437  0.00  0.00    -0.101 C 
ATOM     12  C   UNL     1      33.198 -10.803 -23.974  0.00  0.00    +0.029 C 
ATOM     13  C   UNL     1      31.766 -10.522 -21.607  0.00  0.00    +0.029 C 
ATOM     14  C   UNL     1      34.875  -9.108 -24.383  0.00  0.00    +0.000 C 
ATOM     15  C   UNL     1      32.372  -8.614 -20.246  0.00  0.00    +0.000 C 
ATOM     16  C   UNL     1      33.814 -11.622 -24.933  0.00  0.00    +0.006 C 
ATOM     17  C   UNL     1      31.128 -11.092 -20.496  0.00  0.00    +0.006 C 
ATOM     18  C   UNL     1      35.484  -9.931 -25.331  0.00  0.00    +0.000 C 
ATOM     19  C   UNL     1      31.740  -9.193 -19.144  0.00  0.00    +0.000 C 
ATOM     20  C   UNL     1      34.951 -11.184 -25.609  0.00  0.00    +0.001 C 
ATOM     21  C   UNL     1      31.115 -10.428 -19.270  0.00  0.00    +0.001 C 
ATOM     22  H   UNL     1      30.618  -6.101 -23.791  0.00  0.00    -0.080 HD
ENDROOT
TORSDOF 0
ENDMDL
MODEL 2
REMARK VINA RESULT:      -9.0     14.302     17.238
REMARK  Name = 4822
REMARK  0 active torsions:
REMARK  status: ('A' for Active; 'I' for Inactive)
REMARK                            x       y       z     vdW  Elec       q    Type
REMARK                         _______ _______ _______ _____ _____    ______ ____
ROOT
ATOM      1  S   UNL     1      33.298 -23.286 -18.514  0.00  0.00    -0.087 S 
ATOM      2  N   UNL     1      37.742 -25.692 -15.021  0.00  0.00    +0.386 N 
ATOM      3  C   UNL     1      36.146 -23.446 -15.324  0.00  0.00    -0.048 C 
ATOM      4  C   UNL     1      37.618 -23.300 -15.610  0.00  0.00    -0.001 C 
ATOM      5  C   UNL     1      35.811 -24.307 -14.139  0.00  0.00    -0.001 C 
ATOM      6  C   UNL     1      38.452 -24.412 -14.953  0.00  0.00    -0.073 C 
ATOM      7  C   UNL     1      36.504 -25.679 -14.224  0.00  0.00    -0.073 C 
ATOM      8  C   UNL     1      35.208 -22.887 -16.103  0.00  0.00    -0.007 C 
ATOM      9  C   UNL     1      33.774 -23.074 -15.755  0.00  0.00    +0.005 C 
ATOM     10  C   UNL     1      35.622 -22.212 -17.362  0.00  0.00    +0.005 C 
ATOM     11  C   UNL     1      38.601 -26.808 -14.638  0.00  0.00    -0.101 C 
ATOM     12  C   UNL     1      32.832 -23.251 -16.786  0.00  0.00    +0.029 C 
ATOM     13  C   UNL     1      34.811 -22.327 -18.506  0.00  0.00    +0.029 C 
ATOM     14  C   UNL     1      33.320 -23.033 -14.426  0.00  0.00    +0.000 C 
ATOM     15  C   UNL     1      36.781 -21.419 -17.432  0.00  0.00    +0.000 C 
ATOM     16  C   UNL     1      31.475 -23.423 -16.473  0.00  0.00    +0.006 C 
ATOM     17  C   UNL     1      35.186 -21.692 -19.698  0.00  0.00    +0.006 C 
ATOM     18  C   UNL     1      31.967 -23.199 -14.125  0.00  0.00    +0.000 C 
ATOM     19  C   UNL     1      37.143 -20.784 -18.622  0.00  0.00    +0.000 C 
ATOM     20  C   UNL     1      31.047 -23.399 -15.147  0.00  0.00    +0.001 C 
ATOM     21  C   UNL     1      36.349 -20.924 -19.755  0.00  0.00    +0.001 C 
ATOM     22  H   UNL     1      37.475 -25.825 -15.996  0.00  0.00    -0.080 HD
ENDROOT
TORSDOF 0
ENDMDL
MODEL 3
REMARK VINA RESULT:      -8.7      3.975      6.632
REMARK  Name = 4822
REMARK  0 active torsions:
REMARK  status: ('A' for Active; 'I' for Inactive)
REMARK                            x       y       z     vdW  Elec       q    Type
REMARK                         _______ _______ _______ _____ _____    ______ ____
ROOT
ATOM      1  S   UNL     1      34.176 -10.507 -24.053  0.00  0.00    -0.087 S 
ATOM      2  N   UNL     1      34.594 -16.024 -21.384  0.00  0.00    +0.386 N 
ATOM      3  C   UNL     1      32.921 -14.439 -22.923  0.00  0.00    -0.048 C 
ATOM      4  C   UNL     1      32.501 -14.726 -21.504  0.00  0.00    -0.001 C 
ATOM      5  C   UNL     1      33.540 -15.599 -23.649  0.00  0.00    -0.001 C 
ATOM      6  C   UNL     1      33.203 -15.967 -20.929  0.00  0.00    -0.073 C 
ATOM      7  C   UNL     1      34.691 -16.223 -22.840  0.00  0.00    -0.073 C 
ATOM      8  C   UNL     1      32.794 -13.223 -23.473  0.00  0.00    -0.007 C 
ATOM      9  C   UNL     1      33.229 -13.017 -24.880  0.00  0.00    +0.005 C 
ATOM     10  C   UNL     1      32.348 -12.087 -22.623  0.00  0.00    +0.005 C 
ATOM     11  C   UNL     1      35.357 -17.040 -20.664  0.00  0.00    -0.101 C 
ATOM     12  C   UNL     1      33.856 -11.809 -25.239  0.00  0.00    +0.029 C 
ATOM     13  C   UNL     1      32.912 -10.813 -22.822  0.00  0.00    +0.029 C 
ATOM     14  C   UNL     1      32.992 -13.977 -25.880  0.00  0.00    +0.000 C 
ATOM     15  C   UNL     1      31.342 -12.236 -21.652  0.00  0.00    +0.000 C 
ATOM     16  C   UNL     1      34.267 -11.599 -26.565  0.00  0.00    +0.006 C 
ATOM     17  C   UNL     1      32.498  -9.732 -22.030  0.00  0.00    +0.006 C 
ATOM     18  C   UNL     1      33.399 -13.756 -27.197  0.00  0.00    +0.000 C 
ATOM     19  C   UNL     1      30.931 -11.153 -20.874  0.00  0.00    +0.000 C 
ATOM     20  C   UNL     1      34.040 -12.571 -27.537  0.00  0.00    +0.001 C 
ATOM     21  C   UNL     1      31.511  -9.903 -21.060  0.00  0.00    +0.001 C 
ATOM     22  H   UNL     1      35.007 -15.117 -21.173  0.00  0.00    -0.080 HD
ENDROOT
TORSDOF 0
ENDMDL
MODEL 4
REMARK VINA RESULT:      -8.7      3.250      5.838
REMARK  Name = 4822
REMARK  0 active torsions:
REMARK  status: ('A' for Active; 'I' for Inactive)
REMARK                            x       y       z     vdW  Elec       q    Type
REMARK                         _______ _______ _______ _____ _____    ______ ____
ROOT
ATOM      1  S   UNL     1      35.107  -9.362 -24.200  0.00  0.00    -0.087 S 
ATOM      2  N   UNL     1      34.101 -14.673 -21.281  0.00  0.00    +0.386 N 
ATOM      3  C   UNL     1      33.022 -12.954 -23.169  0.00  0.00    -0.048 C 
ATOM      4  C   UNL     1      32.314 -13.070 -21.844  0.00  0.00    -0.001 C 
ATOM      5  C   UNL     1      33.555 -14.246 -23.719  0.00  0.00    -0.001 C 
ATOM      6  C   UNL     1      32.681 -14.363 -21.098  0.00  0.00    -0.073 C 
ATOM      7  C   UNL     1      34.421 -14.987 -22.684  0.00  0.00    -0.073 C 
ATOM      8  C   UNL     1      33.203 -11.775 -23.782  0.00  0.00    -0.007 C 
ATOM      9  C   UNL     1      33.911 -11.742 -25.090  0.00  0.00    +0.005 C 
ATOM     10  C   UNL     1      32.812 -10.526 -23.077  0.00  0.00    +0.005 C 
ATOM     11  C   UNL     1      34.541 -15.743 -20.391  0.00  0.00    -0.101 C 
ATOM     12  C   UNL     1      34.787 -10.677 -25.373  0.00  0.00    +0.029 C 
ATOM     13  C   UNL     1      33.610  -9.375 -23.217  0.00  0.00    +0.029 C 
ATOM     14  C   UNL     1      33.697 -12.720 -26.076  0.00  0.00    +0.000 C 
ATOM     15  C   UNL     1      31.638 -10.444 -22.307  0.00  0.00    +0.000 C 
ATOM     16  C   UNL     1      35.457 -10.629 -26.605  0.00  0.00    +0.006 C 
ATOM     17  C   UNL     1      33.250  -8.188 -22.562  0.00  0.00    +0.006 C 
ATOM     18  C   UNL     1      34.364 -12.660 -27.301  0.00  0.00    +0.000 C 
ATOM     19  C   UNL     1      31.285  -9.256 -21.664  0.00  0.00    +0.000 C 
ATOM     20  C   UNL     1      35.246 -11.619 -27.563  0.00  0.00    +0.001 C 
ATOM     21  C   UNL     1      32.092  -8.132 -21.787  0.00  0.00    +0.001 C 
ATOM     22  H   UNL     1      34.618 -13.829 -21.033  0.00  0.00    -0.080 HD
ENDROOT
TORSDOF 0
ENDMDL
MODEL 5
REMARK VINA RESULT:      -8.5     14.137     16.877
REMARK  Name = 4822
REMARK  0 active torsions:
REMARK  status: ('A' for Active; 'I' for Inactive)
REMARK                            x       y       z     vdW  Elec       q    Type
REMARK                         _______ _______ _______ _____ _____    ______ ____
ROOT
ATOM      1  S   UNL     1      37.313 -21.844 -16.233  0.00  0.00    -0.087 S 
ATOM      2  N   UNL     1      31.422 -22.562 -14.647  0.00  0.00    +0.386 N 
ATOM      3  C   UNL     1      33.486 -23.751 -16.065  0.00  0.00    -0.048 C 
ATOM      4  C   UNL     1      32.325 -23.198 -16.851  0.00  0.00    -0.001 C 
ATOM      5  C   UNL     1      33.113 -24.445 -14.786  0.00  0.00    -0.001 C 
ATOM      6  C   UNL     1      31.064 -23.029 -15.988  0.00  0.00    -0.073 C 
ATOM      7  C   UNL     1      32.210 -23.562 -13.906  0.00  0.00    -0.073 C 
ATOM      8  C   UNL     1      34.757 -23.587 -16.458  0.00  0.00    -0.007 C 
ATOM      9  C   UNL     1      35.850 -24.163 -15.629  0.00  0.00    +0.005 C 
ATOM     10  C   UNL     1      35.045 -22.725 -17.635  0.00  0.00    +0.005 C 
ATOM     11  C   UNL     1      30.246 -22.152 -13.885  0.00  0.00    -0.101 C 
ATOM     12  C   UNL     1      37.053 -23.447 -15.480  0.00  0.00    +0.029 C 
ATOM     13  C   UNL     1      36.191 -21.907 -17.628  0.00  0.00    +0.029 C 
ATOM     14  C   UNL     1      35.737 -25.427 -15.025  0.00  0.00    +0.000 C 
ATOM     15  C   UNL     1      34.230 -22.735 -18.780  0.00  0.00    +0.000 C 
ATOM     16  C   UNL     1      38.094 -23.981 -14.705  0.00  0.00    +0.006 C 
ATOM     17  C   UNL     1      36.477 -21.092 -18.733  0.00  0.00    +0.006 C 
ATOM     18  C   UNL     1      36.781 -25.952 -14.261  0.00  0.00    +0.000 C 
ATOM     19  C   UNL     1      34.527 -21.925 -19.878  0.00  0.00    +0.000 C 
ATOM     20  C   UNL     1      37.956 -25.228 -14.098  0.00  0.00    +0.001 C 
ATOM     21  C   UNL     1      35.647 -21.102 -19.852  0.00  0.00    +0.001 C 
ATOM     22  H   UNL     1      32.013 -21.741 -14.772  0.00  0.00    -0.080 HD
ENDROOT
TORSDOF 0
ENDMDL
MODEL 6
REMARK VINA RESULT:      -8.4      2.618      6.492
REMARK  Name = 4822
REMARK  0 active torsions:
REMARK  status: ('A' for Active; 'I' for Inactive)
REMARK                            x       y       z     vdW  Elec       q    Type
REMARK                         _______ _______ _______ _____ _____    ______ ____
ROOT
ATOM      1  S   UNL     1      31.072  -5.256 -24.861  0.00  0.00    -0.087 S 
ATOM      2  N   UNL     1      33.659 -10.827 -24.799  0.00  0.00    +0.386 N 
ATOM      3  C   UNL     1      33.996  -8.228 -23.898  0.00  0.00    -0.048 C 
ATOM      4  C   UNL     1      34.947  -8.730 -24.954  0.00  0.00    -0.001 C 
ATOM      5  C   UNL     1      33.644  -9.228 -22.834  0.00  0.00    -0.001 C 
ATOM      6  C   UNL     1      34.995 -10.266 -25.011  0.00  0.00    -0.073 C 
ATOM      7  C   UNL     1      33.154 -10.553 -23.443  0.00  0.00    -0.073 C 
ATOM      8  C   UNL     1      33.469  -6.996 -23.940  0.00  0.00    -0.007 C 
ATOM      9  C   UNL     1      32.539  -6.571 -22.860  0.00  0.00    +0.005 C 
ATOM     10  C   UNL     1      33.724  -6.140 -25.129  0.00  0.00    +0.005 C 
ATOM     11  C   UNL     1      33.619 -12.256 -25.095  0.00  0.00    -0.101 C 
ATOM     12  C   UNL     1      31.428  -5.769 -23.183  0.00  0.00    +0.029 C 
ATOM     13  C   UNL     1      32.696  -5.307 -25.613  0.00  0.00    +0.029 C 
ATOM     14  C   UNL     1      32.759  -6.908 -21.513  0.00  0.00    +0.000 C 
ATOM     15  C   UNL     1      34.978  -6.102 -25.762  0.00  0.00    +0.000 C 
ATOM     16  C   UNL     1      30.544  -5.356 -22.173  0.00  0.00    +0.006 C 
ATOM     17  C   UNL     1      32.924  -4.492 -26.731  0.00  0.00    +0.006 C 
ATOM     18  C   UNL     1      31.878  -6.487 -20.515  0.00  0.00    +0.000 C 
ATOM     19  C   UNL     1      35.197  -5.281 -26.870  0.00  0.00    +0.000 C 
ATOM     20  C   UNL     1      30.770  -5.716 -20.846  0.00  0.00    +0.001 C 
ATOM     21  C   UNL     1      34.170  -4.481 -27.356  0.00  0.00    +0.001 C 
ATOM     22  H   UNL     1      33.038 -10.356 -25.456  0.00  0.00    -0.080 HD
ENDROOT
TORSDOF 0
ENDMDL
MODEL 7
REMARK VINA RESULT:      -7.6      3.724      6.635
REMARK  Name = 4822
REMARK  0 active torsions:
REMARK  status: ('A' for Active; 'I' for Inactive)
REMARK                            x       y       z     vdW  Elec       q    Type
REMARK                         _______ _______ _______ _____ _____    ______ ____
ROOT
ATOM      1  S   UNL     1      34.438 -15.011 -21.331  0.00  0.00    -0.087 S 
ATOM      2  N   UNL     1      35.325 -10.791 -25.705  0.00  0.00    +0.386 N 
ATOM      3  C   UNL     1      33.424 -12.512 -24.653  0.00  0.00    -0.048 C 
ATOM      4  C   UNL     1      33.960 -12.819 -26.028  0.00  0.00    -0.001 C 
ATOM      5  C   UNL     1      33.184 -11.056 -24.376  0.00  0.00    -0.001 C 
ATOM      6  C   UNL     1      34.594 -11.588 -26.694  0.00  0.00    -0.073 C 
ATOM      7  C   UNL     1      34.427 -10.206 -24.695  0.00  0.00    -0.073 C 
ATOM      8  C   UNL     1      33.227 -13.468 -23.733  0.00  0.00    -0.007 C 
ATOM      9  C   UNL     1      32.694 -13.087 -22.398  0.00  0.00    +0.005 C 
ATOM     10  C   UNL     1      33.671 -14.857 -24.027  0.00  0.00    +0.005 C 
ATOM     11  C   UNL     1      36.144  -9.761 -26.338  0.00  0.00    -0.101 C 
ATOM     12  C   UNL     1      33.177 -13.743 -21.250  0.00  0.00    +0.029 C 
ATOM     13  C   UNL     1      34.223 -15.638 -22.994  0.00  0.00    +0.029 C 
ATOM     14  C   UNL     1      31.684 -12.121 -22.249  0.00  0.00    +0.000 C 
ATOM     15  C   UNL     1      33.513 -15.433 -25.299  0.00  0.00    +0.000 C 
ATOM     16  C   UNL     1      32.679 -13.398 -19.984  0.00  0.00    +0.006 C 
ATOM     17  C   UNL     1      34.641 -16.951 -23.256  0.00  0.00    +0.006 C 
ATOM     18  C   UNL     1      31.191 -11.789 -20.986  0.00  0.00    +0.000 C 
ATOM     19  C   UNL     1      33.926 -16.744 -25.548  0.00  0.00    +0.000 C 
ATOM     20  C   UNL     1      31.691 -12.423 -19.855  0.00  0.00    +0.001 C 
ATOM     21  C   UNL     1      34.494 -17.499 -24.529  0.00  0.00    +0.001 C 
ATOM     22  H   UNL     1      35.952 -11.432 -25.220  0.00  0.00    -0.080 HD
ENDROOT
TORSDOF 0
ENDMDL
MODEL 8
REMARK VINA RESULT:      -7.1      2.025      4.774
REMARK  Name = 4822
REMARK  0 active torsions:
REMARK  status: ('A' for Active; 'I' for Inactive)
REMARK                            x       y       z     vdW  Elec       q    Type
REMARK                         _______ _______ _______ _____ _____    ______ ____
ROOT
ATOM      1  S   UNL     1      32.452  -7.464 -19.890  0.00  0.00    -0.087 S 
ATOM      2  N   UNL     1      35.122 -10.020 -24.796  0.00  0.00    +0.386 N 
ATOM      3  C   UNL     1      32.653  -9.404 -23.699  0.00  0.00    -0.048 C 
ATOM      4  C   UNL     1      33.033 -10.860 -23.792  0.00  0.00    -0.001 C 
ATOM      5  C   UNL     1      33.048  -8.568 -24.882  0.00  0.00    -0.001 C 
ATOM      6  C   UNL     1      34.141 -11.107 -24.828  0.00  0.00    -0.073 C 
ATOM      7  C   UNL     1      34.539  -8.737 -25.222  0.00  0.00    -0.073 C 
ATOM      8  C   UNL     1      32.053  -8.891 -22.615  0.00  0.00    -0.007 C 
ATOM      9  C   UNL     1      31.708  -7.444 -22.597  0.00  0.00    +0.005 C 
ATOM     10  C   UNL     1      31.871  -9.749 -21.414  0.00  0.00    +0.005 C 
ATOM     11  C   UNL     1      36.312 -10.342 -25.580  0.00  0.00    -0.101 C 
ATOM     12  C   UNL     1      31.847  -6.717 -21.400  0.00  0.00    +0.029 C 
ATOM     13  C   UNL     1      32.022  -9.185 -20.133  0.00  0.00    +0.029 C 
ATOM     14  C   UNL     1      31.200  -6.787 -23.731  0.00  0.00    +0.000 C 
ATOM     15  C   UNL     1      31.507 -11.103 -21.517  0.00  0.00    +0.000 C 
ATOM     16  C   UNL     1      31.519  -5.352 -21.367  0.00  0.00    +0.006 C 
ATOM     17  C   UNL     1      31.849  -9.981 -18.992  0.00  0.00    +0.006 C 
ATOM     18  C   UNL     1      30.871  -5.431 -23.687  0.00  0.00    +0.000 C 
ATOM     19  C   UNL     1      31.330 -11.886 -20.375  0.00  0.00    +0.000 C 
ATOM     20  C   UNL     1      31.035  -4.714 -22.508  0.00  0.00    +0.001 C 
ATOM     21  C   UNL     1      31.506 -11.327 -19.114  0.00  0.00    +0.001 C 
ATOM     22  H   UNL     1      35.410  -9.916 -23.824  0.00  0.00    -0.080 HD
ENDROOT
TORSDOF 0
ENDMDL
