MODEL 1
REMARK VINA RESULT:      -5.9      0.000      0.000
REMARK  Name = 6575388
REMARK  1 active torsions:
REMARK  status: ('A' for Active; 'I' for Inactive)
REMARK    1  A    between atoms: C_2  and  C_11
REMARK                            x       y       z     vdW  Elec       q    Type
REMARK                         _______ _______ _______ _____ _____    ______ ____
ROOT
ATOM      1  N   UNL     1      29.982 -25.353 -14.206  0.00  0.00    +0.384 N 
ATOM      2  C   UNL     1      29.531 -23.852 -16.093  0.00  0.00    +0.082 C 
ATOM      3  C   UNL     1      28.912 -24.831 -15.110  0.00  0.00    -0.070 C 
ATOM      4  C   UNL     1      30.288 -22.735 -15.382  0.00  0.00    +0.007 C 
ATOM      5  C   UNL     1      31.324 -23.303 -14.415  0.00  0.00    -0.023 C 
ATOM      6  C   UNL     1      30.698 -24.289 -13.440  0.00  0.00    -0.082 C 
ATOM      7  H   UNL     1      30.665 -25.855 -14.774  0.00  0.00    -0.085 HD
ATOM      8  H   UNL     1      29.524 -25.954 -13.521  0.00  0.00    -0.085 HD
ENDROOT
BRANCH   2  11
ATOM      9  O   UNL     1      27.692 -24.014 -17.548  0.00  0.00    -0.246 OA
ATOM     10  O   UNL     1      28.299 -21.964 -16.736  0.00  0.00    -0.246 OA
ATOM     11  C   UNL     1      28.395 -23.216 -16.869  0.00  0.00    +0.362 C 
ENDBRANCH   2  11
TORSDOF 1
ENDMDL
MODEL 2
REMARK VINA RESULT:      -5.7     10.671     11.523
REMARK  Name = 6575388
REMARK  1 active torsions:
REMARK  status: ('A' for Active; 'I' for Inactive)
REMARK    1  A    between atoms: C_2  and  C_11
REMARK                            x       y       z     vdW  Elec       q    Type
REMARK                         _______ _______ _______ _____ _____    ______ ____
ROOT
ATOM      1  N   UNL     1      35.240 -16.668 -24.538  0.00  0.00    +0.384 N 
ATOM      2  C   UNL     1      35.701 -18.048 -22.564  0.00  0.00    +0.082 C 
ATOM      3  C   UNL     1      35.298 -16.664 -23.044  0.00  0.00    -0.070 C 
ATOM      4  C   UNL     1      34.773 -19.130 -23.106  0.00  0.00    +0.007 C 
ATOM      5  C   UNL     1      34.680 -19.060 -24.629  0.00  0.00    -0.023 C 
ATOM      6  C   UNL     1      34.287 -17.669 -25.103  0.00  0.00    -0.082 C 
ATOM      7  H   UNL     1      36.172 -16.875 -24.896  0.00  0.00    -0.085 HD
ATOM      8  H   UNL     1      34.906 -15.747 -24.824  0.00  0.00    -0.085 HD
ENDROOT
BRANCH   2  11
ATOM      9  O   UNL     1      35.794 -19.164 -20.497  0.00  0.00    -0.246 OA
ATOM     10  O   UNL     1      35.272 -16.938 -20.544  0.00  0.00    -0.246 OA
ATOM     11  C   UNL     1      35.577 -18.052 -21.053  0.00  0.00    +0.362 C 
ENDBRANCH   2  11
TORSDOF 1
ENDMDL
MODEL 3
REMARK VINA RESULT:      -5.6      6.545      7.247
REMARK  Name = 6575388
REMARK  1 active torsions:
REMARK  status: ('A' for Active; 'I' for Inactive)
REMARK    1  A    between atoms: C_2  and  C_11
REMARK                            x       y       z     vdW  Elec       q    Type
REMARK                         _______ _______ _______ _____ _____    ______ ____
ROOT
ATOM      1  N   UNL     1      36.048 -20.960 -20.333  0.00  0.00    +0.384 N 
ATOM      2  C   UNL     1      34.038 -22.068 -19.470  0.00  0.00    +0.082 C 
ATOM      3  C   UNL     1      35.486 -21.717 -19.174  0.00  0.00    -0.070 C 
ATOM      4  C   UNL     1      33.212 -20.832 -19.811  0.00  0.00    +0.007 C 
ATOM      5  C   UNL     1      33.852 -20.043 -20.952  0.00  0.00    -0.023 C 
ATOM      6  C   UNL     1      35.305 -19.704 -20.652  0.00  0.00    -0.082 C 
ATOM      7  H   UNL     1      36.023 -21.565 -21.154  0.00  0.00    -0.085 HD
ATOM      8  H   UNL     1      36.996 -20.686 -20.077  0.00  0.00    -0.085 HD
ENDROOT
BRANCH   2  11
ATOM      9  O   UNL     1      34.277 -23.294 -17.478  0.00  0.00    -0.246 OA
ATOM     10  O   UNL     1      32.218 -22.479 -18.050  0.00  0.00    -0.246 OA
ATOM     11  C   UNL     1      33.455 -22.674 -18.208  0.00  0.00    +0.362 C 
ENDBRANCH   2  11
TORSDOF 1
ENDMDL
MODEL 4
REMARK VINA RESULT:      -5.5      1.262      2.092
REMARK  Name = 6575388
REMARK  1 active torsions:
REMARK  status: ('A' for Active; 'I' for Inactive)
REMARK    1  A    between atoms: C_2  and  C_11
REMARK                            x       y       z     vdW  Elec       q    Type
REMARK                         _______ _______ _______ _____ _____    ______ ____
ROOT
ATOM      1  N   UNL     1      31.449 -23.104 -15.316  0.00  0.00    +0.384 N 
ATOM      2  C   UNL     1      29.045 -23.084 -15.800  0.00  0.00    +0.082 C 
ATOM      3  C   UNL     1      30.427 -22.800 -16.364  0.00  0.00    -0.070 C 
ATOM      4  C   UNL     1      28.928 -24.510 -15.272  0.00  0.00    +0.007 C 
ATOM      5  C   UNL     1      30.030 -24.811 -14.257  0.00  0.00    -0.023 C 
ATOM      6  C   UNL     1      31.410 -24.515 -14.826  0.00  0.00    -0.082 C 
ATOM      7  H   UNL     1      31.291 -22.484 -14.523  0.00  0.00    -0.085 HD
ATOM      8  H   UNL     1      32.363 -22.966 -15.746  0.00  0.00    -0.085 HD
ENDROOT
BRANCH   2  11
ATOM      9  O   UNL     1      27.662 -21.756 -17.160  0.00  0.00    -0.246 OA
ATOM     10  O   UNL     1      27.752 -24.013 -17.522  0.00  0.00    -0.246 OA
ATOM     11  C   UNL     1      28.055 -22.934 -16.939  0.00  0.00    +0.362 C 
ENDBRANCH   2  11
TORSDOF 1
ENDMDL
MODEL 5
REMARK VINA RESULT:      -5.5      8.440      9.139
REMARK  Name = 6575388
REMARK  1 active torsions:
REMARK  status: ('A' for Active; 'I' for Inactive)
REMARK    1  A    between atoms: C_2  and  C_11
REMARK                            x       y       z     vdW  Elec       q    Type
REMARK                         _______ _______ _______ _____ _____    ______ ____
ROOT
ATOM      1  N   UNL     1      37.531 -24.857 -15.280  0.00  0.00    +0.384 N 
ATOM      2  C   UNL     1      38.023 -24.691 -12.883  0.00  0.00    +0.082 C 
ATOM      3  C   UNL     1      37.487 -23.947 -14.094  0.00  0.00    -0.070 C 
ATOM      4  C   UNL     1      37.273 -25.996 -12.640  0.00  0.00    +0.007 C 
ATOM      5  C   UNL     1      37.275 -26.871 -13.893  0.00  0.00    -0.023 C 
ATOM      6  C   UNL     1      36.747 -26.116 -15.104  0.00  0.00    -0.082 C 
ATOM      7  H   UNL     1      38.503 -25.106 -15.458  0.00  0.00    -0.085 HD
ATOM      8  H   UNL     1      37.107 -24.351 -16.057  0.00  0.00    -0.085 HD
ENDROOT
BRANCH   2  11
ATOM      9  O   UNL     1      36.969 -24.239 -10.831  0.00  0.00    -0.246 OA
ATOM     10  O   UNL     1      38.475 -22.736 -11.671  0.00  0.00    -0.246 OA
ATOM     11  C   UNL     1      37.799 -23.802 -11.675  0.00  0.00    +0.362 C 
ENDBRANCH   2  11
TORSDOF 1
ENDMDL
MODEL 6
REMARK VINA RESULT:      -5.5      7.732      8.332
REMARK  Name = 6575388
REMARK  1 active torsions:
REMARK  status: ('A' for Active; 'I' for Inactive)
REMARK    1  A    between atoms: C_2  and  C_11
REMARK                            x       y       z     vdW  Elec       q    Type
REMARK                         _______ _______ _______ _____ _____    ______ ____
ROOT
ATOM      1  N   UNL     1      32.703 -21.244 -20.205  0.00  0.00    +0.384 N 
ATOM      2  C   UNL     1      34.506 -19.932 -21.227  0.00  0.00    +0.082 C 
ATOM      3  C   UNL     1      33.082 -19.885 -20.698  0.00  0.00    -0.070 C 
ATOM      4  C   UNL     1      35.482 -20.465 -20.183  0.00  0.00    +0.007 C 
ATOM      5  C   UNL     1      35.027 -21.821 -19.648  0.00  0.00    -0.023 C 
ATOM      6  C   UNL     1      33.598 -21.768 -19.130  0.00  0.00    -0.082 C 
ATOM      7  H   UNL     1      32.733 -21.891 -20.993  0.00  0.00    -0.085 HD
ATOM      8  H   UNL     1      31.770 -21.162 -19.800  0.00  0.00    -0.085 HD
ENDROOT
BRANCH   2  11
ATOM      9  O   UNL     1      34.588 -18.103 -22.701  0.00  0.00    -0.246 OA
ATOM     10  O   UNL     1      35.527 -17.909 -20.625  0.00  0.00    -0.246 OA
ATOM     11  C   UNL     1      34.913 -18.508 -21.551  0.00  0.00    +0.362 C 
ENDBRANCH   2  11
TORSDOF 1
ENDMDL
MODEL 7
REMARK VINA RESULT:      -5.4      8.933      9.904
REMARK  Name = 6575388
REMARK  1 active torsions:
REMARK  status: ('A' for Active; 'I' for Inactive)
REMARK    1  A    between atoms: C_2  and  C_11
REMARK                            x       y       z     vdW  Elec       q    Type
REMARK                         _______ _______ _______ _____ _____    ______ ____
ROOT
ATOM      1  N   UNL     1      36.720 -24.193 -14.623  0.00  0.00    +0.384 N 
ATOM      2  C   UNL     1      38.798 -25.495 -14.592  0.00  0.00    +0.082 C 
ATOM      3  C   UNL     1      38.139 -24.220 -15.090  0.00  0.00    -0.070 C 
ATOM      4  C   UNL     1      38.682 -25.641 -13.078  0.00  0.00    +0.007 C 
ATOM      5  C   UNL     1      37.226 -25.538 -12.627  0.00  0.00    -0.023 C 
ATOM      6  C   UNL     1      36.571 -24.263 -13.138  0.00  0.00    -0.082 C 
ATOM      7  H   UNL     1      36.232 -24.990 -15.033  0.00  0.00    -0.085 HD
ATOM      8  H   UNL     1      36.327 -23.299 -14.918  0.00  0.00    -0.085 HD
ENDROOT
BRANCH   2  11
ATOM      9  O   UNL     1      40.653 -26.133 -15.887  0.00  0.00    -0.246 OA
ATOM     10  O   UNL     1      40.932 -24.600 -14.213  0.00  0.00    -0.246 OA
ATOM     11  C   UNL     1      40.273 -25.401 -14.932  0.00  0.00    +0.362 C 
ENDBRANCH   2  11
TORSDOF 1
ENDMDL
MODEL 8
REMARK VINA RESULT:      -5.3      7.449      8.219
REMARK  Name = 6575388
REMARK  1 active torsions:
REMARK  status: ('A' for Active; 'I' for Inactive)
REMARK    1  A    between atoms: C_2  and  C_11
REMARK                            x       y       z     vdW  Elec       q    Type
REMARK                         _______ _______ _______ _____ _____    ______ ____
ROOT
ATOM      1  N   UNL     1      36.786 -26.301 -13.813  0.00  0.00    +0.384 N 
ATOM      2  C   UNL     1      35.868 -24.700 -12.199  0.00  0.00    +0.082 C 
ATOM      3  C   UNL     1      36.957 -25.730 -12.442  0.00  0.00    -0.070 C 
ATOM      4  C   UNL     1      35.852 -23.623 -13.279  0.00  0.00    +0.007 C 
ATOM      5  C   UNL     1      35.748 -24.244 -14.671  0.00  0.00    -0.023 C 
ATOM      6  C   UNL     1      36.836 -25.281 -14.903  0.00  0.00    -0.082 C 
ATOM      7  H   UNL     1      35.882 -26.772 -13.854  0.00  0.00    -0.085 HD
ATOM      8  H   UNL     1      37.567 -26.939 -13.968  0.00  0.00    -0.085 HD
ENDROOT
BRANCH   2  11
ATOM      9  O   UNL     1      37.082 -23.142 -10.925  0.00  0.00    -0.246 OA
ATOM     10  O   UNL     1      35.490 -24.425  -9.901  0.00  0.00    -0.246 OA
ATOM     11  C   UNL     1      36.178 -24.021 -10.879  0.00  0.00    +0.362 C 
ENDBRANCH   2  11
TORSDOF 1
ENDMDL
MODEL 9
REMARK VINA RESULT:      -5.3     10.071     10.910
REMARK  Name = 6575388
REMARK  1 active torsions:
REMARK  status: ('A' for Active; 'I' for Inactive)
REMARK    1  A    between atoms: C_2  and  C_11
REMARK                            x       y       z     vdW  Elec       q    Type
REMARK                         _______ _______ _______ _____ _____    ______ ____
ROOT
ATOM      1  N   UNL     1      35.661 -17.784 -23.750  0.00  0.00    +0.384 N 
ATOM      2  C   UNL     1      34.985 -16.998 -21.528  0.00  0.00    +0.082 C 
ATOM      3  C   UNL     1      35.063 -16.637 -23.002  0.00  0.00    -0.070 C 
ATOM      4  C   UNL     1      34.222 -18.299 -21.302  0.00  0.00    +0.007 C 
ATOM      5  C   UNL     1      34.815 -19.434 -22.135  0.00  0.00    -0.023 C 
ATOM      6  C   UNL     1      34.900 -19.062 -23.608  0.00  0.00    -0.082 C 
ATOM      7  H   UNL     1      36.609 -17.935 -23.404  0.00  0.00    -0.085 HD
ATOM      8  H   UNL     1      35.640 -17.536 -24.739  0.00  0.00    -0.085 HD
ENDROOT
BRANCH   2  11
ATOM      9  O   UNL     1      32.960 -15.961 -20.933  0.00  0.00    -0.246 OA
ATOM     10  O   UNL     1      34.936 -15.035 -20.246  0.00  0.00    -0.246 OA
ATOM     11  C   UNL     1      34.216 -15.890 -20.835  0.00  0.00    +0.362 C 
ENDBRANCH   2  11
TORSDOF 1
ENDMDL
