MODEL 1
REMARK VINA RESULT:      -7.4      0.000      0.000
REMARK  Name = 10130337
REMARK  6 active torsions:
REMARK  status: ('A' for Active; 'I' for Inactive)
REMARK    1  A    between atoms: C_1  and  N_2
REMARK    2  A    between atoms: C_1  and  C_6
REMARK    3  A    between atoms: C_1  and  C_13
REMARK    4  A    between atoms: C_6  and  C_7
REMARK    5  A    between atoms: C_13  and  O_14
REMARK    6  A    between atoms: O_14  and  C_17
REMARK                            x       y       z     vdW  Elec       q    Type
REMARK                         _______ _______ _______ _____ _____    ______ ____
ROOT
ATOM      1  C   UNL     1      35.374 -17.877 -21.852  0.00  0.00    -0.017 C 
ENDROOT
BRANCH   1   2
ATOM      2  N   UNL     1      36.086 -18.098 -23.114  0.00  0.00    +0.384 N 
ATOM      3  H   UNL     1      36.273 -17.199 -23.561  0.00  0.00    -0.089 HD
ATOM      4  H   UNL     1      35.513 -18.672 -23.732  0.00  0.00    -0.089 HD
ATOM      5  H   UNL     1      36.969 -18.575 -22.928  0.00  0.00    -0.089 HD
ENDBRANCH   1   2
BRANCH   1   6
ATOM      6  C   UNL     1      34.204 -18.881 -21.776  0.00  0.00    +0.008 C 
BRANCH   6   7
ATOM      7  C   UNL     1      34.400 -20.001 -20.784  0.00  0.00    -0.024 C 
ATOM      8  C   UNL     1      35.687 -20.391 -20.444  0.00  0.00    -0.004 C 
ATOM      9  C   UNL     1      33.291 -20.622 -20.230  0.00  0.00    -0.004 C 
ATOM     10  C   UNL     1      35.868 -21.425 -19.528  0.00  0.00    -0.000 C 
ATOM     11  C   UNL     1      33.474 -21.657 -19.313  0.00  0.00    -0.000 C 
ATOM     12  C   UNL     1      34.762 -22.059 -18.962  0.00  0.00    -0.000 C 
ENDBRANCH   6   7
ENDBRANCH   1   6
BRANCH   1  13
ATOM     13  C   UNL     1      34.920 -16.413 -21.808  0.00  0.00    +0.189 C 
BRANCH  13  14
ATOM     14  O   UNL     1      35.272 -15.752 -23.016  0.00  0.00    -0.437 OA
BRANCH  14  17
ATOM     15  O   UNL     1      33.509 -15.346 -24.439  0.00  0.00    -0.227 OA
ATOM     16  N   UNL     1      34.329 -13.702 -23.056  0.00  0.00    -0.295 N 
ATOM     17  C   UNL     1      34.300 -14.970 -23.580  0.00  0.00    +0.398 C 
ATOM     18  H   UNL     1      34.993 -13.469 -22.368  0.00  0.00    +0.148 HD
ATOM     19  H   UNL     1      33.684 -13.026 -23.368  0.00  0.00    +0.148 HD
ENDBRANCH  14  17
ENDBRANCH  13  14
ENDBRANCH   1  13
TORSDOF 6
ENDMDL
MODEL 2
REMARK VINA RESULT:      -7.4      1.676      2.220
REMARK  Name = 10130337
REMARK  6 active torsions:
REMARK  status: ('A' for Active; 'I' for Inactive)
REMARK    1  A    between atoms: C_1  and  N_2
REMARK    2  A    between atoms: C_1  and  C_6
REMARK    3  A    between atoms: C_1  and  C_13
REMARK    4  A    between atoms: C_6  and  C_7
REMARK    5  A    between atoms: C_13  and  O_14
REMARK    6  A    between atoms: O_14  and  C_17
REMARK                            x       y       z     vdW  Elec       q    Type
REMARK                         _______ _______ _______ _____ _____    ______ ____
ROOT
ATOM      1  C   UNL     1      34.572 -17.040 -22.084  0.00  0.00    -0.017 C 
ENDROOT
BRANCH   1   2
ATOM      2  N   UNL     1      34.920 -16.415 -20.804  0.00  0.00    +0.384 N 
ATOM      3  H   UNL     1      35.854 -16.715 -20.522  0.00  0.00    -0.089 HD
ATOM      4  H   UNL     1      34.244 -16.696 -20.094  0.00  0.00    -0.089 HD
ATOM      5  H   UNL     1      34.905 -15.400 -20.906  0.00  0.00    -0.089 HD
ENDBRANCH   1   2
BRANCH   1   6
ATOM      6  C   UNL     1      35.303 -18.396 -22.173  0.00  0.00    +0.008 C 
BRANCH   6   7
ATOM      7  C   UNL     1      34.784 -19.454 -21.230  0.00  0.00    -0.024 C 
ATOM      8  C   UNL     1      33.416 -19.592 -21.049  0.00  0.00    -0.004 C 
ATOM      9  C   UNL     1      35.683 -20.269 -20.560  0.00  0.00    -0.004 C 
ATOM     10  C   UNL     1      32.937 -20.568 -20.178  0.00  0.00    -0.000 C 
ATOM     11  C   UNL     1      35.203 -21.246 -19.688  0.00  0.00    -0.000 C 
ATOM     12  C   UNL     1      33.829 -21.396 -19.497  0.00  0.00    -0.000 C 
ENDBRANCH   6   7
ENDBRANCH   1   6
BRANCH   1  13
ATOM     13  C   UNL     1      34.953 -16.071 -23.210  0.00  0.00    +0.189 C 
BRANCH  13  14
ATOM     14  O   UNL     1      33.824 -15.802 -24.031  0.00  0.00    -0.437 OA
BRANCH  14  17
ATOM     15  O   UNL     1      34.735 -16.924 -25.822  0.00  0.00    -0.227 OA
ATOM     16  N   UNL     1      33.130 -15.304 -26.120  0.00  0.00    -0.295 N 
ATOM     17  C   UNL     1      33.966 -16.086 -25.363  0.00  0.00    +0.398 C 
ATOM     18  H   UNL     1      32.538 -14.650 -25.683  0.00  0.00    +0.148 HD
ATOM     19  H   UNL     1      33.123 -15.398 -27.100  0.00  0.00    +0.148 HD
ENDBRANCH  14  17
ENDBRANCH  13  14
ENDBRANCH   1  13
TORSDOF 6
ENDMDL
MODEL 3
REMARK VINA RESULT:      -7.3      0.789      1.513
REMARK  Name = 10130337
REMARK  6 active torsions:
REMARK  status: ('A' for Active; 'I' for Inactive)
REMARK    1  A    between atoms: C_1  and  N_2
REMARK    2  A    between atoms: C_1  and  C_6
REMARK    3  A    between atoms: C_1  and  C_13
REMARK    4  A    between atoms: C_6  and  C_7
REMARK    5  A    between atoms: C_13  and  O_14
REMARK    6  A    between atoms: O_14  and  C_17
REMARK                            x       y       z     vdW  Elec       q    Type
REMARK                         _______ _______ _______ _____ _____    ______ ____
ROOT
ATOM      1  C   UNL     1      35.300 -17.684 -21.588  0.00  0.00    -0.017 C 
ENDROOT
BRANCH   1   2
ATOM      2  N   UNL     1      35.949 -17.661 -22.902  0.00  0.00    +0.384 N 
ATOM      3  H   UNL     1      35.412 -18.232 -23.556  0.00  0.00    -0.089 HD
ATOM      4  H   UNL     1      36.894 -18.035 -22.821  0.00  0.00    -0.089 HD
ATOM      5  H   UNL     1      35.991 -16.701 -23.244  0.00  0.00    -0.089 HD
ENDBRANCH   1   2
BRANCH   1   6
ATOM      6  C   UNL     1      34.157 -18.721 -21.631  0.00  0.00    +0.008 C 
BRANCH   6   7
ATOM      7  C   UNL     1      34.356 -19.913 -20.728  0.00  0.00    -0.024 C 
ATOM      8  C   UNL     1      33.249 -20.537 -20.172  0.00  0.00    -0.004 C 
ATOM      9  C   UNL     1      35.640 -20.366 -20.469  0.00  0.00    -0.004 C 
ATOM     10  C   UNL     1      33.431 -21.638 -19.337  0.00  0.00    -0.000 C 
ATOM     11  C   UNL     1      35.823 -21.467 -19.634  0.00  0.00    -0.000 C 
ATOM     12  C   UNL     1      34.718 -22.104 -19.068  0.00  0.00    -0.000 C 
ENDBRANCH   6   7
ENDBRANCH   1   6
BRANCH   1  13
ATOM     13  C   UNL     1      34.818 -16.264 -21.267  0.00  0.00    +0.189 C 
BRANCH  13  14
ATOM     14  O   UNL     1      34.868 -15.452 -22.433  0.00  0.00    -0.437 OA
BRANCH  14  17
ATOM     15  O   UNL     1      32.669 -14.804 -22.225  0.00  0.00    -0.227 OA
ATOM     16  N   UNL     1      34.206 -13.482 -23.312  0.00  0.00    -0.295 N 
ATOM     17  C   UNL     1      33.813 -14.600 -22.620  0.00  0.00    +0.398 C 
ATOM     18  H   UNL     1      35.142 -13.384 -23.598  0.00  0.00    +0.148 HD
ATOM     19  H   UNL     1      33.550 -12.777 -23.521  0.00  0.00    +0.148 HD
ENDBRANCH  14  17
ENDBRANCH  13  14
ENDBRANCH   1  13
TORSDOF 6
ENDMDL
MODEL 4
REMARK VINA RESULT:      -6.9      3.982      6.334
REMARK  Name = 10130337
REMARK  6 active torsions:
REMARK  status: ('A' for Active; 'I' for Inactive)
REMARK    1  A    between atoms: C_1  and  N_2
REMARK    2  A    between atoms: C_1  and  C_6
REMARK    3  A    between atoms: C_1  and  C_13
REMARK    4  A    between atoms: C_6  and  C_7
REMARK    5  A    between atoms: C_13  and  O_14
REMARK    6  A    between atoms: O_14  and  C_17
REMARK                            x       y       z     vdW  Elec       q    Type
REMARK                         _______ _______ _______ _____ _____    ______ ____
ROOT
ATOM      1  C   UNL     1      35.547 -19.911 -20.826  0.00  0.00    -0.017 C 
ENDROOT
BRANCH   1   2
ATOM      2  N   UNL     1      36.696 -19.980 -19.918  0.00  0.00    +0.384 N 
ATOM      3  H   UNL     1      36.941 -20.957 -19.753  0.00  0.00    -0.089 HD
ATOM      4  H   UNL     1      36.457 -19.536 -19.032  0.00  0.00    -0.089 HD
ATOM      5  H   UNL     1      37.491 -19.497 -20.338  0.00  0.00    -0.089 HD
ENDBRANCH   1   2
BRANCH   1   6
ATOM      6  C   UNL     1      35.230 -18.423 -21.090  0.00  0.00    +0.008 C 
BRANCH   6   7
ATOM      7  C   UNL     1      34.992 -18.079 -22.540  0.00  0.00    -0.024 C 
ATOM      8  C   UNL     1      34.705 -19.094 -23.441  0.00  0.00    -0.004 C 
ATOM      9  C   UNL     1      35.063 -16.756 -22.947  0.00  0.00    -0.004 C 
ATOM     10  C   UNL     1      34.485 -18.776 -24.781  0.00  0.00    -0.000 C 
ATOM     11  C   UNL     1      34.842 -16.439 -24.287  0.00  0.00    -0.000 C 
ATOM     12  C   UNL     1      34.553 -17.449 -25.204  0.00  0.00    -0.000 C 
ENDBRANCH   6   7
ENDBRANCH   1   6
BRANCH   1  13
ATOM     13  C   UNL     1      34.382 -20.674 -20.183  0.00  0.00    +0.189 C 
BRANCH  13  14
ATOM     14  O   UNL     1      34.869 -21.577 -19.199  0.00  0.00    -0.437 OA
BRANCH  14  17
ATOM     15  O   UNL     1      34.227 -23.506 -18.119  0.00  0.00    -0.227 OA
ATOM     16  N   UNL     1      32.675 -21.971 -18.846  0.00  0.00    -0.295 N 
ATOM     17  C   UNL     1      33.951 -22.446 -18.672  0.00  0.00    +0.398 C 
ATOM     18  H   UNL     1      32.528 -21.110 -19.299  0.00  0.00    +0.148 HD
ATOM     19  H   UNL     1      31.908 -22.493 -18.515  0.00  0.00    +0.148 HD
ENDBRANCH  14  17
ENDBRANCH  13  14
ENDBRANCH   1  13
TORSDOF 6
ENDMDL
MODEL 5
REMARK VINA RESULT:      -6.9      5.505      7.407
REMARK  Name = 10130337
REMARK  6 active torsions:
REMARK  status: ('A' for Active; 'I' for Inactive)
REMARK    1  A    between atoms: C_1  and  N_2
REMARK    2  A    between atoms: C_1  and  C_6
REMARK    3  A    between atoms: C_1  and  C_13
REMARK    4  A    between atoms: C_6  and  C_7
REMARK    5  A    between atoms: C_13  and  O_14
REMARK    6  A    between atoms: O_14  and  C_17
REMARK                            x       y       z     vdW  Elec       q    Type
REMARK                         _______ _______ _______ _____ _____    ______ ____
ROOT
ATOM      1  C   UNL     1      33.681 -22.777 -17.007  0.00  0.00    -0.017 C 
ENDROOT
BRANCH   1   2
ATOM      2  N   UNL     1      32.470 -23.506 -16.621  0.00  0.00    +0.384 N 
ATOM      3  H   UNL     1      32.443 -24.403 -17.106  0.00  0.00    -0.089 HD
ATOM      4  H   UNL     1      31.648 -22.958 -16.874  0.00  0.00    -0.089 HD
ATOM      5  H   UNL     1      32.475 -23.664 -15.613  0.00  0.00    -0.089 HD
ENDBRANCH   1   2
BRANCH   1   6
ATOM      6  C   UNL     1      33.962 -23.062 -18.498  0.00  0.00    +0.008 C 
BRANCH   6   7
ATOM      7  C   UNL     1      34.113 -21.830 -19.357  0.00  0.00    -0.024 C 
ATOM      8  C   UNL     1      32.983 -21.121 -19.733  0.00  0.00    -0.004 C 
ATOM      9  C   UNL     1      35.379 -21.428 -19.753  0.00  0.00    -0.004 C 
ATOM     10  C   UNL     1      33.122 -19.983 -20.526  0.00  0.00    -0.000 C 
ATOM     11  C   UNL     1      35.518 -20.290 -20.547  0.00  0.00    -0.000 C 
ATOM     12  C   UNL     1      34.390 -19.566 -20.933  0.00  0.00    -0.000 C 
ENDBRANCH   6   7
ENDBRANCH   1   6
BRANCH   1  13
ATOM     13  C   UNL     1      34.821 -23.217 -16.081  0.00  0.00    +0.189 C 
BRANCH  13  14
ATOM     14  O   UNL     1      36.076 -23.041 -16.725  0.00  0.00    -0.437 OA
BRANCH  14  17
ATOM     15  O   UNL     1      37.542 -22.733 -14.978  0.00  0.00    -0.227 OA
ATOM     16  N   UNL     1      37.319 -21.159 -16.640  0.00  0.00    -0.295 N 
ATOM     17  C   UNL     1      37.024 -22.348 -16.021  0.00  0.00    +0.398 C 
ATOM     18  H   UNL     1      36.863 -20.914 -17.477  0.00  0.00    +0.148 HD
ATOM     19  H   UNL     1      37.987 -20.552 -16.246  0.00  0.00    +0.148 HD
ENDBRANCH  14  17
ENDBRANCH  13  14
ENDBRANCH   1  13
TORSDOF 6
ENDMDL
MODEL 6
REMARK VINA RESULT:      -6.8      7.460      9.538
REMARK  Name = 10130337
REMARK  6 active torsions:
REMARK  status: ('A' for Active; 'I' for Inactive)
REMARK    1  A    between atoms: C_1  and  N_2
REMARK    2  A    between atoms: C_1  and  C_6
REMARK    3  A    between atoms: C_1  and  C_13
REMARK    4  A    between atoms: C_6  and  C_7
REMARK    5  A    between atoms: C_13  and  O_14
REMARK    6  A    between atoms: O_14  and  C_17
REMARK                            x       y       z     vdW  Elec       q    Type
REMARK                         _______ _______ _______ _____ _____    ______ ____
ROOT
ATOM      1  C   UNL     1      35.963 -23.243 -14.747  0.00  0.00    -0.017 C 
ENDROOT
BRANCH   1   2
ATOM      2  N   UNL     1      35.451 -23.128 -13.378  0.00  0.00    +0.384 N 
ATOM      3  H   UNL     1      35.613 -22.181 -13.033  0.00  0.00    -0.089 HD
ATOM      4  H   UNL     1      35.933 -23.796 -12.778  0.00  0.00    -0.089 HD
ATOM      5  H   UNL     1      34.450 -23.325 -13.372  0.00  0.00    -0.089 HD
ENDBRANCH   1   2
BRANCH   1   6
ATOM      6  C   UNL     1      34.758 -23.295 -15.710  0.00  0.00    +0.008 C 
BRANCH   6   7
ATOM      7  C   UNL     1      35.006 -22.674 -17.063  0.00  0.00    -0.024 C 
ATOM      8  C   UNL     1      36.233 -22.082 -17.324  0.00  0.00    -0.004 C 
ATOM      9  C   UNL     1      34.005 -22.706 -18.021  0.00  0.00    -0.004 C 
ATOM     10  C   UNL     1      36.462 -21.508 -18.574  0.00  0.00    -0.000 C 
ATOM     11  C   UNL     1      34.235 -22.131 -19.271  0.00  0.00    -0.000 C 
ATOM     12  C   UNL     1      35.464 -21.532 -19.548  0.00  0.00    -0.000 C 
ENDBRANCH   6   7
ENDBRANCH   1   6
BRANCH   1  13
ATOM     13  C   UNL     1      36.854 -24.489 -14.822  0.00  0.00    +0.189 C 
BRANCH  13  14
ATOM     14  O   UNL     1      36.245 -25.481 -15.638  0.00  0.00    -0.437 OA
BRANCH  14  17
ATOM     15  O   UNL     1      36.825 -27.602 -16.320  0.00  0.00    -0.227 OA
ATOM     16  N   UNL     1      36.876 -27.006 -14.100  0.00  0.00    -0.295 N 
ATOM     17  C   UNL     1      36.662 -26.769 -15.434  0.00  0.00    +0.398 C 
ATOM     18  H   UNL     1      36.726 -26.289 -13.442  0.00  0.00    +0.148 HD
ATOM     19  H   UNL     1      37.181 -27.894 -13.800  0.00  0.00    +0.148 HD
ENDBRANCH  14  17
ENDBRANCH  13  14
ENDBRANCH   1  13
TORSDOF 6
ENDMDL
MODEL 7
REMARK VINA RESULT:      -6.7      9.335     10.886
REMARK  Name = 10130337
REMARK  6 active torsions:
REMARK  status: ('A' for Active; 'I' for Inactive)
REMARK    1  A    between atoms: C_1  and  N_2
REMARK    2  A    between atoms: C_1  and  C_6
REMARK    3  A    between atoms: C_1  and  C_13
REMARK    4  A    between atoms: C_6  and  C_7
REMARK    5  A    between atoms: C_13  and  O_14
REMARK    6  A    between atoms: O_14  and  C_17
REMARK                            x       y       z     vdW  Elec       q    Type
REMARK                         _______ _______ _______ _____ _____    ______ ____
ROOT
ATOM      1  C   UNL     1      34.789 -24.624 -14.285  0.00  0.00    -0.017 C 
ENDROOT
BRANCH   1   2
ATOM      2  N   UNL     1      35.615 -25.602 -15.001  0.00  0.00    +0.384 N 
ATOM      3  H   UNL     1      36.539 -25.205 -15.174  0.00  0.00    -0.089 HD
ATOM      4  H   UNL     1      35.173 -25.835 -15.889  0.00  0.00    -0.089 HD
ATOM      5  H   UNL     1      35.708 -26.446 -14.435  0.00  0.00    -0.089 HD
ENDBRANCH   1   2
BRANCH   1   6
ATOM      6  C   UNL     1      34.303 -23.568 -15.301  0.00  0.00    +0.008 C 
BRANCH   6   7
ATOM      7  C   UNL     1      32.809 -23.356 -15.320  0.00  0.00    -0.024 C 
ATOM      8  C   UNL     1      32.105 -23.369 -14.126  0.00  0.00    -0.004 C 
ATOM      9  C   UNL     1      32.167 -23.150 -16.531  0.00  0.00    -0.004 C 
ATOM     10  C   UNL     1      30.725 -23.172 -14.144  0.00  0.00    -0.000 C 
ATOM     11  C   UNL     1      30.786 -22.954 -16.549  0.00  0.00    -0.000 C 
ATOM     12  C   UNL     1      30.065 -22.965 -15.355  0.00  0.00    -0.000 C 
ENDBRANCH   6   7
ENDBRANCH   1   6
BRANCH   1  13
ATOM     13  C   UNL     1      35.628 -24.030 -13.148  0.00  0.00    +0.189 C 
BRANCH  13  14
ATOM     14  O   UNL     1      34.945 -24.168 -11.908  0.00  0.00    -0.437 OA
BRANCH  14  17
ATOM     15  O   UNL     1      35.394 -24.585  -9.690  0.00  0.00    -0.227 OA
ATOM     16  N   UNL     1      36.934 -23.543 -11.043  0.00  0.00    -0.295 N 
ATOM     17  C   UNL     1      35.725 -24.140 -10.784  0.00  0.00    +0.398 C 
ATOM     18  H   UNL     1      37.133 -23.207 -11.947  0.00  0.00    +0.148 HD
ATOM     19  H   UNL     1      37.601 -23.451 -10.325  0.00  0.00    +0.148 HD
ENDBRANCH  14  17
ENDBRANCH  13  14
ENDBRANCH   1  13
TORSDOF 6
ENDMDL
MODEL 8
REMARK VINA RESULT:      -6.7      7.700      9.707
REMARK  Name = 10130337
REMARK  6 active torsions:
REMARK  status: ('A' for Active; 'I' for Inactive)
REMARK    1  A    between atoms: C_1  and  N_2
REMARK    2  A    between atoms: C_1  and  C_6
REMARK    3  A    between atoms: C_1  and  C_13
REMARK    4  A    between atoms: C_6  and  C_7
REMARK    5  A    between atoms: C_13  and  O_14
REMARK    6  A    between atoms: O_14  and  C_17
REMARK                            x       y       z     vdW  Elec       q    Type
REMARK                         _______ _______ _______ _____ _____    ______ ____
ROOT
ATOM      1  C   UNL     1      36.999 -23.711 -15.337  0.00  0.00    -0.017 C 
ENDROOT
BRANCH   1   2
ATOM      2  N   UNL     1      38.324 -24.333 -15.422  0.00  0.00    +0.384 N 
ATOM      3  H   UNL     1      38.856 -23.899 -16.177  0.00  0.00    -0.089 HD
ATOM      4  H   UNL     1      38.220 -25.330 -15.610  0.00  0.00    -0.089 HD
ATOM      5  H   UNL     1      38.818 -24.203 -14.539  0.00  0.00    -0.089 HD
ENDBRANCH   1   2
BRANCH   1   6
ATOM      6  C   UNL     1      37.056 -22.353 -16.069  0.00  0.00    +0.008 C 
BRANCH   6   7
ATOM      7  C   UNL     1      36.114 -22.231 -17.242  0.00  0.00    -0.024 C 
ATOM      8  C   UNL     1      34.850 -22.794 -17.160  0.00  0.00    -0.004 C 
ATOM      9  C   UNL     1      36.529 -21.557 -18.380  0.00  0.00    -0.004 C 
ATOM     10  C   UNL     1      33.980 -22.681 -18.244  0.00  0.00    -0.000 C 
ATOM     11  C   UNL     1      35.659 -21.445 -19.464  0.00  0.00    -0.000 C 
ATOM     12  C   UNL     1      34.383 -22.006 -19.396  0.00  0.00    -0.000 C 
ENDBRANCH   6   7
ENDBRANCH   1   6
BRANCH   1  13
ATOM     13  C   UNL     1      36.622 -23.587 -13.856  0.00  0.00    +0.189 C 
BRANCH  13  14
ATOM     14  O   UNL     1      37.588 -24.245 -13.046  0.00  0.00    -0.437 OA
BRANCH  14  17
ATOM     15  O   UNL     1      39.101 -23.197 -11.663  0.00  0.00    -0.227 OA
ATOM     16  N   UNL     1      36.894 -23.427 -11.060  0.00  0.00    -0.295 N 
ATOM     17  C   UNL     1      37.964 -23.589 -11.904  0.00  0.00    +0.398 C 
ATOM     18  H   UNL     1      36.007 -23.767 -11.319  0.00  0.00    +0.148 HD
ATOM     19  H   UNL     1      37.014 -22.970 -10.196  0.00  0.00    +0.148 HD
ENDBRANCH  14  17
ENDBRANCH  13  14
ENDBRANCH   1  13
TORSDOF 6
ENDMDL
MODEL 9
REMARK VINA RESULT:      -6.7      8.182      9.323
REMARK  Name = 10130337
REMARK  6 active torsions:
REMARK  status: ('A' for Active; 'I' for Inactive)
REMARK    1  A    between atoms: C_1  and  N_2
REMARK    2  A    between atoms: C_1  and  C_6
REMARK    3  A    between atoms: C_1  and  C_13
REMARK    4  A    between atoms: C_6  and  C_7
REMARK    5  A    between atoms: C_13  and  O_14
REMARK    6  A    between atoms: O_14  and  C_17
REMARK                            x       y       z     vdW  Elec       q    Type
REMARK                         _______ _______ _______ _____ _____    ______ ____
ROOT
ATOM      1  C   UNL     1      29.552 -24.437 -15.817  0.00  0.00    -0.017 C 
ENDROOT
BRANCH   1   2
ATOM      2  N   UNL     1      28.940 -25.118 -14.672  0.00  0.00    +0.384 N 
ATOM      3  H   UNL     1      29.524 -24.985 -13.845  0.00  0.00    -0.089 HD
ATOM      4  H   UNL     1      28.857 -26.114 -14.873  0.00  0.00    -0.089 HD
ATOM      5  H   UNL     1      28.013 -24.727 -14.500  0.00  0.00    -0.089 HD
ENDBRANCH   1   2
BRANCH   1   6
ATOM      6  C   UNL     1      30.350 -23.226 -15.289  0.00  0.00    +0.008 C 
BRANCH   6   7
ATOM      7  C   UNL     1      31.803 -23.204 -15.696  0.00  0.00    -0.024 C 
ATOM      8  C   UNL     1      32.785 -23.269 -14.719  0.00  0.00    -0.004 C 
ATOM      9  C   UNL     1      32.132 -23.120 -17.041  0.00  0.00    -0.004 C 
ATOM     10  C   UNL     1      34.127 -23.249 -15.095  0.00  0.00    -0.000 C 
ATOM     11  C   UNL     1      33.475 -23.100 -17.416  0.00  0.00    -0.000 C 
ATOM     12  C   UNL     1      34.473 -23.165 -16.444  0.00  0.00    -0.000 C 
ENDBRANCH   6   7
ENDBRANCH   1   6
BRANCH   1  13
ATOM     13  C   UNL     1      28.437 -24.049 -16.796  0.00  0.00    +0.189 C 
BRANCH  13  14
ATOM     14  O   UNL     1      28.478 -22.653 -17.060  0.00  0.00    -0.437 OA
BRANCH  14  17
ATOM     15  O   UNL     1      26.773 -21.266 -17.743  0.00  0.00    -0.227 OA
ATOM     16  N   UNL     1      26.790 -22.188 -15.636  0.00  0.00    -0.295 N 
ATOM     17  C   UNL     1      27.302 -21.973 -16.892  0.00  0.00    +0.398 C 
ATOM     18  H   UNL     1      27.269 -22.769 -15.003  0.00  0.00    +0.148 HD
ATOM     19  H   UNL     1      25.943 -21.761 -15.371  0.00  0.00    +0.148 HD
ENDBRANCH  14  17
ENDBRANCH  13  14
ENDBRANCH   1  13
TORSDOF 6
ENDMDL
