MODEL 1
REMARK VINA RESULT:      -9.9      0.000      0.000
REMARK  Name = 4031
REMARK  14 active torsions:
REMARK  status: ('A' for Active; 'I' for Inactive)
REMARK    1  A    between atoms: C_1  and  N_2
REMARK    2  A    between atoms: C_1  and  C_17
REMARK    3  A    between atoms: N_2  and  C_4
REMARK    4  A    between atoms: N_2  and  C_15
REMARK    5  A    between atoms: C_4  and  C_6
REMARK    6  A    between atoms: C_6  and  C_7
REMARK    7  A    between atoms: C_12  and  O_13
REMARK    8  A    between atoms: C_17  and  C_18
REMARK    9  A    between atoms: C_18  and  C_19
REMARK   10  A    between atoms: C_19  and  O_20
REMARK   11  A    between atoms: O_20  and  C_22
REMARK   12  A    between atoms: C_22  and  C_23
REMARK   13  A    between atoms: C_26  and  O_29
REMARK   14  A    between atoms: C_28  and  O_31
REMARK                            x       y       z     vdW  Elec       q    Type
REMARK                         _______ _______ _______ _____ _____    ______ ____
ROOT
ATOM      1  C   UNL     1      34.587 -15.332 -23.051  0.00  0.00    -0.077 C 
ENDROOT
BRANCH   1   2
ATOM      2  N   UNL     1      34.276 -16.753 -22.949  0.00  0.00    +0.388 N 
ATOM      3  H   UNL     1      33.317 -16.893 -23.265  0.00  0.00    -0.080 HD
BRANCH   2   4
ATOM      4  C   UNL     1      34.380 -17.204 -21.559  0.00  0.00    -0.054 C 
ATOM      5  C   UNL     1      34.711 -15.994 -20.685  0.00  0.00    -0.023 C 
BRANCH   4   6
ATOM      6  C   UNL     1      35.441 -18.314 -21.457  0.00  0.00    +0.006 C 
BRANCH   6   7
ATOM      7  C   UNL     1      34.935 -19.573 -20.794  0.00  0.00    -0.024 C 
ATOM      8  C   UNL     1      33.564 -19.782 -20.647  0.00  0.00    -0.001 C 
ATOM      9  C   UNL     1      35.839 -20.528 -20.329  0.00  0.00    -0.001 C 
ATOM     10  C   UNL     1      33.097 -20.946 -20.035  0.00  0.00    +0.037 C 
ATOM     11  C   UNL     1      35.372 -21.692 -19.717  0.00  0.00    +0.037 C 
ATOM     12  C   UNL     1      34.002 -21.900 -19.569  0.00  0.00    +0.139 C 
BRANCH  12  13
ATOM     13  O   UNL     1      33.545 -23.035 -18.972  0.00  0.00    -0.471 OA
ATOM     14  C   UNL     1      33.323 -22.982 -17.564  0.00  0.00    +0.252 C 
ENDBRANCH  12  13
ENDBRANCH   6   7
ENDBRANCH   4   6
ENDBRANCH   2   4
BRANCH   2  15
ATOM     15  C   UNL     1      35.168 -17.537 -23.805  0.00  0.00    -0.077 C 
ATOM     16  C   UNL     1      34.405 -18.170 -24.957  0.00  0.00    -0.025 C 
ENDBRANCH   2  15
ENDBRANCH   1   2
BRANCH   1  17
ATOM     17  C   UNL     1      33.367 -14.556 -23.547  0.00  0.00    -0.019 C 
BRANCH  17  18
ATOM     18  C   UNL     1      33.284 -14.573 -25.072  0.00  0.00    +0.045 C 
BRANCH  18  19
ATOM     19  C   UNL     1      33.457 -13.179 -25.660  0.00  0.00    +0.209 C 
BRANCH  19  20
ATOM     20  O   UNL     1      33.672 -12.239 -24.616  0.00  0.00    -0.445 OA
BRANCH  20  22
ATOM     21  O   UNL     1      35.070 -10.946 -25.911  0.00  0.00    -0.245 OA
ATOM     22  C   UNL     1      34.302 -11.085 -24.971  0.00  0.00    +0.341 C 
BRANCH  22  23
ATOM     23  C   UNL     1      33.935  -9.980 -24.049  0.00  0.00    +0.079 C 
ATOM     24  C   UNL     1      32.896 -10.151 -23.135  0.00  0.00    +0.046 C 
ATOM     25  C   UNL     1      34.630  -8.771 -24.098  0.00  0.00    +0.010 C 
ATOM     26  C   UNL     1      32.551  -9.112 -22.269  0.00  0.00    +0.173 C 
ATOM     27  C   UNL     1      34.285  -7.733 -23.234  0.00  0.00    +0.040 C 
ATOM     28  C   UNL     1      33.245  -7.902 -22.319  0.00  0.00    +0.172 C 
BRANCH  26  29
ATOM     29  O   UNL     1      31.533  -9.290 -21.382  0.00  0.00    -0.468 OA
ATOM     30  C   UNL     1      31.890  -9.676 -20.056  0.00  0.00    +0.253 C 
ENDBRANCH  26  29
BRANCH  28  31
ATOM     31  O   UNL     1      32.918  -6.882 -21.479  0.00  0.00    -0.468 OA
ATOM     32  C   UNL     1      32.044  -5.877 -21.990  0.00  0.00    +0.253 C 
ENDBRANCH  28  31
ENDBRANCH  22  23
ENDBRANCH  20  22
ENDBRANCH  19  20
ENDBRANCH  18  19
ENDBRANCH  17  18
ENDBRANCH   1  17
TORSDOF 14
ENDMDL
MODEL 2
REMARK VINA RESULT:      -9.8      2.471     10.688
REMARK  Name = 4031
REMARK  14 active torsions:
REMARK  status: ('A' for Active; 'I' for Inactive)
REMARK    1  A    between atoms: C_1  and  N_2
REMARK    2  A    between atoms: C_1  and  C_17
REMARK    3  A    between atoms: N_2  and  C_4
REMARK    4  A    between atoms: N_2  and  C_15
REMARK    5  A    between atoms: C_4  and  C_6
REMARK    6  A    between atoms: C_6  and  C_7
REMARK    7  A    between atoms: C_12  and  O_13
REMARK    8  A    between atoms: C_17  and  C_18
REMARK    9  A    between atoms: C_18  and  C_19
REMARK   10  A    between atoms: C_19  and  O_20
REMARK   11  A    between atoms: O_20  and  C_22
REMARK   12  A    between atoms: C_22  and  C_23
REMARK   13  A    between atoms: C_26  and  O_29
REMARK   14  A    between atoms: C_28  and  O_31
REMARK                            x       y       z     vdW  Elec       q    Type
REMARK                         _______ _______ _______ _____ _____    ______ ____
ROOT
ATOM      1  C   UNL     1      33.705 -15.606 -23.561  0.00  0.00    -0.077 C 
ENDROOT
BRANCH   1   2
ATOM      2  N   UNL     1      33.841 -14.185 -23.260  0.00  0.00    +0.388 N 
ATOM      3  H   UNL     1      34.830 -13.984 -23.110  0.00  0.00    -0.080 HD
BRANCH   2   4
ATOM      4  C   UNL     1      33.105 -13.845 -22.041  0.00  0.00    -0.054 C 
ATOM      5  C   UNL     1      32.635 -15.143 -21.385  0.00  0.00    -0.023 C 
BRANCH   4   6
ATOM      6  C   UNL     1      31.937 -12.905 -22.392  0.00  0.00    +0.006 C 
BRANCH   6   7
ATOM      7  C   UNL     1      31.934 -11.622 -21.595  0.00  0.00    -0.024 C 
ATOM      8  C   UNL     1      32.230 -10.412 -22.221  0.00  0.00    -0.001 C 
ATOM      9  C   UNL     1      31.636 -11.648 -20.233  0.00  0.00    -0.001 C 
ATOM     10  C   UNL     1      32.228  -9.226 -21.485  0.00  0.00    +0.037 C 
ATOM     11  C   UNL     1      31.633 -10.462 -19.496  0.00  0.00    +0.037 C 
ATOM     12  C   UNL     1      31.930  -9.252 -20.122  0.00  0.00    +0.139 C 
BRANCH  12  13
ATOM     13  O   UNL     1      31.927  -8.096 -19.405  0.00  0.00    -0.471 OA
ATOM     14  C   UNL     1      32.295  -6.903 -20.096  0.00  0.00    +0.252 C 
ENDBRANCH  12  13
ENDBRANCH   6   7
ENDBRANCH   4   6
ENDBRANCH   2   4
BRANCH   2  15
ATOM     15  C   UNL     1      33.367 -13.374 -24.383  0.00  0.00    -0.077 C 
ATOM     16  C   UNL     1      32.875 -14.250 -25.524  0.00  0.00    -0.025 C 
ENDBRANCH   2  15
ENDBRANCH   1   2
BRANCH   1  17
ATOM     17  C   UNL     1      35.080 -16.235 -23.785  0.00  0.00    -0.019 C 
BRANCH  17  18
ATOM     18  C   UNL     1      34.962 -17.582 -24.495  0.00  0.00    +0.045 C 
BRANCH  18  19
ATOM     19  C   UNL     1      35.293 -18.740 -23.562  0.00  0.00    +0.209 C 
BRANCH  19  20
ATOM     20  O   UNL     1      34.356 -18.783 -22.495  0.00  0.00    -0.445 OA
BRANCH  20  22
ATOM     21  O   UNL     1      35.429 -17.665 -20.792  0.00  0.00    -0.245 OA
ATOM     22  C   UNL     1      34.869 -18.655 -21.241  0.00  0.00    +0.341 C 
BRANCH  22  23
ATOM     23  C   UNL     1      34.664 -19.899 -20.458  0.00  0.00    +0.079 C 
ATOM     24  C   UNL     1      35.743 -20.504 -19.815  0.00  0.00    +0.046 C 
ATOM     25  C   UNL     1      33.392 -20.464 -20.365  0.00  0.00    +0.010 C 
ATOM     26  C   UNL     1      35.550 -21.674 -19.079  0.00  0.00    +0.173 C 
ATOM     27  C   UNL     1      33.198 -21.633 -19.631  0.00  0.00    +0.040 C 
ATOM     28  C   UNL     1      34.278 -22.239 -18.988  0.00  0.00    +0.172 C 
BRANCH  26  29
ATOM     29  O   UNL     1      36.613 -22.257 -18.456  0.00  0.00    -0.468 OA
ATOM     30  C   UNL     1      36.948 -21.772 -17.158  0.00  0.00    +0.253 C 
ENDBRANCH  26  29
BRANCH  28  31
ATOM     31  O   UNL     1      34.077 -23.381 -18.272  0.00  0.00    -0.468 OA
ATOM     32  C   UNL     1      33.229 -23.287 -17.130  0.00  0.00    +0.253 C 
ENDBRANCH  28  31
ENDBRANCH  22  23
ENDBRANCH  20  22
ENDBRANCH  19  20
ENDBRANCH  18  19
ENDBRANCH  17  18
ENDBRANCH   1  17
TORSDOF 14
ENDMDL
MODEL 3
REMARK VINA RESULT:      -9.6      4.964      9.117
REMARK  Name = 4031
REMARK  14 active torsions:
REMARK  status: ('A' for Active; 'I' for Inactive)
REMARK    1  A    between atoms: C_1  and  N_2
REMARK    2  A    between atoms: C_1  and  C_17
REMARK    3  A    between atoms: N_2  and  C_4
REMARK    4  A    between atoms: N_2  and  C_15
REMARK    5  A    between atoms: C_4  and  C_6
REMARK    6  A    between atoms: C_6  and  C_7
REMARK    7  A    between atoms: C_12  and  O_13
REMARK    8  A    between atoms: C_17  and  C_18
REMARK    9  A    between atoms: C_18  and  C_19
REMARK   10  A    between atoms: C_19  and  O_20
REMARK   11  A    between atoms: O_20  and  C_22
REMARK   12  A    between atoms: C_22  and  C_23
REMARK   13  A    between atoms: C_26  and  O_29
REMARK   14  A    between atoms: C_28  and  O_31
REMARK                            x       y       z     vdW  Elec       q    Type
REMARK                         _______ _______ _______ _____ _____    ______ ____
ROOT
ATOM      1  C   UNL     1      37.615 -22.687 -16.124  0.00  0.00    -0.077 C 
ENDROOT
BRANCH   1   2
ATOM      2  N   UNL     1      37.013 -23.824 -15.436  0.00  0.00    +0.388 N 
ATOM      3  H   UNL     1      36.656 -24.470 -16.141  0.00  0.00    -0.080 HD
BRANCH   2   4
ATOM      4  C   UNL     1      35.897 -23.385 -14.597  0.00  0.00    -0.054 C 
ATOM      5  C   UNL     1      36.409 -23.218 -13.166  0.00  0.00    -0.023 C 
BRANCH   4   6
ATOM      6  C   UNL     1      34.747 -24.403 -14.697  0.00  0.00    +0.006 C 
BRANCH   6   7
ATOM      7  C   UNL     1      33.498 -23.842 -15.336  0.00  0.00    -0.024 C 
ATOM      8  C   UNL     1      33.495 -23.515 -16.691  0.00  0.00    -0.001 C 
ATOM      9  C   UNL     1      32.348 -23.653 -14.570  0.00  0.00    -0.001 C 
ATOM     10  C   UNL     1      32.341 -22.996 -17.281  0.00  0.00    +0.037 C 
ATOM     11  C   UNL     1      31.194 -23.136 -15.159  0.00  0.00    +0.037 C 
ATOM     12  C   UNL     1      31.191 -22.807 -16.515  0.00  0.00    +0.139 C 
BRANCH  12  13
ATOM     13  O   UNL     1      30.067 -22.302 -17.090  0.00  0.00    -0.471 OA
ATOM     14  C   UNL     1      28.815 -22.757 -16.578  0.00  0.00    +0.252 C 
ENDBRANCH  12  13
ENDBRANCH   6   7
ENDBRANCH   4   6
ENDBRANCH   2   4
BRANCH   2  15
ATOM     15  C   UNL     1      38.013 -24.524 -14.628  0.00  0.00    -0.077 C 
ATOM     16  C   UNL     1      37.973 -26.022 -14.882  0.00  0.00    -0.025 C 
ENDBRANCH   2  15
ENDBRANCH   1   2
BRANCH   1  17
ATOM     17  C   UNL     1      36.533 -21.829 -16.778  0.00  0.00    -0.019 C 
BRANCH  17  18
ATOM     18  C   UNL     1      36.817 -21.620 -18.265  0.00  0.00    +0.045 C 
BRANCH  18  19
ATOM     19  C   UNL     1      35.531 -21.566 -19.080  0.00  0.00    +0.209 C 
BRANCH  19  20
ATOM     20  O   UNL     1      35.518 -20.394 -19.883  0.00  0.00    -0.445 OA
BRANCH  20  22
ATOM     21  O   UNL     1      33.231 -20.507 -20.119  0.00  0.00    -0.245 OA
ATOM     22  C   UNL     1      34.323 -20.070 -20.449  0.00  0.00    +0.341 C 
BRANCH  22  23
ATOM     23  C   UNL     1      34.510 -19.092 -21.551  0.00  0.00    +0.079 C 
ATOM     24  C   UNL     1      34.456 -17.724 -21.286  0.00  0.00    +0.046 C 
ATOM     25  C   UNL     1      34.738 -19.542 -22.851  0.00  0.00    +0.010 C 
ATOM     26  C   UNL     1      34.631 -16.806 -22.321  0.00  0.00    +0.173 C 
ATOM     27  C   UNL     1      34.912 -18.625 -23.887  0.00  0.00    +0.040 C 
ATOM     28  C   UNL     1      34.859 -17.256 -23.622  0.00  0.00    +0.172 C 
BRANCH  26  29
ATOM     29  O   UNL     1      34.575 -15.472 -22.050  0.00  0.00    -0.468 OA
ATOM     30  C   UNL     1      34.502 -15.092 -20.678  0.00  0.00    +0.253 C 
ENDBRANCH  26  29
BRANCH  28  31
ATOM     31  O   UNL     1      35.032 -16.369 -24.641  0.00  0.00    -0.468 OA
ATOM     32  C   UNL     1      33.865 -15.975 -25.362  0.00  0.00    +0.253 C 
ENDBRANCH  28  31
ENDBRANCH  22  23
ENDBRANCH  20  22
ENDBRANCH  19  20
ENDBRANCH  18  19
ENDBRANCH  17  18
ENDBRANCH   1  17
TORSDOF 14
ENDMDL
MODEL 4
REMARK VINA RESULT:      -9.6      1.587      2.325
REMARK  Name = 4031
REMARK  14 active torsions:
REMARK  status: ('A' for Active; 'I' for Inactive)
REMARK    1  A    between atoms: C_1  and  N_2
REMARK    2  A    between atoms: C_1  and  C_17
REMARK    3  A    between atoms: N_2  and  C_4
REMARK    4  A    between atoms: N_2  and  C_15
REMARK    5  A    between atoms: C_4  and  C_6
REMARK    6  A    between atoms: C_6  and  C_7
REMARK    7  A    between atoms: C_12  and  O_13
REMARK    8  A    between atoms: C_17  and  C_18
REMARK    9  A    between atoms: C_18  and  C_19
REMARK   10  A    between atoms: C_19  and  O_20
REMARK   11  A    between atoms: O_20  and  C_22
REMARK   12  A    between atoms: C_22  and  C_23
REMARK   13  A    between atoms: C_26  and  O_29
REMARK   14  A    between atoms: C_28  and  O_31
REMARK                            x       y       z     vdW  Elec       q    Type
REMARK                         _______ _______ _______ _____ _____    ______ ____
ROOT
ATOM      1  C   UNL     1      35.306 -16.454 -23.351  0.00  0.00    -0.077 C 
ENDROOT
BRANCH   1   2
ATOM      2  N   UNL     1      35.155 -16.574 -21.905  0.00  0.00    +0.388 N 
ATOM      3  H   UNL     1      35.796 -15.916 -21.462  0.00  0.00    -0.080 HD
BRANCH   2   4
ATOM      4  C   UNL     1      35.494 -17.928 -21.462  0.00  0.00    -0.054 C 
ATOM      5  C   UNL     1      36.661 -18.432 -22.311  0.00  0.00    -0.023 C 
BRANCH   4   6
ATOM      6  C   UNL     1      34.252 -18.831 -21.570  0.00  0.00    +0.006 C 
BRANCH   6   7
ATOM      7  C   UNL     1      34.291 -20.024 -20.645  0.00  0.00    -0.024 C 
ATOM      8  C   UNL     1      33.105 -20.543 -20.126  0.00  0.00    -0.001 C 
ATOM      9  C   UNL     1      35.513 -20.607 -20.309  0.00  0.00    -0.001 C 
ATOM     10  C   UNL     1      33.141 -21.645 -19.271  0.00  0.00    +0.037 C 
ATOM     11  C   UNL     1      35.549 -21.709 -19.455  0.00  0.00    +0.037 C 
ATOM     12  C   UNL     1      34.363 -22.227 -18.935  0.00  0.00    +0.139 C 
BRANCH  12  13
ATOM     13  O   UNL     1      34.397 -23.302 -18.101  0.00  0.00    -0.471 OA
ATOM     14  C   UNL     1      33.712 -23.179 -16.856  0.00  0.00    +0.252 C 
ENDBRANCH  12  13
ENDBRANCH   6   7
ENDBRANCH   4   6
ENDBRANCH   2   4
BRANCH   2  15
ATOM     15  C   UNL     1      33.789 -16.235 -21.501  0.00  0.00    -0.077 C 
ATOM     16  C   UNL     1      33.778 -15.062 -20.535  0.00  0.00    -0.025 C 
ENDBRANCH   2  15
ENDBRANCH   1   2
BRANCH   1  17
ATOM     17  C   UNL     1      34.128 -15.683 -23.945  0.00  0.00    -0.019 C 
BRANCH  17  18
ATOM     18  C   UNL     1      33.707 -16.271 -25.291  0.00  0.00    +0.045 C 
BRANCH  18  19
ATOM     19  C   UNL     1      33.083 -15.214 -26.194  0.00  0.00    +0.209 C 
BRANCH  19  20
ATOM     20  O   UNL     1      33.219 -13.930 -25.602  0.00  0.00    -0.445 OA
BRANCH  20  22
ATOM     21  O   UNL     1      33.717 -12.993 -27.644  0.00  0.00    -0.245 OA
ATOM     22  C   UNL     1      33.636 -12.931 -26.427  0.00  0.00    +0.341 C 
BRANCH  22  23
ATOM     23  C   UNL     1      33.993 -11.719 -25.647  0.00  0.00    +0.079 C 
ATOM     24  C   UNL     1      33.249 -11.370 -24.520  0.00  0.00    +0.046 C 
ATOM     25  C   UNL     1      35.072 -10.928 -26.043  0.00  0.00    +0.010 C 
ATOM     26  C   UNL     1      33.584 -10.230 -23.789  0.00  0.00    +0.173 C 
ATOM     27  C   UNL     1      35.407  -9.788 -25.312  0.00  0.00    +0.040 C 
ATOM     28  C   UNL     1      34.663  -9.439 -24.185  0.00  0.00    +0.172 C 
BRANCH  26  29
ATOM     29  O   UNL     1      32.849  -9.899 -22.691  0.00  0.00    -0.468 OA
ATOM     30  C   UNL     1      31.629  -9.197 -22.915  0.00  0.00    +0.253 C 
ENDBRANCH  26  29
BRANCH  28  31
ATOM     31  O   UNL     1      35.000  -8.324 -23.478  0.00  0.00    -0.468 OA
ATOM     32  C   UNL     1      34.612  -7.067 -24.028  0.00  0.00    +0.253 C 
ENDBRANCH  28  31
ENDBRANCH  22  23
ENDBRANCH  20  22
ENDBRANCH  19  20
ENDBRANCH  18  19
ENDBRANCH  17  18
ENDBRANCH   1  17
TORSDOF 14
ENDMDL
MODEL 5
REMARK VINA RESULT:      -9.6      1.986     10.903
REMARK  Name = 4031
REMARK  14 active torsions:
REMARK  status: ('A' for Active; 'I' for Inactive)
REMARK    1  A    between atoms: C_1  and  N_2
REMARK    2  A    between atoms: C_1  and  C_17
REMARK    3  A    between atoms: N_2  and  C_4
REMARK    4  A    between atoms: N_2  and  C_15
REMARK    5  A    between atoms: C_4  and  C_6
REMARK    6  A    between atoms: C_6  and  C_7
REMARK    7  A    between atoms: C_12  and  O_13
REMARK    8  A    between atoms: C_17  and  C_18
REMARK    9  A    between atoms: C_18  and  C_19
REMARK   10  A    between atoms: C_19  and  O_20
REMARK   11  A    between atoms: O_20  and  C_22
REMARK   12  A    between atoms: C_22  and  C_23
REMARK   13  A    between atoms: C_26  and  O_29
REMARK   14  A    between atoms: C_28  and  O_31
REMARK                            x       y       z     vdW  Elec       q    Type
REMARK                         _______ _______ _______ _____ _____    ______ ____
ROOT
ATOM      1  C   UNL     1      33.226 -15.174 -22.778  0.00  0.00    -0.077 C 
ENDROOT
BRANCH   1   2
ATOM      2  N   UNL     1      33.826 -14.811 -24.057  0.00  0.00    +0.388 N 
ATOM      3  H   UNL     1      34.797 -14.546 -23.889  0.00  0.00    -0.080 HD
BRANCH   2   4
ATOM      4  C   UNL     1      33.127 -13.669 -24.649  0.00  0.00    -0.054 C 
ATOM      5  C   UNL     1      32.766 -14.022 -26.092  0.00  0.00    -0.023 C 
BRANCH   4   6
ATOM      6  C   UNL     1      34.014 -12.415 -24.552  0.00  0.00    +0.006 C 
BRANCH   6   7
ATOM      7  C   UNL     1      33.408 -11.308 -23.723  0.00  0.00    -0.024 C 
ATOM      8  C   UNL     1      32.385 -11.594 -22.819  0.00  0.00    -0.001 C 
ATOM      9  C   UNL     1      33.871 -10.000 -23.861  0.00  0.00    -0.001 C 
ATOM     10  C   UNL     1      31.825 -10.571 -22.053  0.00  0.00    +0.037 C 
ATOM     11  C   UNL     1      33.312  -8.977 -23.094  0.00  0.00    +0.037 C 
ATOM     12  C   UNL     1      32.288  -9.262 -22.191  0.00  0.00    +0.139 C 
BRANCH  12  13
ATOM     13  O   UNL     1      31.741  -8.265 -21.444  0.00  0.00    -0.471 OA
ATOM     14  C   UNL     1      32.486  -7.821 -20.311  0.00  0.00    +0.252 C 
ENDBRANCH  12  13
ENDBRANCH   6   7
ENDBRANCH   4   6
ENDBRANCH   2   4
BRANCH   2  15
ATOM     15  C   UNL     1      33.807 -15.950 -24.976  0.00  0.00    -0.077 C 
ATOM     16  C   UNL     1      35.016 -16.847 -24.763  0.00  0.00    -0.025 C 
ENDBRANCH   2  15
ENDBRANCH   1   2
BRANCH   1  17
ATOM     17  C   UNL     1      34.070 -14.636 -21.624  0.00  0.00    -0.019 C 
BRANCH  17  18
ATOM     18  C   UNL     1      34.804 -15.767 -20.904  0.00  0.00    +0.045 C 
BRANCH  18  19
ATOM     19  C   UNL     1      34.273 -17.133 -21.316  0.00  0.00    +0.209 C 
BRANCH  19  20
ATOM     20  O   UNL     1      35.128 -18.154 -20.821  0.00  0.00    -0.445 OA
BRANCH  20  22
ATOM     21  O   UNL     1      34.930 -19.657 -22.553  0.00  0.00    -0.245 OA
ATOM     22  C   UNL     1      34.959 -19.391 -21.361  0.00  0.00    +0.341 C 
BRANCH  22  23
ATOM     23  C   UNL     1      34.807 -20.415 -20.295  0.00  0.00    +0.079 C 
ATOM     24  C   UNL     1      35.929 -20.876 -19.606  0.00  0.00    +0.046 C 
ATOM     25  C   UNL     1      33.543 -20.916 -19.984  0.00  0.00    +0.010 C 
ATOM     26  C   UNL     1      35.786 -21.838 -18.606  0.00  0.00    +0.173 C 
ATOM     27  C   UNL     1      33.400 -21.878 -18.985  0.00  0.00    +0.040 C 
ATOM     28  C   UNL     1      34.521 -22.340 -18.295  0.00  0.00    +0.172 C 
BRANCH  26  29
ATOM     29  O   UNL     1      36.889 -22.282 -17.941  0.00  0.00    -0.468 OA
ATOM     30  C   UNL     1      37.188 -21.658 -16.694  0.00  0.00    +0.253 C 
ENDBRANCH  26  29
BRANCH  28  31
ATOM     31  O   UNL     1      34.370 -23.278 -17.320  0.00  0.00    -0.468 OA
ATOM     32  C   UNL     1      33.043 -23.520 -16.856  0.00  0.00    +0.253 C 
ENDBRANCH  28  31
ENDBRANCH  22  23
ENDBRANCH  20  22
ENDBRANCH  19  20
ENDBRANCH  18  19
ENDBRANCH  17  18
ENDBRANCH   1  17
TORSDOF 14
ENDMDL
MODEL 6
REMARK VINA RESULT:      -9.5      2.839     12.004
REMARK  Name = 4031
REMARK  14 active torsions:
REMARK  status: ('A' for Active; 'I' for Inactive)
REMARK    1  A    between atoms: C_1  and  N_2
REMARK    2  A    between atoms: C_1  and  C_17
REMARK    3  A    between atoms: N_2  and  C_4
REMARK    4  A    between atoms: N_2  and  C_15
REMARK    5  A    between atoms: C_4  and  C_6
REMARK    6  A    between atoms: C_6  and  C_7
REMARK    7  A    between atoms: C_12  and  O_13
REMARK    8  A    between atoms: C_17  and  C_18
REMARK    9  A    between atoms: C_18  and  C_19
REMARK   10  A    between atoms: C_19  and  O_20
REMARK   11  A    between atoms: O_20  and  C_22
REMARK   12  A    between atoms: C_22  and  C_23
REMARK   13  A    between atoms: C_26  and  O_29
REMARK   14  A    between atoms: C_28  and  O_31
REMARK                            x       y       z     vdW  Elec       q    Type
REMARK                         _______ _______ _______ _____ _____    ______ ____
ROOT
ATOM      1  C   UNL     1      34.514 -19.848 -21.476  0.00  0.00    -0.077 C 
ENDROOT
BRANCH   1   2
ATOM      2  N   UNL     1      35.011 -18.488 -21.653  0.00  0.00    +0.388 N 
ATOM      3  H   UNL     1      34.683 -17.925 -20.868  0.00  0.00    -0.080 HD
BRANCH   2   4
ATOM      4  C   UNL     1      34.492 -17.908 -22.893  0.00  0.00    -0.054 C 
ATOM      5  C   UNL     1      34.869 -18.832 -24.051  0.00  0.00    -0.023 C 
BRANCH   4   6
ATOM      6  C   UNL     1      35.051 -16.484 -23.067  0.00  0.00    +0.006 C 
BRANCH   6   7
ATOM      7  C   UNL     1      34.111 -15.403 -22.590  0.00  0.00    -0.024 C 
ATOM      8  C   UNL     1      33.767 -15.323 -21.241  0.00  0.00    -0.001 C 
ATOM      9  C   UNL     1      33.587 -14.484 -23.500  0.00  0.00    -0.001 C 
ATOM     10  C   UNL     1      32.898 -14.324 -20.801  0.00  0.00    +0.037 C 
ATOM     11  C   UNL     1      32.718 -13.485 -23.059  0.00  0.00    +0.037 C 
ATOM     12  C   UNL     1      32.374 -13.405 -21.711  0.00  0.00    +0.139 C 
BRANCH  12  13
ATOM     13  O   UNL     1      31.526 -12.431 -21.281  0.00  0.00    -0.471 OA
ATOM     14  C   UNL     1      31.462 -11.237 -22.059  0.00  0.00    +0.252 C 
ENDBRANCH  12  13
ENDBRANCH   6   7
ENDBRANCH   4   6
ENDBRANCH   2   4
BRANCH   2  15
ATOM     15  C   UNL     1      36.475 -18.472 -21.658  0.00  0.00    -0.077 C 
ATOM     16  C   UNL     1      37.038 -19.520 -20.712  0.00  0.00    -0.025 C 
ENDBRANCH   2  15
ENDBRANCH   1   2
BRANCH   1  17
ATOM     17  C   UNL     1      33.172 -19.832 -20.747  0.00  0.00    -0.019 C 
BRANCH  17  18
ATOM     18  C   UNL     1      33.097 -20.945 -19.703  0.00  0.00    +0.045 C 
BRANCH  18  19
ATOM     19  C   UNL     1      34.467 -21.553 -19.431  0.00  0.00    +0.209 C 
BRANCH  19  20
ATOM     20  O   UNL     1      34.320 -22.787 -18.743  0.00  0.00    -0.445 OA
BRANCH  20  22
ATOM     21  O   UNL     1      35.965 -22.583 -17.145  0.00  0.00    -0.245 OA
ATOM     22  C   UNL     1      34.815 -22.829 -17.476  0.00  0.00    +0.341 C 
BRANCH  22  23
ATOM     23  C   UNL     1      33.757 -23.221 -16.510  0.00  0.00    +0.079 C 
ATOM     24  C   UNL     1      34.098 -23.550 -15.198  0.00  0.00    +0.046 C 
ATOM     25  C   UNL     1      32.423 -23.262 -16.915  0.00  0.00    +0.010 C 
ATOM     26  C   UNL     1      33.104 -23.920 -14.292  0.00  0.00    +0.173 C 
ATOM     27  C   UNL     1      31.429 -23.633 -16.010  0.00  0.00    +0.040 C 
ATOM     28  C   UNL     1      31.769 -23.962 -14.697  0.00  0.00    +0.172 C 
BRANCH  26  29
ATOM     29  O   UNL     1      33.449 -24.241 -13.013  0.00  0.00    -0.468 OA
ATOM     30  C   UNL     1      34.840 -24.260 -12.704  0.00  0.00    +0.253 C 
ENDBRANCH  26  29
BRANCH  28  31
ATOM     31  O   UNL     1      30.790 -24.321 -13.821  0.00  0.00    -0.468 OA
ATOM     32  C   UNL     1      29.604 -24.889 -14.372  0.00  0.00    +0.253 C 
ENDBRANCH  28  31
ENDBRANCH  22  23
ENDBRANCH  20  22
ENDBRANCH  19  20
ENDBRANCH  18  19
ENDBRANCH  17  18
ENDBRANCH   1  17
TORSDOF 14
ENDMDL
MODEL 7
REMARK VINA RESULT:      -9.4      3.478     12.348
REMARK  Name = 4031
REMARK  14 active torsions:
REMARK  status: ('A' for Active; 'I' for Inactive)
REMARK    1  A    between atoms: C_1  and  N_2
REMARK    2  A    between atoms: C_1  and  C_17
REMARK    3  A    between atoms: N_2  and  C_4
REMARK    4  A    between atoms: N_2  and  C_15
REMARK    5  A    between atoms: C_4  and  C_6
REMARK    6  A    between atoms: C_6  and  C_7
REMARK    7  A    between atoms: C_12  and  O_13
REMARK    8  A    between atoms: C_17  and  C_18
REMARK    9  A    between atoms: C_18  and  C_19
REMARK   10  A    between atoms: C_19  and  O_20
REMARK   11  A    between atoms: O_20  and  C_22
REMARK   12  A    between atoms: C_22  and  C_23
REMARK   13  A    between atoms: C_26  and  O_29
REMARK   14  A    between atoms: C_28  and  O_31
REMARK                            x       y       z     vdW  Elec       q    Type
REMARK                         _______ _______ _______ _____ _____    ______ ____
ROOT
ATOM      1  C   UNL     1      34.612 -19.942 -21.445  0.00  0.00    -0.077 C 
ENDROOT
BRANCH   1   2
ATOM      2  N   UNL     1      35.035 -18.556 -21.612  0.00  0.00    +0.388 N 
ATOM      3  H   UNL     1      34.704 -18.023 -20.808  0.00  0.00    -0.080 HD
BRANCH   2   4
ATOM      4  C   UNL     1      34.449 -17.982 -22.825  0.00  0.00    -0.054 C 
ATOM      5  C   UNL     1      34.748 -18.920 -23.994  0.00  0.00    -0.023 C 
BRANCH   4   6
ATOM      6  C   UNL     1      35.010 -16.566 -23.046  0.00  0.00    +0.006 C 
BRANCH   6   7
ATOM      7  C   UNL     1      34.073 -15.469 -22.597  0.00  0.00    -0.024 C 
ATOM      8  C   UNL     1      33.790 -15.305 -21.242  0.00  0.00    -0.001 C 
ATOM      9  C   UNL     1      33.493 -14.619 -23.539  0.00  0.00    -0.001 C 
ATOM     10  C   UNL     1      32.924 -14.291 -20.828  0.00  0.00    +0.037 C 
ATOM     11  C   UNL     1      32.629 -13.605 -23.125  0.00  0.00    +0.037 C 
ATOM     12  C   UNL     1      32.344 -13.442 -21.770  0.00  0.00    +0.139 C 
BRANCH  12  13
ATOM     13  O   UNL     1      31.501 -12.453 -21.365  0.00  0.00    -0.471 OA
ATOM     14  C   UNL     1      31.551 -11.223 -22.085  0.00  0.00    +0.252 C 
ENDBRANCH  12  13
ENDBRANCH   6   7
ENDBRANCH   4   6
ENDBRANCH   2   4
BRANCH   2  15
ATOM     15  C   UNL     1      36.495 -18.466 -21.662  0.00  0.00    -0.077 C 
ATOM     16  C   UNL     1      37.137 -19.414 -20.662  0.00  0.00    -0.025 C 
ENDBRANCH   2  15
ENDBRANCH   1   2
BRANCH   1  17
ATOM     17  C   UNL     1      33.405 -20.020 -20.512  0.00  0.00    -0.019 C 
BRANCH  17  18
ATOM     18  C   UNL     1      33.456 -21.279 -19.648  0.00  0.00    +0.045 C 
BRANCH  18  19
ATOM     19  C   UNL     1      34.887 -21.754 -19.431  0.00  0.00    +0.209 C 
BRANCH  19  20
ATOM     20  O   UNL     1      35.001 -22.377 -18.159  0.00  0.00    -0.445 OA
BRANCH  20  22
ATOM     21  O   UNL     1      36.919 -21.185 -17.712  0.00  0.00    -0.245 OA
ATOM     22  C   UNL     1      36.094 -22.038 -17.422  0.00  0.00    +0.341 C 
BRANCH  22  23
ATOM     23  C   UNL     1      36.168 -22.854 -16.184  0.00  0.00    +0.079 C 
ATOM     24  C   UNL     1      37.409 -23.198 -15.649  0.00  0.00    +0.046 C 
ATOM     25  C   UNL     1      34.997 -23.278 -15.556  0.00  0.00    +0.010 C 
ATOM     26  C   UNL     1      37.479 -23.966 -14.486  0.00  0.00    +0.173 C 
ATOM     27  C   UNL     1      35.066 -24.046 -14.394  0.00  0.00    +0.040 C 
ATOM     28  C   UNL     1      36.307 -24.390 -13.858  0.00  0.00    +0.172 C 
BRANCH  26  29
ATOM     29  O   UNL     1      38.697 -24.296 -13.973  0.00  0.00    -0.468 OA
ATOM     30  C   UNL     1      39.465 -25.256 -14.696  0.00  0.00    +0.253 C 
ENDBRANCH  26  29
BRANCH  28  31
ATOM     31  O   UNL     1      36.363 -25.139 -12.722  0.00  0.00    -0.468 OA
ATOM     32  C   UNL     1      35.717 -24.610 -11.566  0.00  0.00    +0.253 C 
ENDBRANCH  28  31
ENDBRANCH  22  23
ENDBRANCH  20  22
ENDBRANCH  19  20
ENDBRANCH  18  19
ENDBRANCH  17  18
ENDBRANCH   1  17
TORSDOF 14
ENDMDL
MODEL 8
REMARK VINA RESULT:      -9.4      3.520     12.553
REMARK  Name = 4031
REMARK  14 active torsions:
REMARK  status: ('A' for Active; 'I' for Inactive)
REMARK    1  A    between atoms: C_1  and  N_2
REMARK    2  A    between atoms: C_1  and  C_17
REMARK    3  A    between atoms: N_2  and  C_4
REMARK    4  A    between atoms: N_2  and  C_15
REMARK    5  A    between atoms: C_4  and  C_6
REMARK    6  A    between atoms: C_6  and  C_7
REMARK    7  A    between atoms: C_12  and  O_13
REMARK    8  A    between atoms: C_17  and  C_18
REMARK    9  A    between atoms: C_18  and  C_19
REMARK   10  A    between atoms: C_19  and  O_20
REMARK   11  A    between atoms: O_20  and  C_22
REMARK   12  A    between atoms: C_22  and  C_23
REMARK   13  A    between atoms: C_26  and  O_29
REMARK   14  A    between atoms: C_28  and  O_31
REMARK                            x       y       z     vdW  Elec       q    Type
REMARK                         _______ _______ _______ _____ _____    ______ ____
ROOT
ATOM      1  C   UNL     1      36.034 -19.899 -20.432  0.00  0.00    -0.077 C 
ENDROOT
BRANCH   1   2
ATOM      2  N   UNL     1      34.784 -20.090 -21.158  0.00  0.00    +0.388 N 
ATOM      3  H   UNL     1      34.872 -20.931 -21.729  0.00  0.00    -0.080 HD
BRANCH   2   4
ATOM      4  C   UNL     1      34.522 -18.952 -22.041  0.00  0.00    -0.054 C 
ATOM      5  C   UNL     1      35.047 -19.294 -23.435  0.00  0.00    -0.023 C 
BRANCH   4   6
ATOM      6  C   UNL     1      35.177 -17.688 -21.457  0.00  0.00    +0.006 C 
BRANCH   6   7
ATOM      7  C   UNL     1      34.439 -16.414 -21.796  0.00  0.00    -0.024 C 
ATOM      8  C   UNL     1      34.807 -15.671 -22.917  0.00  0.00    -0.001 C 
ATOM      9  C   UNL     1      33.388 -15.981 -20.987  0.00  0.00    -0.001 C 
ATOM     10  C   UNL     1      34.126 -14.494 -23.229  0.00  0.00    +0.037 C 
ATOM     11  C   UNL     1      32.706 -14.805 -21.300  0.00  0.00    +0.037 C 
ATOM     12  C   UNL     1      33.075 -14.061 -22.421  0.00  0.00    +0.139 C 
BRANCH  12  13
ATOM     13  O   UNL     1      32.410 -12.914 -22.726  0.00  0.00    -0.471 OA
ATOM     14  C   UNL     1      31.748 -12.243 -21.655  0.00  0.00    +0.252 C 
ENDBRANCH  12  13
ENDBRANCH   6   7
ENDBRANCH   4   6
ENDBRANCH   2   4
BRANCH   2  15
ATOM     15  C   UNL     1      33.671 -20.277 -20.225  0.00  0.00    -0.077 C 
ATOM     16  C   UNL     1      32.358 -19.819 -20.839  0.00  0.00    -0.025 C 
ENDBRANCH   2  15
ENDBRANCH   1   2
BRANCH   1  17
ATOM     17  C   UNL     1      36.621 -21.249 -20.021  0.00  0.00    -0.019 C 
BRANCH  17  18
ATOM     18  C   UNL     1      36.119 -21.674 -18.643  0.00  0.00    +0.045 C 
BRANCH  18  19
ATOM     19  C   UNL     1      37.166 -21.432 -17.564  0.00  0.00    +0.209 C 
BRANCH  19  20
ATOM     20  O   UNL     1      36.568 -21.530 -16.279  0.00  0.00    -0.445 OA
BRANCH  20  22
ATOM     21  O   UNL     1      38.020 -23.097 -15.420  0.00  0.00    -0.245 OA
ATOM     22  C   UNL     1      36.898 -22.629 -15.547  0.00  0.00    +0.341 C 
BRANCH  22  23
ATOM     23  C   UNL     1      35.695 -23.212 -14.901  0.00  0.00    +0.079 C 
ATOM     24  C   UNL     1      35.780 -23.729 -13.608  0.00  0.00    +0.046 C 
ATOM     25  C   UNL     1      34.481 -23.244 -15.586  0.00  0.00    +0.010 C 
ATOM     26  C   UNL     1      34.649 -24.278 -13.001  0.00  0.00    +0.173 C 
ATOM     27  C   UNL     1      33.351 -23.793 -14.981  0.00  0.00    +0.040 C 
ATOM     28  C   UNL     1      33.435 -24.310 -13.687  0.00  0.00    +0.172 C 
BRANCH  26  29
ATOM     29  O   UNL     1      34.744 -24.781 -11.739  0.00  0.00    -0.468 OA
ATOM     30  C   UNL     1      35.846 -24.341 -10.947  0.00  0.00    +0.253 C 
ENDBRANCH  26  29
BRANCH  28  31
ATOM     31  O   UNL     1      32.325 -24.842 -13.105  0.00  0.00    -0.468 OA
ATOM     32  C   UNL     1      31.201 -25.080 -13.950  0.00  0.00    +0.253 C 
ENDBRANCH  28  31
ENDBRANCH  22  23
ENDBRANCH  20  22
ENDBRANCH  19  20
ENDBRANCH  18  19
ENDBRANCH  17  18
ENDBRANCH   1  17
TORSDOF 14
ENDMDL
MODEL 9
REMARK VINA RESULT:      -9.3      1.952     10.992
REMARK  Name = 4031
REMARK  14 active torsions:
REMARK  status: ('A' for Active; 'I' for Inactive)
REMARK    1  A    between atoms: C_1  and  N_2
REMARK    2  A    between atoms: C_1  and  C_17
REMARK    3  A    between atoms: N_2  and  C_4
REMARK    4  A    between atoms: N_2  and  C_15
REMARK    5  A    between atoms: C_4  and  C_6
REMARK    6  A    between atoms: C_6  and  C_7
REMARK    7  A    between atoms: C_12  and  O_13
REMARK    8  A    between atoms: C_17  and  C_18
REMARK    9  A    between atoms: C_18  and  C_19
REMARK   10  A    between atoms: C_19  and  O_20
REMARK   11  A    between atoms: O_20  and  C_22
REMARK   12  A    between atoms: C_22  and  C_23
REMARK   13  A    between atoms: C_26  and  O_29
REMARK   14  A    between atoms: C_28  and  O_31
REMARK                            x       y       z     vdW  Elec       q    Type
REMARK                         _______ _______ _______ _____ _____    ______ ____
ROOT
ATOM      1  C   UNL     1      33.025 -14.091 -23.520  0.00  0.00    -0.077 C 
ENDROOT
BRANCH   1   2
ATOM      2  N   UNL     1      33.681 -13.936 -24.813  0.00  0.00    +0.388 N 
ATOM      3  H   UNL     1      34.690 -13.961 -24.663  0.00  0.00    -0.080 HD
BRANCH   2   4
ATOM      4  C   UNL     1      33.331 -12.649 -25.417  0.00  0.00    -0.054 C 
ATOM      5  C   UNL     1      33.030 -12.879 -26.898  0.00  0.00    -0.023 C 
BRANCH   4   6
ATOM      6  C   UNL     1      34.480 -11.649 -25.197  0.00  0.00    +0.006 C 
BRANCH   6   7
ATOM      7  C   UNL     1      34.089 -10.456 -24.356  0.00  0.00    -0.024 C 
ATOM      8  C   UNL     1      32.934 -10.501 -23.575  0.00  0.00    -0.001 C 
ATOM      9  C   UNL     1      34.884  -9.310 -24.360  0.00  0.00    -0.001 C 
ATOM     10  C   UNL     1      32.573  -9.399 -22.799  0.00  0.00    +0.037 C 
ATOM     11  C   UNL     1      34.523  -8.208 -23.583  0.00  0.00    +0.037 C 
ATOM     12  C   UNL     1      33.368  -8.253 -22.803  0.00  0.00    +0.139 C 
BRANCH  12  13
ATOM     13  O   UNL     1      33.016  -7.179 -22.046  0.00  0.00    -0.471 OA
ATOM     14  C   UNL     1      31.643  -6.791 -22.068  0.00  0.00    +0.252 C 
ENDBRANCH  12  13
ENDBRANCH   6   7
ENDBRANCH   4   6
ENDBRANCH   2   4
BRANCH   2  15
ATOM     15  C   UNL     1      33.317 -15.034 -25.710  0.00  0.00    -0.077 C 
ATOM     16  C   UNL     1      34.029 -16.320 -25.321  0.00  0.00    -0.025 C 
ENDBRANCH   2  15
ENDBRANCH   1   2
BRANCH   1  17
ATOM     17  C   UNL     1      34.056 -14.055 -22.393  0.00  0.00    -0.019 C 
BRANCH  17  18
ATOM     18  C   UNL     1      33.773 -15.135 -21.350  0.00  0.00    +0.045 C 
BRANCH  18  19
ATOM     19  C   UNL     1      34.863 -16.198 -21.333  0.00  0.00    +0.209 C 
BRANCH  19  20
ATOM     20  O   UNL     1      34.332 -17.427 -20.855  0.00  0.00    -0.445 OA
BRANCH  20  22
ATOM     21  O   UNL     1      35.045 -18.557 -22.729  0.00  0.00    -0.245 OA
ATOM     22  C   UNL     1      34.655 -18.538 -21.571  0.00  0.00    +0.341 C 
BRANCH  22  23
ATOM     23  C   UNL     1      34.469 -19.764 -20.755  0.00  0.00    +0.079 C 
ATOM     24  C   UNL     1      35.573 -20.391 -20.178  0.00  0.00    +0.046 C 
ATOM     25  C   UNL     1      33.191 -20.289 -20.565  0.00  0.00    +0.010 C 
ATOM     26  C   UNL     1      35.399 -21.544 -19.411  0.00  0.00    +0.173 C 
ATOM     27  C   UNL     1      33.016 -21.441 -19.799  0.00  0.00    +0.040 C 
ATOM     28  C   UNL     1      34.120 -22.069 -19.222  0.00  0.00    +0.172 C 
BRANCH  26  29
ATOM     29  O   UNL     1      36.485 -22.148 -18.853  0.00  0.00    -0.468 OA
ATOM     30  C   UNL     1      36.852 -21.736 -17.539  0.00  0.00    +0.253 C 
ENDBRANCH  26  29
BRANCH  28  31
ATOM     31  O   UNL     1      33.938 -23.193 -18.475  0.00  0.00    -0.468 OA
ATOM     32  C   UNL     1      33.219 -23.047 -17.251  0.00  0.00    +0.253 C 
ENDBRANCH  28  31
ENDBRANCH  22  23
ENDBRANCH  20  22
ENDBRANCH  19  20
ENDBRANCH  18  19
ENDBRANCH  17  18
ENDBRANCH   1  17
TORSDOF 14
ENDMDL
