MODEL 1
REMARK VINA RESULT:      -6.3      0.000      0.000
REMARK  Name = 5288724
REMARK  6 active torsions:
REMARK  status: ('A' for Active; 'I' for Inactive)
REMARK    1  A    between atoms: C_2  and  S_7
REMARK    2  A    between atoms: C_3  and  O_9
REMARK    3  A    between atoms: C_4  and  C_15
REMARK    4  A    between atoms: C_5  and  O_11
REMARK    5  A    between atoms: C_6  and  O_13
REMARK    6  A    between atoms: C_15  and  O_16
REMARK                            x       y       z     vdW  Elec       q    Type
REMARK                         _______ _______ _______ _____ _____    ______ ____
ROOT
ATOM      1  O   UNL     1      37.292 -25.302 -11.950  0.00  0.00    -0.328 OA
ATOM      2  C   UNL     1      35.723 -25.062 -13.810  0.00  0.00    +0.107 C 
ATOM      3  C   UNL     1      36.777 -25.627 -14.777  0.00  0.00    +0.155 C 
ATOM      4  C   UNL     1      36.377 -24.394 -12.586  0.00  0.00    +0.159 C 
ATOM      5  C   UNL     1      37.800 -26.470 -14.014  0.00  0.00    +0.195 C 
ATOM      6  C   UNL     1      38.357 -25.728 -12.800  0.00  0.00    +0.262 C 
ENDROOT
BRANCH   2   7
ATOM      7  S   UNL     1      34.636 -23.894 -14.715  0.00  0.00    -0.135 S 
ATOM      8  C   UNL     1      35.927 -22.823 -15.379  0.00  0.00    +0.069 C 
ENDBRANCH   2   7
BRANCH   3   9
ATOM      9  O   UNL     1      36.149 -26.477 -15.739  0.00  0.00    -0.381 OA
ATOM     10  H   UNL     1      36.640 -27.311 -15.801  0.00  0.00    +0.210 HD
ENDBRANCH   3   9
BRANCH   5  11
ATOM     11  O   UNL     1      38.858 -26.838 -14.892  0.00  0.00    -0.378 OA
ATOM     12  H   UNL     1      38.864 -26.244 -15.659  0.00  0.00    +0.211 HD
ENDBRANCH   5  11
BRANCH   6  13
ATOM     13  O   UNL     1      39.227 -24.657 -13.160  0.00  0.00    -0.358 OA
ATOM     14  H   UNL     1      39.871 -24.511 -12.450  0.00  0.00    +0.213 HD
ENDBRANCH   6  13
BRANCH   4  15
ATOM     15  C   UNL     1      35.367 -23.997 -11.510  0.00  0.00    +0.168 C 
BRANCH  15  16
ATOM     16  O   UNL     1      35.331 -25.018 -10.530  0.00  0.00    -0.379 OA
ATOM     17  H   UNL     1      35.018 -24.649  -9.690  0.00  0.00    +0.211 HD
ENDBRANCH  15  16
ENDBRANCH   4  15
TORSDOF 6
ENDMDL
MODEL 2
REMARK VINA RESULT:      -6.1      2.000      3.783
REMARK  Name = 5288724
REMARK  6 active torsions:
REMARK  status: ('A' for Active; 'I' for Inactive)
REMARK    1  A    between atoms: C_2  and  S_7
REMARK    2  A    between atoms: C_3  and  O_9
REMARK    3  A    between atoms: C_4  and  C_15
REMARK    4  A    between atoms: C_5  and  O_11
REMARK    5  A    between atoms: C_6  and  O_13
REMARK    6  A    between atoms: C_15  and  O_16
REMARK                            x       y       z     vdW  Elec       q    Type
REMARK                         _______ _______ _______ _____ _____    ______ ____
ROOT
ATOM      1  O   UNL     1      37.497 -22.760 -12.865  0.00  0.00    -0.328 OA
ATOM      2  C   UNL     1      35.709 -24.048 -13.926  0.00  0.00    +0.107 C 
ATOM      3  C   UNL     1      35.321 -24.641 -12.561  0.00  0.00    +0.155 C 
ATOM      4  C   UNL     1      37.193 -23.636 -13.964  0.00  0.00    +0.159 C 
ATOM      5  C   UNL     1      35.797 -23.727 -11.430  0.00  0.00    +0.195 C 
ATOM      6  C   UNL     1      37.269 -23.350 -11.585  0.00  0.00    +0.262 C 
ENDROOT
BRANCH   2   7
ATOM      7  S   UNL     1      35.311 -25.257 -15.246  0.00  0.00    -0.135 S 
ATOM      8  C   UNL     1      36.688 -26.389 -14.964  0.00  0.00    +0.069 C 
ENDBRANCH   2   7
BRANCH   3   9
ATOM      9  O   UNL     1      33.899 -24.745 -12.461  0.00  0.00    -0.381 OA
ATOM     10  H   UNL     1      33.553 -25.197 -13.247  0.00  0.00    +0.210 HD
ENDBRANCH   3   9
BRANCH   5  11
ATOM     11  O   UNL     1      35.584 -24.373 -10.179  0.00  0.00    -0.378 OA
ATOM     12  H   UNL     1      35.286 -25.283 -10.331  0.00  0.00    +0.211 HD
ENDBRANCH   5  11
BRANCH   6  13
ATOM     13  O   UNL     1      38.148 -24.443 -11.326  0.00  0.00    -0.358 OA
ATOM     14  H   UNL     1      38.837 -24.473 -12.009  0.00  0.00    +0.213 HD
ENDBRANCH   6  13
BRANCH   4  15
ATOM     15  C   UNL     1      37.568 -22.865 -15.228  0.00  0.00    +0.168 C 
BRANCH  15  16
ATOM     16  O   UNL     1      38.681 -23.502 -15.827  0.00  0.00    -0.379 OA
ATOM     17  H   UNL     1      39.089 -24.107 -15.189  0.00  0.00    +0.211 HD
ENDBRANCH  15  16
ENDBRANCH   4  15
TORSDOF 6
ENDMDL
MODEL 3
REMARK VINA RESULT:      -5.9      1.861      3.197
REMARK  Name = 5288724
REMARK  6 active torsions:
REMARK  status: ('A' for Active; 'I' for Inactive)
REMARK    1  A    between atoms: C_2  and  S_7
REMARK    2  A    between atoms: C_3  and  O_9
REMARK    3  A    between atoms: C_4  and  C_15
REMARK    4  A    between atoms: C_5  and  O_11
REMARK    5  A    between atoms: C_6  and  O_13
REMARK    6  A    between atoms: C_15  and  O_16
REMARK                            x       y       z     vdW  Elec       q    Type
REMARK                         _______ _______ _______ _____ _____    ______ ____
ROOT
ATOM      1  O   UNL     1      36.022 -25.070 -15.515  0.00  0.00    -0.328 OA
ATOM      2  C   UNL     1      37.070 -23.936 -13.618  0.00  0.00    +0.107 C 
ATOM      3  C   UNL     1      38.076 -25.090 -13.480  0.00  0.00    +0.155 C 
ATOM      4  C   UNL     1      35.754 -24.406 -14.269  0.00  0.00    +0.159 C 
ATOM      5  C   UNL     1      38.210 -25.841 -14.806  0.00  0.00    +0.195 C 
ATOM      6  C   UNL     1      36.848 -26.226 -15.380  0.00  0.00    +0.262 C 
ENDROOT
BRANCH   2   7
ATOM      7  S   UNL     1      36.776 -23.188 -11.970  0.00  0.00    -0.135 S 
ATOM      8  C   UNL     1      35.790 -24.525 -11.266  0.00  0.00    +0.069 C 
ENDBRANCH   2   7
BRANCH   3   9
ATOM      9  O   UNL     1      39.366 -24.573 -13.145  0.00  0.00    -0.381 OA
ATOM     10  H   UNL     1      39.563 -24.775 -12.217  0.00  0.00    +0.210 HD
ENDBRANCH   3   9
BRANCH   5  11
ATOM     11  O   UNL     1      39.008 -27.003 -14.613  0.00  0.00    -0.378 OA
ATOM     12  H   UNL     1      38.454 -27.794 -14.697  0.00  0.00    +0.211 HD
ENDBRANCH   5  11
BRANCH   6  13
ATOM     13  O   UNL     1      36.211 -27.265 -14.640  0.00  0.00    -0.358 OA
ATOM     14  H   UNL     1      36.626 -28.115 -14.853  0.00  0.00    +0.213 HD
ENDBRANCH   6  13
BRANCH   4  15
ATOM     15  C   UNL     1      34.807 -23.255 -14.603  0.00  0.00    +0.168 C 
BRANCH  15  16
ATOM     16  O   UNL     1      33.636 -23.397 -13.820  0.00  0.00    -0.379 OA
ATOM     17  H   UNL     1      33.180 -22.544 -13.763  0.00  0.00    +0.211 HD
ENDBRANCH  15  16
ENDBRANCH   4  15
TORSDOF 6
ENDMDL
MODEL 4
REMARK VINA RESULT:      -5.9      2.365      4.316
REMARK  Name = 5288724
REMARK  6 active torsions:
REMARK  status: ('A' for Active; 'I' for Inactive)
REMARK    1  A    between atoms: C_2  and  S_7
REMARK    2  A    between atoms: C_3  and  O_9
REMARK    3  A    between atoms: C_4  and  C_15
REMARK    4  A    between atoms: C_5  and  O_11
REMARK    5  A    between atoms: C_6  and  O_13
REMARK    6  A    between atoms: C_15  and  O_16
REMARK                            x       y       z     vdW  Elec       q    Type
REMARK                         _______ _______ _______ _____ _____    ______ ____
ROOT
ATOM      1  O   UNL     1      35.728 -24.324 -15.838  0.00  0.00    -0.328 OA
ATOM      2  C   UNL     1      33.921 -23.487 -14.418  0.00  0.00    +0.107 C 
ATOM      3  C   UNL     1      34.425 -24.358 -13.256  0.00  0.00    +0.155 C 
ATOM      4  C   UNL     1      34.312 -24.082 -15.784  0.00  0.00    +0.159 C 
ATOM      5  C   UNL     1      35.906 -24.694 -13.447  0.00  0.00    +0.195 C 
ATOM      6  C   UNL     1      36.188 -25.241 -14.845  0.00  0.00    +0.262 C 
ENDROOT
BRANCH   2   7
ATOM      7  S   UNL     1      32.106 -23.274 -14.270  0.00  0.00    -0.135 S 
ATOM      8  C   UNL     1      31.679 -25.000 -13.967  0.00  0.00    +0.069 C 
ENDBRANCH   2   7
BRANCH   3   9
ATOM      9  O   UNL     1      34.301 -23.646 -12.023  0.00  0.00    -0.381 OA
ATOM     10  H   UNL     1      34.074 -24.267 -11.313  0.00  0.00    +0.210 HD
ENDBRANCH   3   9
BRANCH   5  11
ATOM     11  O   UNL     1      36.307 -25.639 -12.460  0.00  0.00    -0.378 OA
ATOM     12  H   UNL     1      37.271 -25.608 -12.356  0.00  0.00    +0.211 HD
ENDBRANCH   5  11
BRANCH   6  13
ATOM     13  O   UNL     1      35.671 -26.556 -15.038  0.00  0.00    -0.358 OA
ATOM     14  H   UNL     1      35.719 -27.048 -14.204  0.00  0.00    +0.213 HD
ENDBRANCH   6  13
BRANCH   4  15
ATOM     15  C   UNL     1      34.002 -23.149 -16.954  0.00  0.00    +0.168 C 
BRANCH  15  16
ATOM     16  O   UNL     1      35.225 -22.763 -17.554  0.00  0.00    -0.379 OA
ATOM     17  H   UNL     1      35.280 -21.795 -17.581  0.00  0.00    +0.211 HD
ENDBRANCH  15  16
ENDBRANCH   4  15
TORSDOF 6
ENDMDL
MODEL 5
REMARK VINA RESULT:      -5.9      2.679      4.069
REMARK  Name = 5288724
REMARK  6 active torsions:
REMARK  status: ('A' for Active; 'I' for Inactive)
REMARK    1  A    between atoms: C_2  and  S_7
REMARK    2  A    between atoms: C_3  and  O_9
REMARK    3  A    between atoms: C_4  and  C_15
REMARK    4  A    between atoms: C_5  and  O_11
REMARK    5  A    between atoms: C_6  and  O_13
REMARK    6  A    between atoms: C_15  and  O_16
REMARK                            x       y       z     vdW  Elec       q    Type
REMARK                         _______ _______ _______ _____ _____    ______ ____
ROOT
ATOM      1  O   UNL     1      33.891 -23.976 -12.631  0.00  0.00    -0.328 OA
ATOM      2  C   UNL     1      35.813 -24.036 -14.144  0.00  0.00    +0.107 C 
ATOM      3  C   UNL     1      34.864 -24.055 -15.354  0.00  0.00    +0.155 C 
ATOM      4  C   UNL     1      35.144 -24.632 -12.890  0.00  0.00    +0.159 C 
ATOM      5  C   UNL     1      33.503 -23.469 -14.972  0.00  0.00    +0.195 C 
ATOM      6  C   UNL     1      32.950 -24.103 -13.697  0.00  0.00    +0.262 C 
ENDROOT
BRANCH   2   7
ATOM      7  S   UNL     1      37.357 -24.926 -14.571  0.00  0.00    -0.135 S 
ATOM      8  C   UNL     1      36.604 -26.460 -15.151  0.00  0.00    +0.069 C 
ENDBRANCH   2   7
BRANCH   3   9
ATOM      9  O   UNL     1      35.400 -23.249 -16.405  0.00  0.00    -0.381 OA
ATOM     10  H   UNL     1      35.119 -22.329 -16.282  0.00  0.00    +0.210 HD
ENDBRANCH   3   9
BRANCH   5  11
ATOM     11  O   UNL     1      32.590 -23.654 -16.048  0.00  0.00    -0.378 OA
ATOM     12  H   UNL     1      31.878 -24.250 -15.770  0.00  0.00    +0.211 HD
ENDBRANCH   5  11
BRANCH   6  13
ATOM     13  O   UNL     1      32.527 -25.451 -13.890  0.00  0.00    -0.358 OA
ATOM     14  H   UNL     1      32.168 -25.800 -13.059  0.00  0.00    +0.213 HD
ENDBRANCH   6  13
BRANCH   4  15
ATOM     15  C   UNL     1      35.979 -24.452 -11.624  0.00  0.00    +0.168 C 
BRANCH  15  16
ATOM     16  O   UNL     1      35.295 -25.063 -10.546  0.00  0.00    -0.379 OA
ATOM     17  H   UNL     1      34.774 -25.811 -10.876  0.00  0.00    +0.211 HD
ENDBRANCH  15  16
ENDBRANCH   4  15
TORSDOF 6
ENDMDL
MODEL 6
REMARK VINA RESULT:      -5.9      2.281      4.501
REMARK  Name = 5288724
REMARK  6 active torsions:
REMARK  status: ('A' for Active; 'I' for Inactive)
REMARK    1  A    between atoms: C_2  and  S_7
REMARK    2  A    between atoms: C_3  and  O_9
REMARK    3  A    between atoms: C_4  and  C_15
REMARK    4  A    between atoms: C_5  and  O_11
REMARK    5  A    between atoms: C_6  and  O_13
REMARK    6  A    between atoms: C_15  and  O_16
REMARK                            x       y       z     vdW  Elec       q    Type
REMARK                         _______ _______ _______ _____ _____    ______ ____
ROOT
ATOM      1  O   UNL     1      35.422 -24.999 -15.389  0.00  0.00    -0.328 OA
ATOM      2  C   UNL     1      36.359 -25.332 -13.155  0.00  0.00    +0.107 C 
ATOM      3  C   UNL     1      35.277 -24.417 -12.560  0.00  0.00    +0.155 C 
ATOM      4  C   UNL     1      36.642 -24.991 -14.630  0.00  0.00    +0.159 C 
ATOM      5  C   UNL     1      34.060 -24.361 -13.485  0.00  0.00    +0.195 C 
ATOM      6  C   UNL     1      34.457 -24.053 -14.928  0.00  0.00    +0.262 C 
ENDROOT
BRANCH   2   7
ATOM      7  S   UNL     1      37.878 -25.218 -12.133  0.00  0.00    -0.135 S 
ATOM      8  C   UNL     1      37.913 -23.424 -11.946  0.00  0.00    +0.069 C 
ENDBRANCH   2   7
BRANCH   3   9
ATOM      9  O   UNL     1      34.839 -24.934 -11.302  0.00  0.00    -0.381 OA
ATOM     10  H   UNL     1      35.211 -25.820 -11.170  0.00  0.00    +0.210 HD
ENDBRANCH   3   9
BRANCH   5  11
ATOM     11  O   UNL     1      33.147 -23.379 -13.006  0.00  0.00    -0.378 OA
ATOM     12  H   UNL     1      33.582 -22.834 -12.333  0.00  0.00    +0.211 HD
ENDBRANCH   5  11
BRANCH   6  13
ATOM     13  O   UNL     1      34.890 -22.706 -15.105  0.00  0.00    -0.358 OA
ATOM     14  H   UNL     1      34.489 -22.145 -14.423  0.00  0.00    +0.213 HD
ENDBRANCH   6  13
BRANCH   4  15
ATOM     15  C   UNL     1      37.565 -26.000 -15.312  0.00  0.00    +0.168 C 
BRANCH  15  16
ATOM     16  O   UNL     1      36.766 -26.925 -16.027  0.00  0.00    -0.379 OA
ATOM     17  H   UNL     1      36.983 -27.827 -15.743  0.00  0.00    +0.211 HD
ENDBRANCH  15  16
ENDBRANCH   4  15
TORSDOF 6
ENDMDL
MODEL 7
REMARK VINA RESULT:      -5.8      1.866      3.787
REMARK  Name = 5288724
REMARK  6 active torsions:
REMARK  status: ('A' for Active; 'I' for Inactive)
REMARK    1  A    between atoms: C_2  and  S_7
REMARK    2  A    between atoms: C_3  and  O_9
REMARK    3  A    between atoms: C_4  and  C_15
REMARK    4  A    between atoms: C_5  and  O_11
REMARK    5  A    between atoms: C_6  and  O_13
REMARK    6  A    between atoms: C_15  and  O_16
REMARK                            x       y       z     vdW  Elec       q    Type
REMARK                         _______ _______ _______ _____ _____    ______ ____
ROOT
ATOM      1  O   UNL     1      38.760 -25.873 -13.360  0.00  0.00    -0.328 OA
ATOM      2  C   UNL     1      37.729 -23.772 -14.070  0.00  0.00    +0.107 C 
ATOM      3  C   UNL     1      36.528 -24.047 -13.151  0.00  0.00    +0.155 C 
ATOM      4  C   UNL     1      38.418 -25.078 -14.508  0.00  0.00    +0.159 C 
ATOM      5  C   UNL     1      36.925 -25.009 -12.030  0.00  0.00    +0.195 C 
ATOM      6  C   UNL     1      37.632 -26.250 -12.571  0.00  0.00    +0.262 C 
ENDROOT
BRANCH   2   7
ATOM      7  S   UNL     1      37.174 -22.786 -15.513  0.00  0.00    -0.135 S 
ATOM      8  C   UNL     1      35.552 -23.547 -15.720  0.00  0.00    +0.069 C 
ENDBRANCH   2   7
BRANCH   3   9
ATOM      9  O   UNL     1      36.093 -22.830 -12.540  0.00  0.00    -0.381 OA
ATOM     10  H   UNL     1      36.411 -22.797 -11.624  0.00  0.00    +0.210 HD
ENDBRANCH   3   9
BRANCH   5  11
ATOM     11  O   UNL     1      35.764 -25.386 -11.296  0.00  0.00    -0.378 OA
ATOM     12  H   UNL     1      36.014 -25.998 -10.587  0.00  0.00    +0.211 HD
ENDBRANCH   5  11
BRANCH   6  13
ATOM     13  O   UNL     1      36.750 -27.128 -13.268  0.00  0.00    -0.358 OA
ATOM     14  H   UNL     1      35.925 -26.661 -13.473  0.00  0.00    +0.213 HD
ENDBRANCH   6  13
BRANCH   4  15
ATOM     15  C   UNL     1      39.728 -24.842 -15.258  0.00  0.00    +0.168 C 
BRANCH  15  16
ATOM     16  O   UNL     1      40.235 -26.094 -15.680  0.00  0.00    -0.379 OA
ATOM     17  H   UNL     1      39.675 -26.804 -15.330  0.00  0.00    +0.211 HD
ENDBRANCH  15  16
ENDBRANCH   4  15
TORSDOF 6
ENDMDL
MODEL 8
REMARK VINA RESULT:      -5.8      2.277      3.945
REMARK  Name = 5288724
REMARK  6 active torsions:
REMARK  status: ('A' for Active; 'I' for Inactive)
REMARK    1  A    between atoms: C_2  and  S_7
REMARK    2  A    between atoms: C_3  and  O_9
REMARK    3  A    between atoms: C_4  and  C_15
REMARK    4  A    between atoms: C_5  and  O_11
REMARK    5  A    between atoms: C_6  and  O_13
REMARK    6  A    between atoms: C_15  and  O_16
REMARK                            x       y       z     vdW  Elec       q    Type
REMARK                         _______ _______ _______ _____ _____    ______ ____
ROOT
ATOM      1  O   UNL     1      36.595 -22.750 -13.527  0.00  0.00    -0.328 OA
ATOM      2  C   UNL     1      37.240 -25.088 -13.842  0.00  0.00    +0.107 C 
ATOM      3  C   UNL     1      37.319 -25.275 -12.318  0.00  0.00    +0.155 C 
ATOM      4  C   UNL     1      37.483 -23.621 -14.247  0.00  0.00    +0.159 C 
ATOM      5  C   UNL     1      36.459 -24.227 -11.608  0.00  0.00    +0.195 C 
ATOM      6  C   UNL     1      36.755 -22.815 -12.110  0.00  0.00    +0.262 C 
ENDROOT
BRANCH   2   7
ATOM      7  S   UNL     1      38.434 -26.218 -14.654  0.00  0.00    -0.135 S 
ATOM      8  C   UNL     1      39.949 -25.461 -14.032  0.00  0.00    +0.069 C 
ENDBRANCH   2   7
BRANCH   3   9
ATOM      9  O   UNL     1      36.814 -26.563 -11.958  0.00  0.00    -0.381 OA
ATOM     10  H   UNL     1      35.961 -26.460 -11.509  0.00  0.00    +0.210 HD
ENDBRANCH   3   9
BRANCH   5  11
ATOM     11  O   UNL     1      36.681 -24.306 -10.204  0.00  0.00    -0.378 OA
ATOM     12  H   UNL     1      35.909 -23.956  -9.734  0.00  0.00    +0.211 HD
ENDBRANCH   5  11
BRANCH   6  13
ATOM     13  O   UNL     1      38.028 -22.334 -11.684  0.00  0.00    -0.358 OA
ATOM     14  H   UNL     1      38.720 -22.696 -12.259  0.00  0.00    +0.213 HD
ENDBRANCH   6  13
BRANCH   4  15
ATOM     15  C   UNL     1      37.219 -23.357 -15.728  0.00  0.00    +0.168 C 
BRANCH  15  16
ATOM     16  O   UNL     1      35.895 -23.759 -16.025  0.00  0.00    -0.379 OA
ATOM     17  H   UNL     1      35.670 -24.545 -15.504  0.00  0.00    +0.211 HD
ENDBRANCH  15  16
ENDBRANCH   4  15
TORSDOF 6
ENDMDL
MODEL 9
REMARK VINA RESULT:      -5.7      2.448      3.685
REMARK  Name = 5288724
REMARK  6 active torsions:
REMARK  status: ('A' for Active; 'I' for Inactive)
REMARK    1  A    between atoms: C_2  and  S_7
REMARK    2  A    between atoms: C_3  and  O_9
REMARK    3  A    between atoms: C_4  and  C_15
REMARK    4  A    between atoms: C_5  and  O_11
REMARK    5  A    between atoms: C_6  and  O_13
REMARK    6  A    between atoms: C_15  and  O_16
REMARK                            x       y       z     vdW  Elec       q    Type
REMARK                         _______ _______ _______ _____ _____    ______ ____
ROOT
ATOM      1  O   UNL     1      35.388 -22.853 -14.106  0.00  0.00    -0.328 OA
ATOM      2  C   UNL     1      37.466 -24.111 -13.826  0.00  0.00    +0.107 C 
ATOM      3  C   UNL     1      37.765 -23.960 -15.326  0.00  0.00    +0.155 C 
ATOM      4  C   UNL     1      35.954 -24.046 -13.539  0.00  0.00    +0.159 C 
ATOM      5  C   UNL     1      37.022 -22.751 -15.897  0.00  0.00    +0.195 C 
ATOM      6  C   UNL     1      35.540 -22.767 -15.523  0.00  0.00    +0.262 C 
ENDROOT
BRANCH   2   7
ATOM      7  S   UNL     1      38.200 -25.678 -13.217  0.00  0.00    -0.135 S 
ATOM      8  C   UNL     1      37.286 -26.808 -14.285  0.00  0.00    +0.069 C 
ENDBRANCH   2   7
BRANCH   3   9
ATOM      9  O   UNL     1      39.163 -23.740 -15.525  0.00  0.00    -0.381 OA
ATOM     10  H   UNL     1      39.617 -23.753 -14.668  0.00  0.00    +0.210 HD
ENDBRANCH   3   9
BRANCH   5  11
ATOM     11  O   UNL     1      37.170 -22.730 -17.313  0.00  0.00    -0.378 OA
ATOM     12  H   UNL     1      37.008 -21.833 -17.642  0.00  0.00    +0.211 HD
ENDBRANCH   5  11
BRANCH   6  13
ATOM     13  O   UNL     1      34.809 -23.779 -16.211  0.00  0.00    -0.358 OA
ATOM     14  H   UNL     1      34.374 -23.393 -16.987  0.00  0.00    +0.213 HD
ENDBRANCH   6  13
BRANCH   4  15
ATOM     15  C   UNL     1      35.629 -23.994 -12.047  0.00  0.00    +0.168 C 
BRANCH  15  16
ATOM     16  O   UNL     1      34.787 -25.088 -11.734  0.00  0.00    -0.379 OA
ATOM     17  H   UNL     1      34.002 -24.768 -11.264  0.00  0.00    +0.211 HD
ENDBRANCH  15  16
ENDBRANCH   4  15
TORSDOF 6
ENDMDL
