MODEL 1
REMARK VINA RESULT:      -9.2      0.000      0.000
REMARK  Name = 11069133
REMARK  5 active torsions:
REMARK  status: ('A' for Active; 'I' for Inactive)
REMARK    1  A    between atoms: S_1  and  C_6
REMARK    2  A    between atoms: S_1  and  N_16
REMARK    3  A    between atoms: C_9  and  N_12
REMARK    4  A    between atoms: C_20  and  S_22
REMARK    5  A    between atoms: S_22  and  N_25
REMARK                            x       y       z     vdW  Elec       q    Type
REMARK                         _______ _______ _______ _____ _____    ______ ____
ROOT
ATOM      1  S   UNL     1      35.132 -18.380 -22.881  0.00  0.00    +0.075 S 
ATOM      2  O   UNL     1      36.467 -18.261 -22.309  0.00  0.00    -0.150 OA
ATOM      3  O   UNL     1      34.919 -19.310 -23.983  0.00  0.00    -0.150 OA
ENDROOT
BRANCH   1   6
ATOM      4 CL   UNL     1      33.028 -15.133 -26.653  0.00  0.00    -0.081 Cl
ATOM      5  F   UNL     1      34.493 -13.398 -22.080  0.00  0.00    -0.203 F 
ATOM      6  C   UNL     1      34.627 -16.787 -23.388  0.00  0.00    +0.128 C 
ATOM      7  C   UNL     1      34.091 -16.597 -24.662  0.00  0.00    +0.033 C 
ATOM      8  C   UNL     1      34.761 -15.703 -22.519  0.00  0.00    +0.051 C 
ATOM      9  C   UNL     1      33.822 -14.241 -24.197  0.00  0.00    +0.080 C 
ATOM     10  C   UNL     1      33.688 -15.324 -25.066  0.00  0.00    +0.074 C 
ATOM     11  C   UNL     1      34.358 -14.431 -22.924  0.00  0.00    +0.155 C 
BRANCH   9  12
ATOM     12  N   UNL     1      33.423 -12.941 -24.582  0.00  0.00    -0.355 N 
ATOM     13  H   UNL     1      32.467 -12.710 -24.618  0.00  0.00    +0.142 HD
ATOM     14  H   UNL     1      34.102 -12.266 -24.811  0.00  0.00    +0.142 HD
ENDBRANCH   9  12
ENDBRANCH   1   6
BRANCH   1  16
ATOM     15  S   UNL     1      33.058 -20.713 -19.900  0.00  0.00    -0.009 S 
ATOM     16  N   UNL     1      34.034 -18.739 -21.603  0.00  0.00    -0.192 N 
ATOM     17  N   UNL     1      35.484 -20.462 -20.685  0.00  0.00    -0.123 NA
ATOM     18  N   UNL     1      35.472 -21.573 -19.860  0.00  0.00    -0.119 NA
ATOM     19  C   UNL     1      34.287 -19.906 -20.801  0.00  0.00    +0.202 A 
ATOM     20  C   UNL     1      34.269 -21.814 -19.385  0.00  0.00    +0.256 A 
ATOM     21  H   UNL     1      33.255 -18.163 -21.428  0.00  0.00    +0.176 HD
BRANCH  20  22
ATOM     22  S   UNL     1      33.827 -23.107 -18.317  0.00  0.00    +0.081 S 
ATOM     23  O   UNL     1      33.716 -24.339 -19.092  0.00  0.00    -0.151 OA
ATOM     24  O   UNL     1      34.700 -23.076 -17.146  0.00  0.00    -0.151 OA
BRANCH  22  25
ATOM     25  N   UNL     1      32.258 -22.625 -17.835  0.00  0.00    -0.202 NA
ATOM     26  H   UNL     1      31.817 -22.099 -18.589  0.00  0.00    +0.144 HD
ATOM     27  H   UNL     1      32.324 -22.036 -17.004  0.00  0.00    +0.144 HD
ENDBRANCH  22  25
ENDBRANCH  20  22
ENDBRANCH   1  16
TORSDOF 5
ENDMDL
MODEL 2
REMARK VINA RESULT:      -9.1      4.836      6.957
REMARK  Name = 11069133
REMARK  5 active torsions:
REMARK  status: ('A' for Active; 'I' for Inactive)
REMARK    1  A    between atoms: S_1  and  C_6
REMARK    2  A    between atoms: S_1  and  N_16
REMARK    3  A    between atoms: C_9  and  N_12
REMARK    4  A    between atoms: C_20  and  S_22
REMARK    5  A    between atoms: S_22  and  N_25
REMARK                            x       y       z     vdW  Elec       q    Type
REMARK                         _______ _______ _______ _____ _____    ______ ____
ROOT
ATOM      1  S   UNL     1      33.753 -22.943 -17.960  0.00  0.00    +0.075 S 
ATOM      2  O   UNL     1      33.732 -24.210 -18.681  0.00  0.00    -0.150 OA
ATOM      3  O   UNL     1      32.613 -22.592 -17.123  0.00  0.00    -0.150 OA
ENDROOT
BRANCH   1   6
ATOM      4 CL   UNL     1      37.108 -19.719 -20.705  0.00  0.00    -0.081 Cl
ATOM      5  F   UNL     1      32.042 -19.509 -21.300  0.00  0.00    -0.203 F 
ATOM      6  C   UNL     1      34.001 -21.670 -19.130  0.00  0.00    +0.128 C 
ATOM      7  C   UNL     1      35.293 -21.239 -19.429  0.00  0.00    +0.033 C 
ATOM      8  C   UNL     1      32.905 -21.082 -19.764  0.00  0.00    +0.051 C 
ATOM      9  C   UNL     1      34.395 -19.635 -20.997  0.00  0.00    +0.080 C 
ATOM     10  C   UNL     1      35.490 -20.222 -20.363  0.00  0.00    +0.074 C 
ATOM     11  C   UNL     1      33.103 -20.066 -20.697  0.00  0.00    +0.155 C 
BRANCH   9  12
ATOM     12  N   UNL     1      34.566 -18.602 -21.947  0.00  0.00    -0.355 N 
ATOM     13  H   UNL     1      34.757 -17.685 -21.647  0.00  0.00    +0.142 HD
ATOM     14  H   UNL     1      34.495 -18.802 -22.908  0.00  0.00    +0.142 HD
ENDBRANCH   9  12
ENDBRANCH   1   6
BRANCH   1  16
ATOM     15  S   UNL     1      36.295 -23.144 -14.478  0.00  0.00    -0.009 S 
ATOM     16  N   UNL     1      35.197 -22.886 -17.023  0.00  0.00    -0.192 N 
ATOM     17  N   UNL     1      34.374 -24.540 -15.441  0.00  0.00    -0.123 NA
ATOM     18  N   UNL     1      34.575 -25.017 -14.158  0.00  0.00    -0.119 NA
ATOM     19  C   UNL     1      35.204 -23.553 -15.749  0.00  0.00    +0.202 A 
ATOM     20  C   UNL     1      35.548 -24.376 -13.546  0.00  0.00    +0.256 A 
ATOM     21  H   UNL     1      35.994 -22.408 -17.349  0.00  0.00    +0.176 HD
BRANCH  20  22
ATOM     22  S   UNL     1      36.116 -24.668 -11.933  0.00  0.00    +0.081 S 
ATOM     23  O   UNL     1      37.146 -23.685 -11.613  0.00  0.00    -0.151 OA
ATOM     24  O   UNL     1      34.966 -24.813 -11.044  0.00  0.00    -0.151 OA
BRANCH  22  25
ATOM     25  N   UNL     1      36.859 -26.198 -12.109  0.00  0.00    -0.202 NA
ATOM     26  H   UNL     1      36.615 -26.789 -11.314  0.00  0.00    +0.144 HD
ATOM     27  H   UNL     1      37.872 -26.082 -12.148  0.00  0.00    +0.144 HD
ENDBRANCH  22  25
ENDBRANCH  20  22
ENDBRANCH   1  16
TORSDOF 5
ENDMDL
MODEL 3
REMARK VINA RESULT:      -9.0      1.548      1.836
REMARK  Name = 11069133
REMARK  5 active torsions:
REMARK  status: ('A' for Active; 'I' for Inactive)
REMARK    1  A    between atoms: S_1  and  C_6
REMARK    2  A    between atoms: S_1  and  N_16
REMARK    3  A    between atoms: C_9  and  N_12
REMARK    4  A    between atoms: C_20  and  S_22
REMARK    5  A    between atoms: S_22  and  N_25
REMARK                            x       y       z     vdW  Elec       q    Type
REMARK                         _______ _______ _______ _____ _____    ______ ____
ROOT
ATOM      1  S   UNL     1      35.102 -18.388 -22.820  0.00  0.00    +0.075 S 
ATOM      2  O   UNL     1      36.411 -18.098 -22.247  0.00  0.00    -0.150 OA
ATOM      3  O   UNL     1      34.996 -19.417 -23.846  0.00  0.00    -0.150 OA
ENDROOT
BRANCH   1   6
ATOM      4 CL   UNL     1      33.051 -13.461 -21.981  0.00  0.00    -0.081 Cl
ATOM      5  F   UNL     1      33.730 -15.362 -26.670  0.00  0.00    -0.203 F 
ATOM      6  C   UNL     1      34.458 -16.895 -23.456  0.00  0.00    +0.128 C 
ATOM      7  C   UNL     1      34.054 -15.882 -22.585  0.00  0.00    +0.033 C 
ATOM      8  C   UNL     1      34.347 -16.714 -24.835  0.00  0.00    +0.051 C 
ATOM      9  C   UNL     1      33.428 -14.510 -24.473  0.00  0.00    +0.080 C 
ATOM     10  C   UNL     1      33.539 -14.689 -23.094  0.00  0.00    +0.074 C 
ATOM     11  C   UNL     1      33.832 -15.522 -25.343  0.00  0.00    +0.155 C 
BRANCH   9  12
ATOM     12  N   UNL     1      32.910 -13.312 -25.016  0.00  0.00    -0.355 N 
ATOM     13  H   UNL     1      32.227 -13.347 -25.723  0.00  0.00    +0.142 HD
ATOM     14  H   UNL     1      33.232 -12.443 -24.684  0.00  0.00    +0.142 HD
ENDBRANCH   9  12
ENDBRANCH   1   6
BRANCH   1  16
ATOM     15  S   UNL     1      33.052 -20.732 -19.830  0.00  0.00    -0.009 S 
ATOM     16  N   UNL     1      34.022 -18.749 -21.527  0.00  0.00    -0.192 N 
ATOM     17  N   UNL     1      35.468 -20.499 -20.653  0.00  0.00    -0.123 NA
ATOM     18  N   UNL     1      35.456 -21.619 -19.841  0.00  0.00    -0.119 NA
ATOM     19  C   UNL     1      34.275 -19.928 -20.743  0.00  0.00    +0.202 A 
ATOM     20  C   UNL     1      34.259 -21.852 -19.348  0.00  0.00    +0.256 A 
ATOM     21  H   UNL     1      33.252 -18.167 -21.332  0.00  0.00    +0.176 HD
BRANCH  20  22
ATOM     22  S   UNL     1      33.820 -23.153 -18.287  0.00  0.00    +0.081 S 
ATOM     23  O   UNL     1      33.695 -24.377 -19.072  0.00  0.00    -0.151 OA
ATOM     24  O   UNL     1      34.703 -23.136 -17.125  0.00  0.00    -0.151 OA
BRANCH  22  25
ATOM     25  N   UNL     1      32.258 -22.666 -17.786  0.00  0.00    -0.202 NA
ATOM     26  H   UNL     1      32.182 -22.756 -16.773  0.00  0.00    +0.144 HD
ATOM     27  H   UNL     1      31.558 -23.258 -18.234  0.00  0.00    +0.144 HD
ENDBRANCH  22  25
ENDBRANCH  20  22
ENDBRANCH   1  16
TORSDOF 5
ENDMDL
MODEL 4
REMARK VINA RESULT:      -8.9      5.532      7.546
REMARK  Name = 11069133
REMARK  5 active torsions:
REMARK  status: ('A' for Active; 'I' for Inactive)
REMARK    1  A    between atoms: S_1  and  C_6
REMARK    2  A    between atoms: S_1  and  N_16
REMARK    3  A    between atoms: C_9  and  N_12
REMARK    4  A    between atoms: C_20  and  S_22
REMARK    5  A    between atoms: S_22  and  N_25
REMARK                            x       y       z     vdW  Elec       q    Type
REMARK                         _______ _______ _______ _____ _____    ______ ____
ROOT
ATOM      1  S   UNL     1      33.392 -23.291 -17.106  0.00  0.00    +0.075 S 
ATOM      2  O   UNL     1      33.801 -24.651 -17.438  0.00  0.00    -0.150 OA
ATOM      3  O   UNL     1      31.975 -23.010 -16.913  0.00  0.00    -0.150 OA
ENDROOT
BRANCH   1   6
ATOM      4 CL   UNL     1      32.492 -19.711 -21.051  0.00  0.00    -0.081 Cl
ATOM      5  F   UNL     1      37.197 -21.222 -19.772  0.00  0.00    -0.203 F 
ATOM      6  C   UNL     1      34.008 -22.232 -18.351  0.00  0.00    +0.128 C 
ATOM      7  C   UNL     1      33.126 -21.476 -19.123  0.00  0.00    +0.033 C 
ATOM      8  C   UNL     1      35.383 -22.143 -18.574  0.00  0.00    +0.051 C 
ATOM      9  C   UNL     1      34.993 -20.542 -20.340  0.00  0.00    +0.080 C 
ATOM     10  C   UNL     1      33.619 -20.631 -20.117  0.00  0.00    +0.074 C 
ATOM     11  C   UNL     1      35.874 -21.298 -19.568  0.00  0.00    +0.155 C 
BRANCH   9  12
ATOM     12  N   UNL     1      35.519 -19.694 -21.341  0.00  0.00    -0.355 N 
ATOM     13  H   UNL     1      36.263 -20.003 -21.907  0.00  0.00    +0.142 HD
ATOM     14  H   UNL     1      35.140 -18.795 -21.472  0.00  0.00    +0.142 HD
ENDBRANCH   9  12
ENDBRANCH   1   6
BRANCH   1  16
ATOM     15  S   UNL     1      35.758 -23.635 -13.512  0.00  0.00    -0.009 S 
ATOM     16  N   UNL     1      34.274 -22.793 -15.712  0.00  0.00    -0.192 N 
ATOM     17  N   UNL     1      35.782 -24.697 -15.843  0.00  0.00    -0.123 NA
ATOM     18  N   UNL     1      36.665 -25.444 -15.084  0.00  0.00    -0.119 NA
ATOM     19  C   UNL     1      35.228 -23.713 -15.151  0.00  0.00    +0.202 A 
ATOM     20  C   UNL     1      36.746 -24.996 -13.850  0.00  0.00    +0.256 A 
ATOM     21  H   UNL     1      34.128 -21.907 -15.310  0.00  0.00    +0.176 HD
BRANCH  20  22
ATOM     22  S   UNL     1      37.737 -25.647 -12.583  0.00  0.00    +0.081 S 
ATOM     23  O   UNL     1      36.959 -26.632 -11.837  0.00  0.00    -0.151 OA
ATOM     24  O   UNL     1      39.029 -26.033 -13.143  0.00  0.00    -0.151 OA
BRANCH  22  25
ATOM     25  N   UNL     1      37.966 -24.271 -11.593  0.00  0.00    -0.202 NA
ATOM     26  H   UNL     1      37.062 -23.845 -11.388  0.00  0.00    +0.144 HD
ATOM     27  H   UNL     1      38.558 -23.597 -12.079  0.00  0.00    +0.144 HD
ENDBRANCH  22  25
ENDBRANCH  20  22
ENDBRANCH   1  16
TORSDOF 5
ENDMDL
MODEL 5
REMARK VINA RESULT:      -8.9      5.366      9.455
REMARK  Name = 11069133
REMARK  5 active torsions:
REMARK  status: ('A' for Active; 'I' for Inactive)
REMARK    1  A    between atoms: S_1  and  C_6
REMARK    2  A    between atoms: S_1  and  N_16
REMARK    3  A    between atoms: C_9  and  N_12
REMARK    4  A    between atoms: C_20  and  S_22
REMARK    5  A    between atoms: S_22  and  N_25
REMARK                            x       y       z     vdW  Elec       q    Type
REMARK                         _______ _______ _______ _____ _____    ______ ____
ROOT
ATOM      1  S   UNL     1      33.607 -22.882 -18.285  0.00  0.00    +0.075 S 
ATOM      2  O   UNL     1      32.310 -22.219 -18.347  0.00  0.00    -0.150 OA
ATOM      3  O   UNL     1      33.799 -24.121 -19.028  0.00  0.00    -0.150 OA
ENDROOT
BRANCH   1   6
ATOM      4 CL   UNL     1      37.232 -23.231 -14.295  0.00  0.00    -0.081 Cl
ATOM      5  F   UNL     1      32.248 -24.018 -13.517  0.00  0.00    -0.203 F 
ATOM      6  C   UNL     1      33.975 -23.175 -16.603  0.00  0.00    +0.128 C 
ATOM      7  C   UNL     1      35.293 -23.100 -16.154  0.00  0.00    +0.033 C 
ATOM      8  C   UNL     1      32.949 -23.486 -15.709  0.00  0.00    +0.051 C 
ATOM      9  C   UNL     1      34.560 -23.645 -13.916  0.00  0.00    +0.080 C 
ATOM     10  C   UNL     1      35.586 -23.335 -14.810  0.00  0.00    +0.074 C 
ATOM     11  C   UNL     1      33.243 -23.720 -14.366  0.00  0.00    +0.155 C 
BRANCH   9  12
ATOM     12  N   UNL     1      34.829 -23.888 -12.550  0.00  0.00    -0.355 N 
ATOM     13  H   UNL     1      34.840 -24.810 -12.207  0.00  0.00    +0.142 HD
ATOM     14  H   UNL     1      35.007 -23.134 -11.943  0.00  0.00    +0.142 HD
ENDBRANCH   9  12
ENDBRANCH   1   6
BRANCH   1  16
ATOM     15  S   UNL     1      35.739 -20.069 -20.770  0.00  0.00    -0.009 S 
ATOM     16  N   UNL     1      34.812 -21.740 -18.745  0.00  0.00    -0.192 N 
ATOM     17  N   UNL     1      33.284 -20.542 -20.210  0.00  0.00    -0.123 NA
ATOM     18  N   UNL     1      33.261 -19.664 -21.279  0.00  0.00    -0.119 NA
ATOM     19  C   UNL     1      34.518 -20.846 -19.833  0.00  0.00    +0.202 A 
ATOM     20  C   UNL     1      34.474 -19.337 -21.668  0.00  0.00    +0.256 A 
ATOM     21  H   UNL     1      35.679 -21.702 -18.279  0.00  0.00    +0.176 HD
BRANCH  20  22
ATOM     22  S   UNL     1      34.882 -18.264 -22.969  0.00  0.00    +0.081 S 
ATOM     23  O   UNL     1      34.539 -18.907 -24.233  0.00  0.00    -0.151 OA
ATOM     24  O   UNL     1      34.347 -16.937 -22.674  0.00  0.00    -0.151 OA
BRANCH  22  25
ATOM     25  N   UNL     1      36.586 -18.203 -22.833  0.00  0.00    -0.202 NA
ATOM     26  H   UNL     1      37.006 -18.389 -23.744  0.00  0.00    +0.144 HD
ATOM     27  H   UNL     1      36.899 -18.905 -22.163  0.00  0.00    +0.144 HD
ENDBRANCH  22  25
ENDBRANCH  20  22
ENDBRANCH   1  16
TORSDOF 5
ENDMDL
MODEL 6
REMARK VINA RESULT:      -8.8      5.348      9.453
REMARK  Name = 11069133
REMARK  5 active torsions:
REMARK  status: ('A' for Active; 'I' for Inactive)
REMARK    1  A    between atoms: S_1  and  C_6
REMARK    2  A    between atoms: S_1  and  N_16
REMARK    3  A    between atoms: C_9  and  N_12
REMARK    4  A    between atoms: C_20  and  S_22
REMARK    5  A    between atoms: S_22  and  N_25
REMARK                            x       y       z     vdW  Elec       q    Type
REMARK                         _______ _______ _______ _____ _____    ______ ____
ROOT
ATOM      1  S   UNL     1      33.632 -22.887 -18.329  0.00  0.00    +0.075 S 
ATOM      2  O   UNL     1      32.321 -22.248 -18.348  0.00  0.00    -0.150 OA
ATOM      3  O   UNL     1      33.841 -24.087 -19.130  0.00  0.00    -0.150 OA
ENDROOT
BRANCH   1   6
ATOM      4 CL   UNL     1      32.145 -24.792 -13.497  0.00  0.00    -0.081 Cl
ATOM      5  F   UNL     1      36.842 -23.001 -14.387  0.00  0.00    -0.203 F 
ATOM      6  C   UNL     1      34.022 -23.250 -16.667  0.00  0.00    +0.128 C 
ATOM      7  C   UNL     1      33.057 -23.809 -15.829  0.00  0.00    +0.033 C 
ATOM      8  C   UNL     1      35.300 -22.978 -16.175  0.00  0.00    +0.051 C 
ATOM      9  C   UNL     1      34.647 -23.827 -14.009  0.00  0.00    +0.080 C 
ATOM     10  C   UNL     1      33.370 -24.098 -14.500  0.00  0.00    +0.074 C 
ATOM     11  C   UNL     1      35.611 -23.267 -14.847  0.00  0.00    +0.155 C 
BRANCH   9  12
ATOM     12  N   UNL     1      34.991 -24.109 -12.668  0.00  0.00    -0.355 N 
ATOM     13  H   UNL     1      34.352 -24.578 -12.084  0.00  0.00    +0.142 HD
ATOM     14  H   UNL     1      35.870 -23.838 -12.318  0.00  0.00    +0.142 HD
ENDBRANCH   9  12
ENDBRANCH   1   6
BRANCH   1  16
ATOM     15  S   UNL     1      35.747 -19.999 -20.741  0.00  0.00    -0.009 S 
ATOM     16  N   UNL     1      34.810 -21.702 -18.748  0.00  0.00    -0.192 N 
ATOM     17  N   UNL     1      33.292 -20.563 -20.270  0.00  0.00    -0.123 NA
ATOM     18  N   UNL     1      33.276 -19.688 -21.342  0.00  0.00    -0.119 NA
ATOM     19  C   UNL     1      34.522 -20.821 -19.848  0.00  0.00    +0.202 A 
ATOM     20  C   UNL     1      34.489 -19.316 -21.687  0.00  0.00    +0.256 A 
ATOM     21  H   UNL     1      35.656 -21.631 -18.250  0.00  0.00    +0.176 HD
BRANCH  20  22
ATOM     22  S   UNL     1      34.904 -18.230 -22.975  0.00  0.00    +0.081 S 
ATOM     23  O   UNL     1      34.554 -18.853 -24.247  0.00  0.00    -0.151 OA
ATOM     24  O   UNL     1      34.383 -16.902 -22.662  0.00  0.00    -0.151 OA
BRANCH  22  25
ATOM     25  N   UNL     1      36.609 -18.186 -22.842  0.00  0.00    -0.202 NA
ATOM     26  H   UNL     1      36.960 -19.123 -22.644  0.00  0.00    +0.144 HD
ATOM     27  H   UNL     1      36.875 -17.556 -22.085  0.00  0.00    +0.144 HD
ENDBRANCH  22  25
ENDBRANCH  20  22
ENDBRANCH   1  16
TORSDOF 5
ENDMDL
MODEL 7
REMARK VINA RESULT:      -8.5      5.103      9.040
REMARK  Name = 11069133
REMARK  5 active torsions:
REMARK  status: ('A' for Active; 'I' for Inactive)
REMARK    1  A    between atoms: S_1  and  C_6
REMARK    2  A    between atoms: S_1  and  N_16
REMARK    3  A    between atoms: C_9  and  N_12
REMARK    4  A    between atoms: C_20  and  S_22
REMARK    5  A    between atoms: S_22  and  N_25
REMARK                            x       y       z     vdW  Elec       q    Type
REMARK                         _______ _______ _______ _____ _____    ______ ____
ROOT
ATOM      1  S   UNL     1      34.018 -22.917 -18.857  0.00  0.00    +0.075 S 
ATOM      2  O   UNL     1      33.920 -24.200 -19.542  0.00  0.00    -0.150 OA
ATOM      3  O   UNL     1      35.339 -22.359 -18.597  0.00  0.00    -0.150 OA
ENDROOT
BRANCH   1   6
ATOM      4 CL   UNL     1      34.046 -24.001 -13.565  0.00  0.00    -0.081 Cl
ATOM      5  F   UNL     1      29.790 -22.656 -16.043  0.00  0.00    -0.203 F 
ATOM      6  C   UNL     1      33.161 -23.056 -17.342  0.00  0.00    +0.128 C 
ATOM      7  C   UNL     1      33.845 -23.428 -16.185  0.00  0.00    +0.033 C 
ATOM      8  C   UNL     1      31.791 -22.796 -17.289  0.00  0.00    +0.051 C 
ATOM      9  C   UNL     1      31.790 -23.279 -14.922  0.00  0.00    +0.080 C 
ATOM     10  C   UNL     1      33.160 -23.539 -14.975  0.00  0.00    +0.074 C 
ATOM     11  C   UNL     1      31.107 -22.908 -16.080  0.00  0.00    +0.155 C 
BRANCH   9  12
ATOM     12  N   UNL     1      31.071 -23.385 -13.710  0.00  0.00    -0.355 N 
ATOM     13  H   UNL     1      30.982 -24.258 -13.265  0.00  0.00    +0.142 HD
ATOM     14  H   UNL     1      30.661 -22.584 -13.311  0.00  0.00    +0.142 HD
ENDBRANCH   9  12
ENDBRANCH   1   6
BRANCH   1  16
ATOM     15  S   UNL     1      32.873 -19.131 -20.585  0.00  0.00    -0.009 S 
ATOM     16  N   UNL     1      33.070 -21.772 -19.728  0.00  0.00    -0.192 N 
ATOM     17  N   UNL     1      35.027 -20.509 -20.428  0.00  0.00    -0.123 NA
ATOM     18  N   UNL     1      35.413 -19.266 -20.899  0.00  0.00    -0.119 NA
ATOM     19  C   UNL     1      33.721 -20.587 -20.217  0.00  0.00    +0.202 A 
ATOM     20  C   UNL     1      34.386 -18.453 -21.025  0.00  0.00    +0.256 A 
ATOM     21  H   UNL     1      32.110 -21.924 -19.884  0.00  0.00    +0.176 HD
BRANCH  20  22
ATOM     22  S   UNL     1      34.439 -16.811 -21.584  0.00  0.00    +0.081 S 
ATOM     23  O   UNL     1      35.428 -16.710 -22.653  0.00  0.00    -0.151 OA
ATOM     24  O   UNL     1      33.075 -16.349 -21.826  0.00  0.00    -0.151 OA
BRANCH  22  25
ATOM     25  N   UNL     1      35.047 -16.005 -20.203  0.00  0.00    -0.202 NA
ATOM     26  H   UNL     1      34.336 -16.000 -19.471  0.00  0.00    +0.144 HD
ATOM     27  H   UNL     1      35.289 -15.045 -20.449  0.00  0.00    +0.144 HD
ENDBRANCH  22  25
ENDBRANCH  20  22
ENDBRANCH   1  16
TORSDOF 5
ENDMDL
MODEL 8
REMARK VINA RESULT:      -8.5      5.124      9.183
REMARK  Name = 11069133
REMARK  5 active torsions:
REMARK  status: ('A' for Active; 'I' for Inactive)
REMARK    1  A    between atoms: S_1  and  C_6
REMARK    2  A    between atoms: S_1  and  N_16
REMARK    3  A    between atoms: C_9  and  N_12
REMARK    4  A    between atoms: C_20  and  S_22
REMARK    5  A    between atoms: S_22  and  N_25
REMARK                            x       y       z     vdW  Elec       q    Type
REMARK                         _______ _______ _______ _____ _____    ______ ____
ROOT
ATOM      1  S   UNL     1      33.814 -23.038 -18.210  0.00  0.00    +0.075 S 
ATOM      2  O   UNL     1      33.751 -24.323 -18.897  0.00  0.00    -0.150 OA
ATOM      3  O   UNL     1      35.119 -22.489 -17.865  0.00  0.00    -0.150 OA
ENDROOT
BRANCH   1   6
ATOM      4 CL   UNL     1      29.036 -22.650 -15.719  0.00  0.00    -0.081 Cl
ATOM      5  F   UNL     1      33.292 -24.001 -13.244  0.00  0.00    -0.203 F 
ATOM      6  C   UNL     1      32.858 -23.166 -16.755  0.00  0.00    +0.128 C 
ATOM      7  C   UNL     1      31.490 -22.894 -16.792  0.00  0.00    +0.033 C 
ATOM      8  C   UNL     1      33.462 -23.540 -15.554  0.00  0.00    +0.051 C 
ATOM      9  C   UNL     1      31.332 -23.370 -14.428  0.00  0.00    +0.080 C 
ATOM     10  C   UNL     1      30.727 -22.996 -15.628  0.00  0.00    +0.074 C 
ATOM     11  C   UNL     1      32.699 -23.641 -14.391  0.00  0.00    +0.155 C 
BRANCH   9  12
ATOM     12  N   UNL     1      30.582 -23.480 -13.235  0.00  0.00    -0.355 N 
ATOM     13  H   UNL     1      30.838 -24.142 -12.552  0.00  0.00    +0.142 HD
ATOM     14  H   UNL     1      29.805 -22.894 -13.086  0.00  0.00    +0.142 HD
ENDBRANCH   9  12
ENDBRANCH   1   6
BRANCH   1  16
ATOM     15  S   UNL     1      33.067 -19.499 -20.567  0.00  0.00    -0.009 S 
ATOM     16  N   UNL     1      32.934 -21.889 -19.145  0.00  0.00    -0.192 N 
ATOM     17  N   UNL     1      34.884 -21.305 -20.476  0.00  0.00    -0.123 NA
ATOM     18  N   UNL     1      35.387 -20.310 -21.296  0.00  0.00    -0.119 NA
ATOM     19  C   UNL     1      33.674 -21.018 -20.018  0.00  0.00    +0.202 A 
ATOM     20  C   UNL     1      34.540 -19.312 -21.427  0.00  0.00    +0.256 A 
ATOM     21  H   UNL     1      31.953 -21.830 -19.082  0.00  0.00    +0.176 HD
BRANCH  20  22
ATOM     22  S   UNL     1      34.784 -17.874 -22.367  0.00  0.00    +0.081 S 
ATOM     23  O   UNL     1      34.188 -18.068 -23.685  0.00  0.00    -0.151 OA
ATOM     24  O   UNL     1      34.394 -16.714 -21.570  0.00  0.00    -0.151 OA
BRANCH  22  25
ATOM     25  N   UNL     1      36.486 -17.866 -22.535  0.00  0.00    -0.202 NA
ATOM     26  H   UNL     1      36.759 -18.517 -23.271  0.00  0.00    +0.144 HD
ATOM     27  H   UNL     1      36.916 -18.149 -21.654  0.00  0.00    +0.144 HD
ENDBRANCH  22  25
ENDBRANCH  20  22
ENDBRANCH   1  16
TORSDOF 5
ENDMDL
MODEL 9
REMARK VINA RESULT:      -8.4      5.696      9.470
REMARK  Name = 11069133
REMARK  5 active torsions:
REMARK  status: ('A' for Active; 'I' for Inactive)
REMARK    1  A    between atoms: S_1  and  C_6
REMARK    2  A    between atoms: S_1  and  N_16
REMARK    3  A    between atoms: C_9  and  N_12
REMARK    4  A    between atoms: C_20  and  S_22
REMARK    5  A    between atoms: S_22  and  N_25
REMARK                            x       y       z     vdW  Elec       q    Type
REMARK                         _______ _______ _______ _____ _____    ______ ____
ROOT
ATOM      1  S   UNL     1      33.219 -14.064 -24.591  0.00  0.00    +0.075 S 
ATOM      2  O   UNL     1      31.863 -13.780 -24.138  0.00  0.00    -0.150 OA
ATOM      3  O   UNL     1      33.418 -14.568 -25.943  0.00  0.00    -0.150 OA
ENDROOT
BRANCH   1   6
ATOM      4 CL   UNL     1      35.464 -18.876 -23.597  0.00  0.00    -0.081 Cl
ATOM      5  F   UNL     1      34.744 -15.402 -19.927  0.00  0.00    -0.203 F 
ATOM      6  C   UNL     1      33.930 -15.192 -23.463  0.00  0.00    +0.128 C 
ATOM      7  C   UNL     1      34.367 -16.440 -23.907  0.00  0.00    +0.033 C 
ATOM      8  C   UNL     1      34.059 -14.846 -22.117  0.00  0.00    +0.051 C 
ATOM      9  C   UNL     1      35.064 -16.994 -21.660  0.00  0.00    +0.080 C 
ATOM     10  C   UNL     1      34.935 -17.341 -23.005  0.00  0.00    +0.074 C 
ATOM     11  C   UNL     1      34.626 -15.747 -21.217  0.00  0.00    +0.155 C 
BRANCH   9  12
ATOM     12  N   UNL     1      35.634 -17.888 -20.725  0.00  0.00    -0.355 N 
ATOM     13  H   UNL     1      35.053 -18.457 -20.171  0.00  0.00    +0.142 HD
ATOM     14  H   UNL     1      36.613 -17.942 -20.631  0.00  0.00    +0.142 HD
ENDBRANCH   9  12
ENDBRANCH   1   6
BRANCH   1  16
ATOM     15  S   UNL     1      34.120  -9.898 -23.911  0.00  0.00    -0.009 S 
ATOM     16  N   UNL     1      34.168 -12.645 -24.359  0.00  0.00    -0.192 N 
ATOM     17  N   UNL     1      32.489 -11.615 -22.933  0.00  0.00    -0.123 NA
ATOM     18  N   UNL     1      32.079 -10.388 -22.440  0.00  0.00    -0.119 NA
ATOM     19  C   UNL     1      33.549 -11.514 -23.721  0.00  0.00    +0.202 A 
ATOM     20  C   UNL     1      32.844  -9.409 -22.873  0.00  0.00    +0.256 A 
ATOM     21  H   UNL     1      35.106 -12.609 -24.656  0.00  0.00    +0.176 HD
BRANCH  20  22
ATOM     22  S   UNL     1      32.673  -7.725 -22.491  0.00  0.00    +0.081 S 
ATOM     23  O   UNL     1      33.770  -6.989 -23.111  0.00  0.00    -0.151 OA
ATOM     24  O   UNL     1      31.297  -7.316 -22.758  0.00  0.00    -0.151 OA
BRANCH  22  25
ATOM     25  N   UNL     1      32.914  -7.738 -20.798  0.00  0.00    -0.202 NA
ATOM     26  H   UNL     1      32.168  -8.272 -20.351  0.00  0.00    +0.144 HD
ATOM     27  H   UNL     1      32.905  -6.780 -20.446  0.00  0.00    +0.144 HD
ENDBRANCH  22  25
ENDBRANCH  20  22
ENDBRANCH   1  16
TORSDOF 5
ENDMDL
