MODEL 1
REMARK VINA RESULT:      -9.4      0.000      0.000
REMARK  Name = 41386
REMARK  2 active torsions:
REMARK  status: ('A' for Active; 'I' for Inactive)
REMARK    1  A    between atoms: C_1  and  N_4
REMARK    2  A    between atoms: C_1  and  C_14
REMARK                            x       y       z     vdW  Elec       q    Type
REMARK                         _______ _______ _______ _____ _____    ______ ____
ROOT
ATOM      1  C   UNL     1      35.427 -18.244 -22.581  0.00  0.00    +0.121 C 
ATOM      2  C   UNL     1      35.253 -18.742 -24.018  0.00  0.00    +0.029 C 
ENDROOT
BRANCH   1   4
ATOM      3  O   UNL     1      35.265 -16.557 -20.152  0.00  0.00    -0.273 OA
ATOM      4  N   UNL     1      34.797 -16.955 -22.433  0.00  0.00    -0.177 N 
ATOM      5  N   UNL     1      34.160 -16.317 -23.463  0.00  0.00    -0.165 NA
ATOM      6  N   UNL     1      33.012 -14.229 -23.668  0.00  0.00    -0.344 N 
ATOM      7  C   UNL     1      34.788 -16.254 -21.232  0.00  0.00    +0.252 C 
ATOM      8  C   UNL     1      34.041 -14.994 -21.541  0.00  0.00    +0.149 C 
ATOM      9  C   UNL     1      33.711 -15.190 -22.998  0.00  0.00    +0.129 C 
ATOM     10  H   UNL     1      32.794 -14.352 -24.620  0.00  0.00    +0.143 HD
ATOM     11  H   UNL     1      32.725 -13.412 -23.200  0.00  0.00    +0.143 HD
ENDBRANCH   1   4
BRANCH   1  14
ATOM     12 CL   UNL     1      36.421 -21.705 -18.864  0.00  0.00    -0.081 Cl
ATOM     13 CL   UNL     1      33.231 -22.182 -18.608  0.00  0.00    -0.081 Cl
ATOM     14  C   UNL     1      34.889 -19.241 -21.573  0.00  0.00    -0.001 C 
ATOM     15  C   UNL     1      35.777 -19.937 -20.774  0.00  0.00    +0.010 C 
ATOM     16  C   UNL     1      33.522 -19.430 -21.478  0.00  0.00    -0.002 C 
ATOM     17  C   UNL     1      35.281 -20.854 -19.847  0.00  0.00    +0.068 C 
ATOM     18  C   UNL     1      33.026 -20.348 -20.552  0.00  0.00    +0.012 C 
ATOM     19  C   UNL     1      33.906 -21.059 -19.737  0.00  0.00    +0.068 C 
ENDBRANCH   1  14
TORSDOF 2
ENDMDL
MODEL 2
REMARK VINA RESULT:      -9.0      1.215      2.020
REMARK  Name = 41386
REMARK  2 active torsions:
REMARK  status: ('A' for Active; 'I' for Inactive)
REMARK    1  A    between atoms: C_1  and  N_4
REMARK    2  A    between atoms: C_1  and  C_14
REMARK                            x       y       z     vdW  Elec       q    Type
REMARK                         _______ _______ _______ _____ _____    ______ ____
ROOT
ATOM      1  C   UNL     1      35.332 -17.014 -22.804  0.00  0.00    +0.121 C 
ATOM      2  C   UNL     1      34.904 -17.370 -24.230  0.00  0.00    +0.029 C 
ENDROOT
BRANCH   1   4
ATOM      3  O   UNL     1      35.162 -16.013 -20.021  0.00  0.00    -0.273 OA
ATOM      4  N   UNL     1      34.472 -15.981 -22.281  0.00  0.00    -0.177 N 
ATOM      5  N   UNL     1      33.577 -15.296 -23.058  0.00  0.00    -0.165 NA
ATOM      6  N   UNL     1      31.997 -13.552 -22.629  0.00  0.00    -0.344 N 
ATOM      7  C   UNL     1      34.485 -15.595 -20.945  0.00  0.00    +0.252 C 
ATOM      8  C   UNL     1      33.452 -14.513 -20.860  0.00  0.00    +0.149 C 
ATOM      9  C   UNL     1      32.970 -14.445 -22.286  0.00  0.00    +0.129 C 
ATOM     10  H   UNL     1      31.679 -13.504 -23.559  0.00  0.00    +0.143 HD
ATOM     11  H   UNL     1      31.613 -12.956 -21.946  0.00  0.00    +0.143 HD
ENDBRANCH   1   4
BRANCH   1  14
ATOM     12 CL   UNL     1      32.648 -20.713 -20.377  0.00  0.00    -0.081 Cl
ATOM     13 CL   UNL     1      35.454 -21.837 -19.222  0.00  0.00    -0.081 Cl
ATOM     14  C   UNL     1      35.345 -18.232 -21.902  0.00  0.00    -0.001 C 
ATOM     15  C   UNL     1      34.149 -18.847 -21.583  0.00  0.00    +0.010 C 
ATOM     16  C   UNL     1      36.555 -18.698 -21.418  0.00  0.00    -0.002 C 
ATOM     17  C   UNL     1      34.163 -19.969 -20.753  0.00  0.00    +0.068 C 
ATOM     18  C   UNL     1      36.569 -19.818 -20.587  0.00  0.00    +0.012 C 
ATOM     19  C   UNL     1      35.372 -20.453 -20.255  0.00  0.00    +0.068 C 
ENDBRANCH   1  14
TORSDOF 2
ENDMDL
MODEL 3
REMARK VINA RESULT:      -8.7      4.205      6.033
REMARK  Name = 41386
REMARK  2 active torsions:
REMARK  status: ('A' for Active; 'I' for Inactive)
REMARK    1  A    between atoms: C_1  and  N_4
REMARK    2  A    between atoms: C_1  and  C_14
REMARK                            x       y       z     vdW  Elec       q    Type
REMARK                         _______ _______ _______ _____ _____    ______ ____
ROOT
ATOM      1  C   UNL     1      35.171 -16.649 -21.370  0.00  0.00    +0.121 C 
ATOM      2  C   UNL     1      34.621 -15.797 -20.223  0.00  0.00    +0.029 C 
ENDROOT
BRANCH   1   4
ATOM      3  O   UNL     1      37.039 -18.941 -21.199  0.00  0.00    -0.273 OA
ATOM      4  N   UNL     1      34.857 -18.038 -21.139  0.00  0.00    -0.177 N 
ATOM      5  N   UNL     1      33.577 -18.490 -20.959  0.00  0.00    -0.165 NA
ATOM      6  N   UNL     1      32.617 -20.643 -20.557  0.00  0.00    -0.344 N 
ATOM      7  C   UNL     1      35.829 -19.030 -21.078  0.00  0.00    +0.252 C 
ATOM      8  C   UNL     1      35.060 -20.290 -20.824  0.00  0.00    +0.149 C 
ATOM      9  C   UNL     1      33.646 -19.774 -20.776  0.00  0.00    +0.129 C 
ATOM     10  H   UNL     1      31.691 -20.311 -20.524  0.00  0.00    +0.143 HD
ATOM     11  H   UNL     1      32.800 -21.602 -20.432  0.00  0.00    +0.143 HD
ENDBRANCH   1   4
BRANCH   1  14
ATOM     12 CL   UNL     1      33.155 -12.823 -24.212  0.00  0.00    -0.081 Cl
ATOM     13 CL   UNL     1      33.127 -14.857 -26.729  0.00  0.00    -0.081 Cl
ATOM     14  C   UNL     1      34.652 -16.181 -22.715  0.00  0.00    -0.001 C 
ATOM     15  C   UNL     1      34.195 -14.883 -22.846  0.00  0.00    +0.010 C 
ATOM     16  C   UNL     1      34.649 -17.065 -23.780  0.00  0.00    -0.002 C 
ATOM     17  C   UNL     1      33.718 -14.453 -24.085  0.00  0.00    +0.068 C 
ATOM     18  C   UNL     1      34.172 -16.636 -25.018  0.00  0.00    +0.012 C 
ATOM     19  C   UNL     1      33.706 -15.330 -25.170  0.00  0.00    +0.068 C 
ENDBRANCH   1  14
TORSDOF 2
ENDMDL
MODEL 4
REMARK VINA RESULT:      -8.3      7.988      9.566
REMARK  Name = 41386
REMARK  2 active torsions:
REMARK  status: ('A' for Active; 'I' for Inactive)
REMARK    1  A    between atoms: C_1  and  N_4
REMARK    2  A    between atoms: C_1  and  C_14
REMARK                            x       y       z     vdW  Elec       q    Type
REMARK                         _______ _______ _______ _____ _____    ______ ____
ROOT
ATOM      1  C   UNL     1      36.382 -23.229 -16.090  0.00  0.00    +0.121 C 
ATOM      2  C   UNL     1      36.990 -21.826 -16.164  0.00  0.00    +0.029 C 
ENDROOT
BRANCH   1   4
ATOM      3  O   UNL     1      36.471 -26.141 -15.556  0.00  0.00    -0.273 OA
ATOM      4  N   UNL     1      36.854 -23.902 -14.905  0.00  0.00    -0.177 N 
ATOM      5  N   UNL     1      37.349 -23.233 -13.818  0.00  0.00    -0.165 NA
ATOM      6  N   UNL     1      38.219 -23.920 -11.699  0.00  0.00    -0.344 N 
ATOM      7  C   UNL     1      36.846 -25.287 -14.771  0.00  0.00    +0.252 C 
ATOM      8  C   UNL     1      37.416 -25.533 -13.408  0.00  0.00    +0.149 C 
ATOM      9  C   UNL     1      37.683 -24.127 -12.936  0.00  0.00    +0.129 C 
ATOM     10  H   UNL     1      38.395 -23.004 -11.386  0.00  0.00    +0.143 HD
ATOM     11  H   UNL     1      38.430 -24.688 -11.119  0.00  0.00    +0.143 HD
ENDBRANCH   1   4
BRANCH   1  14
ATOM     12 CL   UNL     1      31.902 -23.338 -13.503  0.00  0.00    -0.081 Cl
ATOM     13 CL   UNL     1      30.381 -23.057 -16.345  0.00  0.00    -0.081 Cl
ATOM     14  C   UNL     1      34.868 -23.187 -16.136  0.00  0.00    -0.001 C 
ATOM     15  C   UNL     1      34.154 -23.271 -14.956  0.00  0.00    +0.010 C 
ATOM     16  C   UNL     1      34.236 -23.065 -17.362  0.00  0.00    -0.002 C 
ATOM     17  C   UNL     1      32.760 -23.232 -15.000  0.00  0.00    +0.068 C 
ATOM     18  C   UNL     1      32.842 -23.027 -17.406  0.00  0.00    +0.012 C 
ATOM     19  C   UNL     1      32.105 -23.110 -16.225  0.00  0.00    +0.068 C 
ENDBRANCH   1  14
TORSDOF 2
ENDMDL
MODEL 5
REMARK VINA RESULT:      -8.2      7.324      9.722
REMARK  Name = 41386
REMARK  2 active torsions:
REMARK  status: ('A' for Active; 'I' for Inactive)
REMARK    1  A    between atoms: C_1  and  N_4
REMARK    2  A    between atoms: C_1  and  C_14
REMARK                            x       y       z     vdW  Elec       q    Type
REMARK                         _______ _______ _______ _____ _____    ______ ____
ROOT
ATOM      1  C   UNL     1      35.394 -23.334 -14.435  0.00  0.00    +0.121 C 
ATOM      2  C   UNL     1      34.221 -24.318 -14.442  0.00  0.00    +0.029 C 
ENDROOT
BRANCH   1   4
ATOM      3  O   UNL     1      36.843 -22.690 -11.933  0.00  0.00    -0.273 OA
ATOM      4  N   UNL     1      36.566 -23.978 -13.894  0.00  0.00    -0.177 N 
ATOM      5  N   UNL     1      37.186 -25.031 -14.512  0.00  0.00    -0.165 NA
ATOM      6  N   UNL     1      39.099 -26.369 -13.992  0.00  0.00    -0.344 N 
ATOM      7  C   UNL     1      37.160 -23.583 -12.700  0.00  0.00    +0.252 C 
ATOM      8  C   UNL     1      38.321 -24.515 -12.535  0.00  0.00    +0.149 C 
ATOM      9  C   UNL     1      38.197 -25.370 -13.769  0.00  0.00    +0.129 C 
ATOM     10  H   UNL     1      39.022 -26.932 -14.796  0.00  0.00    +0.143 HD
ATOM     11  H   UNL     1      39.827 -26.528 -13.348  0.00  0.00    +0.143 HD
ENDBRANCH   1   4
BRANCH   1  14
ATOM     12 CL   UNL     1      33.740 -22.624 -19.286  0.00  0.00    -0.081 Cl
ATOM     13 CL   UNL     1      36.513 -21.069 -19.886  0.00  0.00    -0.081 Cl
ATOM     14  C   UNL     1      35.660 -22.769 -15.815  0.00  0.00    -0.001 C 
ATOM     15  C   UNL     1      34.708 -22.928 -16.805  0.00  0.00    +0.010 C 
ATOM     16  C   UNL     1      36.852 -22.106 -16.052  0.00  0.00    -0.002 C 
ATOM     17  C   UNL     1      34.955 -22.406 -18.075  0.00  0.00    +0.068 C 
ATOM     18  C   UNL     1      37.099 -21.586 -17.322  0.00  0.00    +0.012 C 
ATOM     19  C   UNL     1      36.150 -21.736 -18.333  0.00  0.00    +0.068 C 
ENDBRANCH   1  14
TORSDOF 2
ENDMDL
MODEL 6
REMARK VINA RESULT:      -8.2      1.889      3.053
REMARK  Name = 41386
REMARK  2 active torsions:
REMARK  status: ('A' for Active; 'I' for Inactive)
REMARK    1  A    between atoms: C_1  and  N_4
REMARK    2  A    between atoms: C_1  and  C_14
REMARK                            x       y       z     vdW  Elec       q    Type
REMARK                         _______ _______ _______ _____ _____    ______ ____
ROOT
ATOM      1  C   UNL     1      33.822 -19.873 -21.409  0.00  0.00    +0.121 C 
ATOM      2  C   UNL     1      32.356 -19.785 -20.980  0.00  0.00    +0.029 C 
ENDROOT
BRANCH   1   4
ATOM      3  O   UNL     1      35.286 -19.061 -23.852  0.00  0.00    -0.273 OA
ATOM      4  N   UNL     1      34.307 -18.561 -21.761  0.00  0.00    -0.177 N 
ATOM      5  N   UNL     1      34.135 -17.466 -20.957  0.00  0.00    -0.165 NA
ATOM      6  N   UNL     1      34.753 -15.162 -21.135  0.00  0.00    -0.344 N 
ATOM      7  C   UNL     1      34.985 -18.302 -22.947  0.00  0.00    +0.252 C 
ATOM      8  C   UNL     1      35.288 -16.836 -22.890  0.00  0.00    +0.149 C 
ATOM      9  C   UNL     1      34.682 -16.456 -21.564  0.00  0.00    +0.129 C 
ATOM     10  H   UNL     1      34.358 -14.908 -20.270  0.00  0.00    +0.143 HD
ATOM     11  H   UNL     1      35.198 -14.482 -21.691  0.00  0.00    +0.143 HD
ENDBRANCH   1   4
BRANCH   1  14
ATOM     12 CL   UNL     1      34.125 -23.030 -17.320  0.00  0.00    -0.081 Cl
ATOM     13 CL   UNL     1      37.289 -22.368 -17.182  0.00  0.00    -0.081 Cl
ATOM     14  C   UNL     1      34.683 -20.511 -20.337  0.00  0.00    -0.001 C 
ATOM     15  C   UNL     1      34.098 -21.371 -19.426  0.00  0.00    +0.010 C 
ATOM     16  C   UNL     1      36.034 -20.216 -20.295  0.00  0.00    -0.002 C 
ATOM     17  C   UNL     1      34.891 -21.958 -18.440  0.00  0.00    +0.068 C 
ATOM     18  C   UNL     1      36.827 -20.802 -19.308  0.00  0.00    +0.012 C 
ATOM     19  C   UNL     1      36.255 -21.673 -18.381  0.00  0.00    +0.068 C 
ENDBRANCH   1  14
TORSDOF 2
ENDMDL
MODEL 7
REMARK VINA RESULT:      -8.1      5.630      7.973
REMARK  Name = 41386
REMARK  2 active torsions:
REMARK  status: ('A' for Active; 'I' for Inactive)
REMARK    1  A    between atoms: C_1  and  N_4
REMARK    2  A    between atoms: C_1  and  C_14
REMARK                            x       y       z     vdW  Elec       q    Type
REMARK                         _______ _______ _______ _____ _____    ______ ____
ROOT
ATOM      1  C   UNL     1      32.755 -14.076 -24.472  0.00  0.00    +0.121 C 
ATOM      2  C   UNL     1      32.831 -14.572 -25.918  0.00  0.00    +0.029 C 
ENDROOT
BRANCH   1   4
ATOM      3  O   UNL     1      32.168 -14.777 -21.656  0.00  0.00    -0.273 OA
ATOM      4  N   UNL     1      33.480 -14.975 -23.610  0.00  0.00    -0.177 N 
ATOM      5  N   UNL     1      34.596 -15.656 -24.017  0.00  0.00    -0.165 NA
ATOM      6  N   UNL     1      36.074 -17.209 -22.956  0.00  0.00    -0.344 N 
ATOM      7  C   UNL     1      33.103 -15.226 -22.295  0.00  0.00    +0.252 C 
ATOM      8  C   UNL     1      34.123 -16.203 -21.795  0.00  0.00    +0.149 C 
ATOM      9  C   UNL     1      34.998 -16.371 -23.010  0.00  0.00    +0.129 C 
ATOM     10  H   UNL     1      36.649 -17.322 -23.747  0.00  0.00    +0.143 HD
ATOM     11  H   UNL     1      36.276 -17.700 -22.127  0.00  0.00    +0.143 HD
ENDBRANCH   1   4
BRANCH   1  14
ATOM     12 CL   UNL     1      35.768 -10.296 -26.320  0.00  0.00    -0.081 Cl
ATOM     13 CL   UNL     1      34.726  -8.429 -23.891  0.00  0.00    -0.081 Cl
ATOM     14  C   UNL     1      33.262 -12.653 -24.340  0.00  0.00    -0.001 C 
ATOM     15  C   UNL     1      34.169 -12.172 -25.266  0.00  0.00    +0.010 C 
ATOM     16  C   UNL     1      32.804 -11.870 -23.295  0.00  0.00    -0.002 C 
ATOM     17  C   UNL     1      34.635 -10.863 -25.143  0.00  0.00    +0.068 C 
ATOM     18  C   UNL     1      33.270 -10.562 -23.172  0.00  0.00    +0.012 C 
ATOM     19  C   UNL     1      34.185 -10.058 -24.096  0.00  0.00    +0.068 C 
ENDBRANCH   1  14
TORSDOF 2
ENDMDL
MODEL 8
REMARK VINA RESULT:      -8.1      3.534      5.228
REMARK  Name = 41386
REMARK  2 active torsions:
REMARK  status: ('A' for Active; 'I' for Inactive)
REMARK    1  A    between atoms: C_1  and  N_4
REMARK    2  A    between atoms: C_1  and  C_14
REMARK                            x       y       z     vdW  Elec       q    Type
REMARK                         _______ _______ _______ _____ _____    ______ ____
ROOT
ATOM      1  C   UNL     1      32.543 -13.854 -22.975  0.00  0.00    +0.121 C 
ATOM      2  C   UNL     1      32.102 -12.981 -21.797  0.00  0.00    +0.029 C 
ENDROOT
BRANCH   1   4
ATOM      3  O   UNL     1      32.533 -14.221 -25.914  0.00  0.00    -0.273 OA
ATOM      4  N   UNL     1      33.182 -13.036 -23.975  0.00  0.00    -0.177 N 
ATOM      5  N   UNL     1      33.914 -11.921 -23.666  0.00  0.00    -0.165 NA
ATOM      6  N   UNL     1      35.115 -10.310 -24.964  0.00  0.00    -0.344 N 
ATOM      7  C   UNL     1      33.104 -13.312 -25.337  0.00  0.00    +0.252 C 
ATOM      8  C   UNL     1      33.898 -12.219 -25.984  0.00  0.00    +0.149 C 
ATOM      9  C   UNL     1      34.344 -11.422 -24.786  0.00  0.00    +0.129 C 
ATOM     10  H   UNL     1      35.409  -9.786 -24.184  0.00  0.00    +0.143 HD
ATOM     11  H   UNL     1      35.378 -10.032 -25.871  0.00  0.00    +0.143 HD
ENDBRANCH   1   4
BRANCH   1  14
ATOM     12 CL   UNL     1      35.199 -18.116 -24.227  0.00  0.00    -0.081 Cl
ATOM     13 CL   UNL     1      36.119 -18.318 -21.131  0.00  0.00    -0.081 Cl
ATOM     14  C   UNL     1      33.446 -14.987 -22.527  0.00  0.00    -0.001 C 
ATOM     15  C   UNL     1      33.864 -15.923 -23.453  0.00  0.00    +0.010 C 
ATOM     16  C   UNL     1      33.829 -15.055 -21.199  0.00  0.00    -0.002 C 
ATOM     17  C   UNL     1      34.695 -16.964 -23.039  0.00  0.00    +0.068 C 
ATOM     18  C   UNL     1      34.659 -16.097 -20.785  0.00  0.00    +0.012 C 
ATOM     19  C   UNL     1      35.092 -17.051 -21.705  0.00  0.00    +0.068 C 
ENDBRANCH   1  14
TORSDOF 2
ENDMDL
MODEL 9
REMARK VINA RESULT:      -8.1      7.515      9.681
REMARK  Name = 41386
REMARK  2 active torsions:
REMARK  status: ('A' for Active; 'I' for Inactive)
REMARK    1  A    between atoms: C_1  and  N_4
REMARK    2  A    between atoms: C_1  and  C_14
REMARK                            x       y       z     vdW  Elec       q    Type
REMARK                         _______ _______ _______ _____ _____    ______ ____
ROOT
ATOM      1  C   UNL     1      35.888 -23.523 -14.329  0.00  0.00    +0.121 C 
ATOM      2  C   UNL     1      34.813 -24.108 -13.410  0.00  0.00    +0.029 C 
ENDROOT
BRANCH   1   4
ATOM      3  O   UNL     1      35.823 -26.271 -15.431  0.00  0.00    -0.273 OA
ATOM      4  N   UNL     1      36.980 -24.456 -14.457  0.00  0.00    -0.177 N 
ATOM      5  N   UNL     1      38.257 -24.163 -14.059  0.00  0.00    -0.165 NA
ATOM      6  N   UNL     1      40.321 -25.371 -14.081  0.00  0.00    -0.344 N 
ATOM      7  C   UNL     1      36.824 -25.729 -14.996  0.00  0.00    +0.252 C 
ATOM      8  C   UNL     1      38.194 -26.330 -14.932  0.00  0.00    +0.149 C 
ATOM      9  C   UNL     1      38.986 -25.208 -14.312  0.00  0.00    +0.129 C 
ATOM     10  H   UNL     1      40.843 -24.641 -13.677  0.00  0.00    +0.143 HD
ATOM     11  H   UNL     1      40.763 -26.218 -14.320  0.00  0.00    +0.143 HD
ENDBRANCH   1   4
BRANCH   1  14
ATOM     12 CL   UNL     1      36.655 -21.336 -18.956  0.00  0.00    -0.081 Cl
ATOM     13 CL   UNL     1      33.583 -22.050 -19.680  0.00  0.00    -0.081 Cl
ATOM     14  C   UNL     1      35.322 -23.144 -15.684  0.00  0.00    -0.001 C 
ATOM     15  C   UNL     1      36.133 -22.494 -16.595  0.00  0.00    +0.010 C 
ATOM     16  C   UNL     1      34.006 -23.459 -15.975  0.00  0.00    -0.002 C 
ATOM     17  C   UNL     1      35.611 -22.147 -17.842  0.00  0.00    +0.068 C 
ATOM     18  C   UNL     1      33.484 -23.111 -17.220  0.00  0.00    +0.012 C 
ATOM     19  C   UNL     1      34.287 -22.455 -18.154  0.00  0.00    +0.068 C 
ENDBRANCH   1  14
TORSDOF 2
ENDMDL
