MODEL 1
REMARK VINA RESULT:      -7.8      0.000      0.000
REMARK  Name = 6420121
REMARK  9 active torsions:
REMARK  status: ('A' for Active; 'I' for Inactive)
REMARK    1  A    between atoms: N_2  and  C_7
REMARK    2  A    between atoms: N_3  and  C_13
REMARK    3  A    between atoms: C_13  and  C_14
REMARK    4  A    between atoms: C_14  and  C_15
REMARK    5  A    between atoms: C_15  and  C_16
REMARK    6  A    between atoms: C_16  and  C_17
REMARK    7  A    between atoms: C_17  and  C_18
REMARK    8  A    between atoms: C_18  and  C_20
REMARK    9  A    between atoms: C_20  and  O_21
REMARK                            x       y       z     vdW  Elec       q    Type
REMARK                         _______ _______ _______ _____ _____    ______ ____
ROOT
ATOM      1  O   UNL     1      34.573 -23.166 -14.708  0.00  0.00    -0.253 OA
ATOM      2  N   UNL     1      33.008 -24.763 -14.084  0.00  0.00    -0.291 N 
ATOM      3  N   UNL     1      35.120 -25.421 -14.730  0.00  0.00    -0.289 N 
ATOM      4  C   UNL     1      34.260 -24.342 -14.524  0.00  0.00    +0.301 C 
ATOM      5  H   UNL     1      32.853 -25.728 -13.967  0.00  0.00    +0.151 HD
ATOM      6  H   UNL     1      34.783 -26.330 -14.557  0.00  0.00    +0.151 HD
ENDROOT
BRANCH   2   7
ATOM      7  C   UNL     1      31.923 -23.852 -13.793  0.00  0.00    +0.073 C 
ATOM      8  C   UNL     1      30.645 -24.615 -13.429  0.00  0.00    +0.020 C 
ATOM      9  C   UNL     1      31.682 -22.890 -14.963  0.00  0.00    +0.020 C 
ATOM     10  C   UNL     1      30.012 -25.306 -14.637  0.00  0.00    +0.002 C 
ATOM     11  C   UNL     1      31.047 -23.585 -16.168  0.00  0.00    +0.002 C 
ATOM     12  C   UNL     1      29.772 -24.327 -15.782  0.00  0.00    +0.000 C 
ENDBRANCH   2   7
BRANCH   3  13
ATOM     13  C   UNL     1      36.475 -25.270 -15.184  0.00  0.00    +0.091 C 
BRANCH  13  14
ATOM     14  C   UNL     1      37.395 -26.362 -14.646  0.00  0.00    +0.021 C 
BRANCH  14  15
ATOM     15  C   UNL     1      38.570 -25.794 -13.843  0.00  0.00    +0.002 C 
BRANCH  15  16
ATOM     16  C   UNL     1      38.235 -25.539 -12.370  0.00  0.00    +0.001 C 
BRANCH  16  17
ATOM     17  C   UNL     1      38.162 -24.050 -12.013  0.00  0.00    +0.012 C 
BRANCH  17  18
ATOM     18  C   UNL     1      36.722 -23.537 -11.950  0.00  0.00    +0.109 C 
BRANCH  18  20
ATOM     19  O   UNL     1      36.009 -24.247  -9.731  0.00  0.00    -0.250 OA
ATOM     20  C   UNL     1      35.867 -24.277 -10.945  0.00  0.00    +0.314 C 
BRANCH  20  21
ATOM     21  O   UNL     1      34.909 -25.018 -11.561  0.00  0.00    -0.480 OA
ATOM     22  H   UNL     1      34.559 -25.777 -11.138  0.00  0.00    +0.295 HD
ENDBRANCH  20  21
ENDBRANCH  18  20
ENDBRANCH  17  18
ENDBRANCH  16  17
ENDBRANCH  15  16
ENDBRANCH  14  15
ENDBRANCH  13  14
ENDBRANCH   3  13
TORSDOF 9
ENDMDL
MODEL 2
REMARK VINA RESULT:      -7.7      6.294      8.722
REMARK  Name = 6420121
REMARK  9 active torsions:
REMARK  status: ('A' for Active; 'I' for Inactive)
REMARK    1  A    between atoms: N_2  and  C_7
REMARK    2  A    between atoms: N_3  and  C_13
REMARK    3  A    between atoms: C_13  and  C_14
REMARK    4  A    between atoms: C_14  and  C_15
REMARK    5  A    between atoms: C_15  and  C_16
REMARK    6  A    between atoms: C_16  and  C_17
REMARK    7  A    between atoms: C_17  and  C_18
REMARK    8  A    between atoms: C_18  and  C_20
REMARK    9  A    between atoms: C_20  and  O_21
REMARK                            x       y       z     vdW  Elec       q    Type
REMARK                         _______ _______ _______ _____ _____    ______ ____
ROOT
ATOM      1  O   UNL     1      33.959 -23.654 -16.927  0.00  0.00    -0.253 OA
ATOM      2  N   UNL     1      31.716 -23.059 -16.893  0.00  0.00    -0.291 N 
ATOM      3  N   UNL     1      33.029 -22.475 -18.696  0.00  0.00    -0.289 N 
ATOM      4  C   UNL     1      32.989 -23.113 -17.454  0.00  0.00    +0.301 C 
ATOM      5  H   UNL     1      31.002 -22.602 -17.394  0.00  0.00    +0.151 HD
ATOM      6  H   UNL     1      32.201 -22.068 -19.041  0.00  0.00    +0.151 HD
ENDROOT
BRANCH   2   7
ATOM      7  C   UNL     1      31.392 -23.640 -15.609  0.00  0.00    +0.073 C 
ATOM      8  C   UNL     1      30.532 -24.897 -15.776  0.00  0.00    +0.020 C 
ATOM      9  C   UNL     1      30.707 -22.615 -14.697  0.00  0.00    +0.020 C 
ATOM     10  C   UNL     1      29.104 -24.575 -16.220  0.00  0.00    +0.002 C 
ATOM     11  C   UNL     1      29.281 -22.297 -15.144  0.00  0.00    +0.002 C 
ATOM     12  C   UNL     1      28.442 -23.563 -15.291  0.00  0.00    +0.000 C 
ENDBRANCH   2   7
BRANCH   3  13
ATOM     13  C   UNL     1      34.220 -22.385 -19.493  0.00  0.00    +0.091 C 
BRANCH  13  14
ATOM     14  C   UNL     1      34.587 -20.942 -19.829  0.00  0.00    +0.021 C 
BRANCH  14  15
ATOM     15  C   UNL     1      33.484 -20.225 -20.615  0.00  0.00    +0.002 C 
BRANCH  15  16
ATOM     16  C   UNL     1      33.935 -18.893 -21.221  0.00  0.00    +0.001 C 
BRANCH  16  17
ATOM     17  C   UNL     1      35.166 -19.023 -22.124  0.00  0.00    +0.012 C 
BRANCH  17  18
ATOM     18  C   UNL     1      34.791 -19.205 -23.596  0.00  0.00    +0.109 C 
BRANCH  18  20
ATOM     19  O   UNL     1      34.473 -17.760 -25.532  0.00  0.00    -0.250 OA
ATOM     20  C   UNL     1      34.920 -17.935 -24.407  0.00  0.00    +0.314 C 
BRANCH  20  21
ATOM     21  O   UNL     1      35.626 -16.987 -23.735  0.00  0.00    -0.480 OA
ATOM     22  H   UNL     1      35.342 -16.703 -22.889  0.00  0.00    +0.295 HD
ENDBRANCH  20  21
ENDBRANCH  18  20
ENDBRANCH  17  18
ENDBRANCH  16  17
ENDBRANCH  15  16
ENDBRANCH  14  15
ENDBRANCH  13  14
ENDBRANCH   3  13
TORSDOF 9
ENDMDL
MODEL 3
REMARK VINA RESULT:      -7.6      6.399      7.464
REMARK  Name = 6420121
REMARK  9 active torsions:
REMARK  status: ('A' for Active; 'I' for Inactive)
REMARK    1  A    between atoms: N_2  and  C_7
REMARK    2  A    between atoms: N_3  and  C_13
REMARK    3  A    between atoms: C_13  and  C_14
REMARK    4  A    between atoms: C_14  and  C_15
REMARK    5  A    between atoms: C_15  and  C_16
REMARK    6  A    between atoms: C_16  and  C_17
REMARK    7  A    between atoms: C_17  and  C_18
REMARK    8  A    between atoms: C_18  and  C_20
REMARK    9  A    between atoms: C_20  and  O_21
REMARK                            x       y       z     vdW  Elec       q    Type
REMARK                         _______ _______ _______ _____ _____    ______ ____
ROOT
ATOM      1  O   UNL     1      34.050 -21.352 -19.648  0.00  0.00    -0.253 OA
ATOM      2  N   UNL     1      35.273 -19.649 -20.645  0.00  0.00    -0.291 N 
ATOM      3  N   UNL     1      36.262 -20.985 -19.048  0.00  0.00    -0.289 N 
ATOM      4  C   UNL     1      35.098 -20.718 -19.771  0.00  0.00    +0.301 C 
ATOM      5  H   UNL     1      36.151 -19.205 -20.671  0.00  0.00    +0.151 HD
ATOM      6  H   UNL     1      37.054 -20.425 -19.212  0.00  0.00    +0.151 HD
ENDROOT
BRANCH   2   7
ATOM      7  C   UNL     1      34.228 -19.159 -21.516  0.00  0.00    +0.073 C 
ATOM      8  C   UNL     1      34.647 -19.255 -22.987  0.00  0.00    +0.020 C 
ATOM      9  C   UNL     1      33.828 -17.727 -21.145  0.00  0.00    +0.020 C 
ATOM     10  C   UNL     1      35.719 -18.230 -23.358  0.00  0.00    +0.002 C 
ATOM     11  C   UNL     1      34.902 -16.705 -21.520  0.00  0.00    +0.002 C 
ATOM     12  C   UNL     1      35.293 -16.813 -22.990  0.00  0.00    +0.000 C 
ENDBRANCH   2   7
BRANCH   3  13
ATOM     13  C   UNL     1      36.357 -22.038 -18.075  0.00  0.00    +0.091 C 
BRANCH  13  14
ATOM     14  C   UNL     1      37.106 -21.603 -16.819  0.00  0.00    +0.021 C 
BRANCH  14  15
ATOM     15  C   UNL     1      37.361 -22.769 -15.857  0.00  0.00    +0.002 C 
BRANCH  15  16
ATOM     16  C   UNL     1      36.124 -23.172 -15.048  0.00  0.00    +0.001 C 
BRANCH  16  17
ATOM     17  C   UNL     1      35.773 -24.659 -15.176  0.00  0.00    +0.012 C 
BRANCH  17  18
ATOM     18  C   UNL     1      36.623 -25.539 -14.258  0.00  0.00    +0.109 C 
BRANCH  18  20
ATOM     19  O   UNL     1      38.520 -27.005 -14.692  0.00  0.00    -0.250 OA
ATOM     20  C   UNL     1      37.411 -26.594 -15.002  0.00  0.00    +0.314 C 
BRANCH  20  21
ATOM     21  O   UNL     1      36.738 -27.033 -16.098  0.00  0.00    -0.480 OA
ATOM     22  H   UNL     1      37.037 -26.803 -16.955  0.00  0.00    +0.295 HD
ENDBRANCH  20  21
ENDBRANCH  18  20
ENDBRANCH  17  18
ENDBRANCH  16  17
ENDBRANCH  15  16
ENDBRANCH  14  15
ENDBRANCH  13  14
ENDBRANCH   3  13
TORSDOF 9
ENDMDL
MODEL 4
REMARK VINA RESULT:      -7.6      3.175      7.747
REMARK  Name = 6420121
REMARK  9 active torsions:
REMARK  status: ('A' for Active; 'I' for Inactive)
REMARK    1  A    between atoms: N_2  and  C_7
REMARK    2  A    between atoms: N_3  and  C_13
REMARK    3  A    between atoms: C_13  and  C_14
REMARK    4  A    between atoms: C_14  and  C_15
REMARK    5  A    between atoms: C_15  and  C_16
REMARK    6  A    between atoms: C_16  and  C_17
REMARK    7  A    between atoms: C_17  and  C_18
REMARK    8  A    between atoms: C_18  and  C_20
REMARK    9  A    between atoms: C_20  and  O_21
REMARK                            x       y       z     vdW  Elec       q    Type
REMARK                         _______ _______ _______ _____ _____    ______ ____
ROOT
ATOM      1  O   UNL     1      33.770 -23.782 -15.365  0.00  0.00    -0.253 OA
ATOM      2  N   UNL     1      35.050 -24.475 -13.558  0.00  0.00    -0.291 N 
ATOM      3  N   UNL     1      32.815 -25.031 -13.658  0.00  0.00    -0.289 N 
ATOM      4  C   UNL     1      33.872 -24.374 -14.292  0.00  0.00    +0.301 C 
ATOM      5  H   UNL     1      35.031 -24.972 -12.707  0.00  0.00    +0.151 HD
ATOM      6  H   UNL     1      32.989 -25.479 -12.799  0.00  0.00    +0.151 HD
ENDROOT
BRANCH   2   7
ATOM      7  C   UNL     1      36.300 -23.886 -13.982  0.00  0.00    +0.073 C 
ATOM      8  C   UNL     1      37.064 -24.830 -14.918  0.00  0.00    +0.020 C 
ATOM      9  C   UNL     1      37.159 -23.486 -12.777  0.00  0.00    +0.020 C 
ATOM     10  C   UNL     1      37.647 -26.037 -14.184  0.00  0.00    +0.002 C 
ATOM     11  C   UNL     1      37.741 -24.696 -12.047  0.00  0.00    +0.002 C 
ATOM     12  C   UNL     1      38.505 -25.613 -12.997  0.00  0.00    +0.000 C 
ENDBRANCH   2   7
BRANCH   3  13
ATOM     13  C   UNL     1      31.486 -25.083 -14.200  0.00  0.00    +0.091 C 
BRANCH  13  14
ATOM     14  C   UNL     1      30.585 -23.987 -13.638  0.00  0.00    +0.021 C 
BRANCH  14  15
ATOM     15  C   UNL     1      30.337 -22.859 -14.646  0.00  0.00    +0.002 C 
BRANCH  15  16
ATOM     16  C   UNL     1      30.247 -23.347 -16.095  0.00  0.00    +0.001 C 
BRANCH  16  17
ATOM     17  C   UNL     1      28.810 -23.430 -16.620  0.00  0.00    +0.012 C 
BRANCH  17  18
ATOM     18  C   UNL     1      27.800 -22.813 -15.651  0.00  0.00    +0.109 C 
BRANCH  18  20
ATOM     19  O   UNL     1      26.890 -21.355 -17.378  0.00  0.00    -0.250 OA
ATOM     20  C   UNL     1      26.739 -21.985 -16.340  0.00  0.00    +0.314 C 
BRANCH  20  21
ATOM     21  O   UNL     1      25.569 -22.001 -15.648  0.00  0.00    -0.480 OA
ATOM     22  H   UNL     1      24.786 -21.673 -16.043  0.00  0.00    +0.295 HD
ENDBRANCH  20  21
ENDBRANCH  18  20
ENDBRANCH  17  18
ENDBRANCH  16  17
ENDBRANCH  15  16
ENDBRANCH  14  15
ENDBRANCH  13  14
ENDBRANCH   3  13
TORSDOF 9
ENDMDL
MODEL 5
REMARK VINA RESULT:      -7.6      6.909      9.069
REMARK  Name = 6420121
REMARK  9 active torsions:
REMARK  status: ('A' for Active; 'I' for Inactive)
REMARK    1  A    between atoms: N_2  and  C_7
REMARK    2  A    between atoms: N_3  and  C_13
REMARK    3  A    between atoms: C_13  and  C_14
REMARK    4  A    between atoms: C_14  and  C_15
REMARK    5  A    between atoms: C_15  and  C_16
REMARK    6  A    between atoms: C_16  and  C_17
REMARK    7  A    between atoms: C_17  and  C_18
REMARK    8  A    between atoms: C_18  and  C_20
REMARK    9  A    between atoms: C_20  and  O_21
REMARK                            x       y       z     vdW  Elec       q    Type
REMARK                         _______ _______ _______ _____ _____    ______ ____
ROOT
ATOM      1  O   UNL     1      35.993 -20.604 -19.582  0.00  0.00    -0.253 OA
ATOM      2  N   UNL     1      34.655 -19.254 -20.913  0.00  0.00    -0.291 N 
ATOM      3  N   UNL     1      33.796 -21.201 -20.028  0.00  0.00    -0.289 N 
ATOM      4  C   UNL     1      34.915 -20.372 -20.126  0.00  0.00    +0.301 C 
ATOM      5  H   UNL     1      33.758 -19.156 -21.307  0.00  0.00    +0.151 HD
ATOM      6  H   UNL     1      32.973 -20.936 -20.499  0.00  0.00    +0.151 HD
ENDROOT
BRANCH   2   7
ATOM      7  C   UNL     1      35.639 -18.229 -21.182  0.00  0.00    +0.073 C 
ATOM      8  C   UNL     1      35.048 -16.830 -20.971  0.00  0.00    +0.020 C 
ATOM      9  C   UNL     1      36.220 -18.379 -22.592  0.00  0.00    +0.020 C 
ATOM     10  C   UNL     1      34.050 -16.446 -22.064  0.00  0.00    +0.002 C 
ATOM     11  C   UNL     1      35.220 -17.992 -23.681  0.00  0.00    +0.002 C 
ATOM     12  C   UNL     1      34.656 -16.593 -23.456  0.00  0.00    +0.000 C 
ENDBRANCH   2   7
BRANCH   3  13
ATOM     13  C   UNL     1      33.789 -22.424 -19.275  0.00  0.00    +0.091 C 
BRANCH  13  14
ATOM     14  C   UNL     1      32.835 -22.370 -18.085  0.00  0.00    +0.021 C 
BRANCH  14  15
ATOM     15  C   UNL     1      33.233 -23.344 -16.971  0.00  0.00    +0.002 C 
BRANCH  15  16
ATOM     16  C   UNL     1      32.166 -23.492 -15.882  0.00  0.00    +0.001 C 
BRANCH  16  17
ATOM     17  C   UNL     1      30.852 -22.779 -16.219  0.00  0.00    +0.012 C 
BRANCH  17  18
ATOM     18  C   UNL     1      29.638 -23.700 -16.080  0.00  0.00    +0.109 C 
BRANCH  18  20
ATOM     19  O   UNL     1      27.763 -24.021 -17.601  0.00  0.00    -0.250 OA
ATOM     20  C   UNL     1      28.465 -23.274 -16.934  0.00  0.00    +0.314 C 
BRANCH  20  21
ATOM     21  O   UNL     1      28.284 -21.928 -16.894  0.00  0.00    -0.480 OA
ATOM     22  H   UNL     1      28.303 -21.477 -16.073  0.00  0.00    +0.295 HD
ENDBRANCH  20  21
ENDBRANCH  18  20
ENDBRANCH  17  18
ENDBRANCH  16  17
ENDBRANCH  15  16
ENDBRANCH  14  15
ENDBRANCH  13  14
ENDBRANCH   3  13
TORSDOF 9
ENDMDL
MODEL 6
REMARK VINA RESULT:      -7.5     10.511     12.919
REMARK  Name = 6420121
REMARK  9 active torsions:
REMARK  status: ('A' for Active; 'I' for Inactive)
REMARK    1  A    between atoms: N_2  and  C_7
REMARK    2  A    between atoms: N_3  and  C_13
REMARK    3  A    between atoms: C_13  and  C_14
REMARK    4  A    between atoms: C_14  and  C_15
REMARK    5  A    between atoms: C_15  and  C_16
REMARK    6  A    between atoms: C_16  and  C_17
REMARK    7  A    between atoms: C_17  and  C_18
REMARK    8  A    between atoms: C_18  and  C_20
REMARK    9  A    between atoms: C_20  and  O_21
REMARK                            x       y       z     vdW  Elec       q    Type
REMARK                         _______ _______ _______ _____ _____    ______ ____
ROOT
ATOM      1  O   UNL     1      34.340 -17.196 -22.365  0.00  0.00    -0.253 OA
ATOM      2  N   UNL     1      35.231 -18.425 -20.609  0.00  0.00    -0.291 N 
ATOM      3  N   UNL     1      34.895 -16.158 -20.365  0.00  0.00    -0.289 N 
ATOM      4  C   UNL     1      34.782 -17.257 -21.219  0.00  0.00    +0.301 C 
ATOM      5  H   UNL     1      35.568 -18.372 -19.686  0.00  0.00    +0.151 HD
ATOM      6  H   UNL     1      35.262 -16.301 -19.463  0.00  0.00    +0.151 HD
ENDROOT
BRANCH   2   7
ATOM      7  C   UNL     1      35.227 -19.713 -21.267  0.00  0.00    +0.073 C 
ATOM      8  C   UNL     1      33.818 -20.315 -21.292  0.00  0.00    +0.020 C 
ATOM      9  C   UNL     1      36.228 -20.670 -20.610  0.00  0.00    +0.020 C 
ATOM     10  C   UNL     1      33.360 -20.790 -19.912  0.00  0.00    +0.002 C 
ATOM     11  C   UNL     1      35.766 -21.144 -19.232  0.00  0.00    +0.002 C 
ATOM     12  C   UNL     1      34.367 -21.749 -19.285  0.00  0.00    +0.000 C 
ENDBRANCH   2   7
BRANCH   3  13
ATOM     13  C   UNL     1      34.503 -14.829 -20.742  0.00  0.00    +0.091 C 
BRANCH  13  14
ATOM     14  C   UNL     1      33.015 -14.575 -20.519  0.00  0.00    +0.021 C 
BRANCH  14  15
ATOM     15  C   UNL     1      32.326 -14.002 -21.761  0.00  0.00    +0.002 C 
BRANCH  15  16
ATOM     16  C   UNL     1      31.957 -12.521 -21.624  0.00  0.00    +0.001 C 
BRANCH  16  17
ATOM     17  C   UNL     1      31.858 -12.053 -20.168  0.00  0.00    +0.012 C 
BRANCH  17  18
ATOM     18  C   UNL     1      31.066 -10.752 -20.029  0.00  0.00    +0.109 C 
BRANCH  18  20
ATOM     19  O   UNL     1      31.951  -8.932 -21.385  0.00  0.00    -0.250 OA
ATOM     20  C   UNL     1      31.891  -9.516 -20.312  0.00  0.00    +0.314 C 
BRANCH  20  21
ATOM     21  O   UNL     1      32.595  -9.128 -19.217  0.00  0.00    -0.480 OA
ATOM     22  H   UNL     1      33.288  -9.666 -18.890  0.00  0.00    +0.295 HD
ENDBRANCH  20  21
ENDBRANCH  18  20
ENDBRANCH  17  18
ENDBRANCH  16  17
ENDBRANCH  15  16
ENDBRANCH  14  15
ENDBRANCH  13  14
ENDBRANCH   3  13
TORSDOF 9
ENDMDL
MODEL 7
REMARK VINA RESULT:      -7.5     13.127     15.146
REMARK  Name = 6420121
REMARK  9 active torsions:
REMARK  status: ('A' for Active; 'I' for Inactive)
REMARK    1  A    between atoms: N_2  and  C_7
REMARK    2  A    between atoms: N_3  and  C_13
REMARK    3  A    between atoms: C_13  and  C_14
REMARK    4  A    between atoms: C_14  and  C_15
REMARK    5  A    between atoms: C_15  and  C_16
REMARK    6  A    between atoms: C_16  and  C_17
REMARK    7  A    between atoms: C_17  and  C_18
REMARK    8  A    between atoms: C_18  and  C_20
REMARK    9  A    between atoms: C_20  and  O_21
REMARK                            x       y       z     vdW  Elec       q    Type
REMARK                         _______ _______ _______ _____ _____    ______ ____
ROOT
ATOM      1  O   UNL     1      32.294 -13.792 -23.006  0.00  0.00    -0.253 OA
ATOM      2  N   UNL     1      34.166 -12.643 -23.756  0.00  0.00    -0.291 N 
ATOM      3  N   UNL     1      34.406 -14.340 -22.214  0.00  0.00    -0.289 N 
ATOM      4  C   UNL     1      33.510 -13.606 -22.995  0.00  0.00    +0.301 C 
ATOM      5  H   UNL     1      35.145 -12.571 -23.678  0.00  0.00    +0.151 HD
ATOM      6  H   UNL     1      35.364 -14.121 -22.269  0.00  0.00    +0.151 HD
ENDROOT
BRANCH   2   7
ATOM      7  C   UNL     1      33.481 -11.742 -24.655  0.00  0.00    +0.073 C 
ATOM      8  C   UNL     1      34.389 -11.325 -25.817  0.00  0.00    +0.020 C 
ATOM      9  C   UNL     1      32.942 -10.519 -23.905  0.00  0.00    +0.020 C 
ATOM     10  C   UNL     1      35.499 -10.369 -25.377  0.00  0.00    +0.002 C 
ATOM     11  C   UNL     1      34.053  -9.565 -23.469  0.00  0.00    +0.002 C 
ATOM     12  C   UNL     1      34.937  -9.155 -24.644  0.00  0.00    +0.000 C 
ENDBRANCH   2   7
BRANCH   3  13
ATOM     13  C   UNL     1      33.995 -15.398 -21.334  0.00  0.00    +0.091 C 
BRANCH  13  14
ATOM     14  C   UNL     1      34.956 -16.582 -21.358  0.00  0.00    +0.021 C 
BRANCH  14  15
ATOM     15  C   UNL     1      34.243 -17.920 -21.135  0.00  0.00    +0.002 C 
BRANCH  15  16
ATOM     16  C   UNL     1      34.522 -18.950 -22.234  0.00  0.00    +0.001 C 
BRANCH  16  17
ATOM     17  C   UNL     1      35.415 -18.412 -23.357  0.00  0.00    +0.012 C 
BRANCH  17  18
ATOM     18  C   UNL     1      34.636 -18.158 -24.649  0.00  0.00    +0.109 C 
BRANCH  18  20
ATOM     19  O   UNL     1      34.083 -16.245 -26.052  0.00  0.00    -0.250 OA
ATOM     20  C   UNL     1      34.723 -16.726 -25.128  0.00  0.00    +0.314 C 
BRANCH  20  21
ATOM     21  O   UNL     1      35.633 -16.017 -24.409  0.00  0.00    -0.480 OA
ATOM     22  H   UNL     1      36.022 -16.393 -23.645  0.00  0.00    +0.295 HD
ENDBRANCH  20  21
ENDBRANCH  18  20
ENDBRANCH  17  18
ENDBRANCH  16  17
ENDBRANCH  15  16
ENDBRANCH  14  15
ENDBRANCH  13  14
ENDBRANCH   3  13
TORSDOF 9
ENDMDL
MODEL 8
REMARK VINA RESULT:      -7.4     10.337     12.961
REMARK  Name = 6420121
REMARK  9 active torsions:
REMARK  status: ('A' for Active; 'I' for Inactive)
REMARK    1  A    between atoms: N_2  and  C_7
REMARK    2  A    between atoms: N_3  and  C_13
REMARK    3  A    between atoms: C_13  and  C_14
REMARK    4  A    between atoms: C_14  and  C_15
REMARK    5  A    between atoms: C_15  and  C_16
REMARK    6  A    between atoms: C_16  and  C_17
REMARK    7  A    between atoms: C_17  and  C_18
REMARK    8  A    between atoms: C_18  and  C_20
REMARK    9  A    between atoms: C_20  and  O_21
REMARK                            x       y       z     vdW  Elec       q    Type
REMARK                         _______ _______ _______ _____ _____    ______ ____
ROOT
ATOM      1  O   UNL     1      34.286 -17.212 -22.385  0.00  0.00    -0.253 OA
ATOM      2  N   UNL     1      35.140 -18.471 -20.632  0.00  0.00    -0.291 N 
ATOM      3  N   UNL     1      34.934 -16.187 -20.407  0.00  0.00    -0.289 N 
ATOM      4  C   UNL     1      34.745 -17.286 -21.246  0.00  0.00    +0.301 C 
ATOM      5  H   UNL     1      35.496 -18.428 -19.715  0.00  0.00    +0.151 HD
ATOM      6  H   UNL     1      35.308 -16.341 -19.510  0.00  0.00    +0.151 HD
ENDROOT
BRANCH   2   7
ATOM      7  C   UNL     1      35.053 -19.763 -21.276  0.00  0.00    +0.073 C 
ATOM      8  C   UNL     1      33.629 -20.323 -21.198  0.00  0.00    +0.020 C 
ATOM      9  C   UNL     1      36.069 -20.745 -20.681  0.00  0.00    +0.020 C 
ATOM     10  C   UNL     1      33.254 -20.774 -19.786  0.00  0.00    +0.002 C 
ATOM     11  C   UNL     1      35.689 -21.194 -19.270  0.00  0.00    +0.002 C 
ATOM     12  C   UNL     1      34.272 -21.757 -19.220  0.00  0.00    +0.000 C 
ENDBRANCH   2   7
BRANCH   3  13
ATOM     13  C   UNL     1      34.609 -14.841 -20.791  0.00  0.00    +0.091 C 
BRANCH  13  14
ATOM     14  C   UNL     1      33.131 -14.520 -20.593  0.00  0.00    +0.021 C 
BRANCH  14  15
ATOM     15  C   UNL     1      32.388 -14.341 -21.921  0.00  0.00    +0.002 C 
BRANCH  15  16
ATOM     16  C   UNL     1      32.647 -12.985 -22.586  0.00  0.00    +0.001 C 
BRANCH  16  17
ATOM     17  C   UNL     1      33.274 -13.103 -23.979  0.00  0.00    +0.012 C 
BRANCH  17  18
ATOM     18  C   UNL     1      33.347 -14.552 -24.464  0.00  0.00    +0.109 C 
BRANCH  18  20
ATOM     19  O   UNL     1      32.648 -13.859 -26.693  0.00  0.00    -0.250 OA
ATOM     20  C   UNL     1      33.162 -14.691 -25.959  0.00  0.00    +0.314 C 
BRANCH  20  21
ATOM     21  O   UNL     1      33.624 -15.888 -26.406  0.00  0.00    -0.480 OA
ATOM     22  H   UNL     1      34.030 -15.950 -27.248  0.00  0.00    +0.295 HD
ENDBRANCH  20  21
ENDBRANCH  18  20
ENDBRANCH  17  18
ENDBRANCH  16  17
ENDBRANCH  15  16
ENDBRANCH  14  15
ENDBRANCH  13  14
ENDBRANCH   3  13
TORSDOF 9
ENDMDL
MODEL 9
REMARK VINA RESULT:      -7.3      6.378      7.281
REMARK  Name = 6420121
REMARK  9 active torsions:
REMARK  status: ('A' for Active; 'I' for Inactive)
REMARK    1  A    between atoms: N_2  and  C_7
REMARK    2  A    between atoms: N_3  and  C_13
REMARK    3  A    between atoms: C_13  and  C_14
REMARK    4  A    between atoms: C_14  and  C_15
REMARK    5  A    between atoms: C_15  and  C_16
REMARK    6  A    between atoms: C_16  and  C_17
REMARK    7  A    between atoms: C_17  and  C_18
REMARK    8  A    between atoms: C_18  and  C_20
REMARK    9  A    between atoms: C_20  and  O_21
REMARK                            x       y       z     vdW  Elec       q    Type
REMARK                         _______ _______ _______ _____ _____    ______ ____
ROOT
ATOM      1  O   UNL     1      34.153 -21.276 -19.683  0.00  0.00    -0.253 OA
ATOM      2  N   UNL     1      35.320 -19.546 -20.700  0.00  0.00    -0.291 N 
ATOM      3  N   UNL     1      36.369 -20.866 -19.127  0.00  0.00    -0.289 N 
ATOM      4  C   UNL     1      35.185 -20.621 -19.825  0.00  0.00    +0.301 C 
ATOM      5  H   UNL     1      36.189 -19.084 -20.743  0.00  0.00    +0.151 HD
ATOM      6  H   UNL     1      37.146 -20.289 -19.306  0.00  0.00    +0.151 HD
ENDROOT
BRANCH   2   7
ATOM      7  C   UNL     1      34.248 -19.076 -21.548  0.00  0.00    +0.073 C 
ATOM      8  C   UNL     1      34.629 -19.184 -23.029  0.00  0.00    +0.020 C 
ATOM      9  C   UNL     1      33.844 -17.643 -21.182  0.00  0.00    +0.020 C 
ATOM     10  C   UNL     1      35.680 -18.152 -23.439  0.00  0.00    +0.002 C 
ATOM     11  C   UNL     1      34.897 -16.615 -21.595  0.00  0.00    +0.002 C 
ATOM     12  C   UNL     1      35.251 -16.735 -23.074  0.00  0.00    +0.000 C 
ENDBRANCH   2   7
BRANCH   3  13
ATOM     13  C   UNL     1      36.505 -21.918 -18.159  0.00  0.00    +0.091 C 
BRANCH  13  14
ATOM     14  C   UNL     1      37.161 -21.440 -16.867  0.00  0.00    +0.021 C 
BRANCH  14  15
ATOM     15  C   UNL     1      37.310 -22.563 -15.836  0.00  0.00    +0.002 C 
BRANCH  15  16
ATOM     16  C   UNL     1      35.981 -22.988 -15.203  0.00  0.00    +0.001 C 
BRANCH  16  17
ATOM     17  C   UNL     1      36.137 -24.084 -14.143  0.00  0.00    +0.012 C 
BRANCH  17  18
ATOM     18  C   UNL     1      36.075 -23.529 -12.718  0.00  0.00    +0.109 C 
BRANCH  18  20
ATOM     19  O   UNL     1      38.482 -23.797 -12.456  0.00  0.00    -0.250 OA
ATOM     20  C   UNL     1      37.438 -23.253 -12.125  0.00  0.00    +0.314 C 
BRANCH  20  21
ATOM     21  O   UNL     1      37.370 -22.320 -11.139  0.00  0.00    -0.480 OA
ATOM     22  H   UNL     1      36.541 -22.087 -10.771  0.00  0.00    +0.295 HD
ENDBRANCH  20  21
ENDBRANCH  18  20
ENDBRANCH  17  18
ENDBRANCH  16  17
ENDBRANCH  15  16
ENDBRANCH  14  15
ENDBRANCH  13  14
ENDBRANCH   3  13
TORSDOF 9
ENDMDL
