MODEL 1
REMARK VINA RESULT:      -9.8      0.000      0.000
REMARK  Name = 255
REMARK  7 active torsions:
REMARK  status: ('A' for Active; 'I' for Inactive)
REMARK    1  A    between atoms: P_1  and  O_3
REMARK    2  A    between atoms: P_1  and  O_5
REMARK    3  A    between atoms: P_1  and  O_15
REMARK    4  A    between atoms: O_5  and  C_6
REMARK    5  A    between atoms: C_9  and  N_14
REMARK    6  A    between atoms: O_15  and  C_16
REMARK    7  A    between atoms: C_19  and  N_24
REMARK                            x       y       z     vdW  Elec       q    Type
REMARK                         _______ _______ _______ _____ _____    ______ ____
ROOT
ATOM      1  P   UNL     1      34.504 -16.468 -21.668  0.00  0.00    +0.588 P 
ATOM      2  O   UNL     1      35.104 -16.278 -20.304  0.00  0.00    -0.205 OA
ENDROOT
BRANCH   1   3
ATOM      3  O   UNL     1      35.340 -15.779 -22.872  0.00  0.00    -0.283 OA
ATOM      4  H   UNL     1      35.102 -16.199 -23.713  0.00  0.00    +0.224 HD
ENDBRANCH   1   3
BRANCH   1   5
ATOM      5  O   UNL     1      33.006 -15.888 -21.869  0.00  0.00    -0.394 OA
BRANCH   5   6
ATOM      6  C   UNL     1      32.655 -14.574 -21.794  0.00  0.00    +0.150 C 
ATOM      7  C   UNL     1      32.557 -13.811 -22.956  0.00  0.00    +0.039 C 
ATOM      8  C   UNL     1      32.392 -13.994 -20.553  0.00  0.00    +0.039 C 
ATOM      9  C   UNL     1      31.934 -11.884 -21.638  0.00  0.00    +0.143 C 
ATOM     10  C   UNL     1      32.196 -12.465 -22.879  0.00  0.00    +0.027 C 
ATOM     11  C   UNL     1      32.032 -12.648 -20.476  0.00  0.00    +0.027 C 
BRANCH   9  14
ATOM     12  O   UNL     1      31.665  -9.921 -20.458  0.00  0.00    -0.126 OA
ATOM     13  O   UNL     1      31.161  -9.933 -22.594  0.00  0.00    -0.126 OA
ATOM     14  N   UNL     1      31.569 -10.514 -21.559  0.00  0.00    +0.058 N 
ENDBRANCH   9  14
ENDBRANCH   5   6
ENDBRANCH   1   5
BRANCH   1  15
ATOM     15  O   UNL     1      34.393 -18.002 -22.163  0.00  0.00    -0.394 OA
BRANCH  15  16
ATOM     16  C   UNL     1      34.432 -19.095 -21.341  0.00  0.00    +0.150 C 
ATOM     17  C   UNL     1      35.658 -19.649 -20.988  0.00  0.00    +0.039 C 
ATOM     18  C   UNL     1      33.246 -19.641 -20.862  0.00  0.00    +0.039 C 
ATOM     19  C   UNL     1      34.512 -21.315 -19.666  0.00  0.00    +0.143 C 
ATOM     20  C   UNL     1      35.698 -20.763 -20.149  0.00  0.00    +0.027 C 
ATOM     21  C   UNL     1      33.286 -20.755 -20.023  0.00  0.00    +0.027 C 
BRANCH  19  24
ATOM     22  O   UNL     1      33.774 -23.407 -19.037  0.00  0.00    -0.126 OA
ATOM     23  O   UNL     1      35.369 -22.465 -17.859  0.00  0.00    -0.126 OA
ATOM     24  N   UNL     1      34.553 -22.450 -18.814  0.00  0.00    +0.058 N 
ENDBRANCH  19  24
ENDBRANCH  15  16
ENDBRANCH   1  15
TORSDOF 7
ENDMDL
MODEL 2
REMARK VINA RESULT:      -9.7      9.454     12.316
REMARK  Name = 255
REMARK  7 active torsions:
REMARK  status: ('A' for Active; 'I' for Inactive)
REMARK    1  A    between atoms: P_1  and  O_3
REMARK    2  A    between atoms: P_1  and  O_5
REMARK    3  A    between atoms: P_1  and  O_15
REMARK    4  A    between atoms: O_5  and  C_6
REMARK    5  A    between atoms: C_9  and  N_14
REMARK    6  A    between atoms: O_15  and  C_16
REMARK    7  A    between atoms: C_19  and  N_24
REMARK                            x       y       z     vdW  Elec       q    Type
REMARK                         _______ _______ _______ _____ _____    ______ ____
ROOT
ATOM      1  P   UNL     1      33.666 -24.419 -13.764  0.00  0.00    +0.588 P 
ATOM      2  O   UNL     1      34.374 -24.393 -12.441  0.00  0.00    -0.205 OA
ENDROOT
BRANCH   1   3
ATOM      3  O   UNL     1      32.494 -25.532 -13.878  0.00  0.00    -0.283 OA
ATOM      4  H   UNL     1      32.717 -26.165 -14.578  0.00  0.00    +0.224 HD
ENDBRANCH   1   3
BRANCH   1   5
ATOM      5  O   UNL     1      34.594 -24.716 -15.058  0.00  0.00    -0.394 OA
BRANCH   5   6
ATOM      6  C   UNL     1      35.946 -24.876 -15.035  0.00  0.00    +0.150 C 
ATOM      7  C   UNL     1      36.495 -26.152 -14.916  0.00  0.00    +0.039 C 
ATOM      8  C   UNL     1      36.781 -23.764 -15.133  0.00  0.00    +0.039 C 
ATOM      9  C   UNL     1      38.715 -25.204 -14.991  0.00  0.00    +0.143 C 
ATOM     10  C   UNL     1      37.880 -26.317 -14.894  0.00  0.00    +0.027 C 
ATOM     11  C   UNL     1      38.167 -23.928 -15.110  0.00  0.00    +0.027 C 
BRANCH   9  14
ATOM     12  O   UNL     1      40.793 -24.780 -14.083  0.00  0.00    -0.126 OA
ATOM     13  O   UNL     1      40.666 -26.108 -15.826  0.00  0.00    -0.126 OA
ATOM     14  N   UNL     1      40.126 -25.372 -14.966  0.00  0.00    +0.058 N 
ENDBRANCH   9  14
ENDBRANCH   5   6
ENDBRANCH   1   5
BRANCH   1  15
ATOM     15  O   UNL     1      32.885 -23.060 -14.154  0.00  0.00    -0.394 OA
BRANCH  15  16
ATOM     16  C   UNL     1      31.720 -23.003 -14.870  0.00  0.00    +0.150 C 
ATOM     17  C   UNL     1      30.501 -22.961 -14.201  0.00  0.00    +0.039 C 
ATOM     18  C   UNL     1      31.764 -22.986 -16.260  0.00  0.00    +0.039 C 
ATOM     19  C   UNL     1      29.351 -22.885 -16.325  0.00  0.00    +0.143 C 
ATOM     20  C   UNL     1      29.313 -22.903 -14.930  0.00  0.00    +0.027 C 
ATOM     21  C   UNL     1      30.577 -22.927 -16.989  0.00  0.00    +0.027 C 
BRANCH  19  24
ATOM     22  O   UNL     1      27.676 -23.886 -17.554  0.00  0.00    -0.126 OA
ATOM     23  O   UNL     1      27.571 -21.720 -17.214  0.00  0.00    -0.126 OA
ATOM     24  N   UNL     1      28.142 -22.828 -17.067  0.00  0.00    +0.058 N 
ENDBRANCH  19  24
ENDBRANCH  15  16
ENDBRANCH   1  15
TORSDOF 7
ENDMDL
MODEL 3
REMARK VINA RESULT:      -9.7      9.520     12.812
REMARK  Name = 255
REMARK  7 active torsions:
REMARK  status: ('A' for Active; 'I' for Inactive)
REMARK    1  A    between atoms: P_1  and  O_3
REMARK    2  A    between atoms: P_1  and  O_5
REMARK    3  A    between atoms: P_1  and  O_15
REMARK    4  A    between atoms: O_5  and  C_6
REMARK    5  A    between atoms: C_9  and  N_14
REMARK    6  A    between atoms: O_15  and  C_16
REMARK    7  A    between atoms: C_19  and  N_24
REMARK                            x       y       z     vdW  Elec       q    Type
REMARK                         _______ _______ _______ _____ _____    ______ ____
ROOT
ATOM      1  P   UNL     1      34.113 -23.941 -13.727  0.00  0.00    +0.588 P 
ATOM      2  O   UNL     1      34.742 -23.006 -14.719  0.00  0.00    -0.205 OA
ENDROOT
BRANCH   1   3
ATOM      3  O   UNL     1      33.377 -23.208 -12.485  0.00  0.00    -0.283 OA
ATOM      4  H   UNL     1      33.249 -22.269 -12.693  0.00  0.00    +0.224 HD
ENDBRANCH   1   3
BRANCH   1   5
ATOM      5  O   UNL     1      35.118 -24.986 -13.005  0.00  0.00    -0.394 OA
BRANCH   5   6
ATOM      6  C   UNL     1      36.387 -25.267 -13.412  0.00  0.00    +0.150 C 
ATOM      7  C   UNL     1      36.598 -26.009 -14.573  0.00  0.00    +0.039 C 
ATOM      8  C   UNL     1      37.474 -24.810 -12.668  0.00  0.00    +0.039 C 
ATOM      9  C   UNL     1      38.986 -25.839 -14.247  0.00  0.00    +0.143 C 
ATOM     10  C   UNL     1      37.898 -26.295 -14.991  0.00  0.00    +0.027 C 
ATOM     11  C   UNL     1      38.774 -25.097 -13.086  0.00  0.00    +0.027 C 
BRANCH   9  14
ATOM     12  O   UNL     1      41.143 -26.536 -13.826  0.00  0.00    -0.126 OA
ATOM     13  O   UNL     1      40.608 -25.980 -15.880  0.00  0.00    -0.126 OA
ATOM     14  N   UNL     1      40.309 -26.132 -14.671  0.00  0.00    +0.058 N 
ENDBRANCH   9  14
ENDBRANCH   5   6
ENDBRANCH   1   5
BRANCH   1  15
ATOM     15  O   UNL     1      32.938 -24.880 -14.315  0.00  0.00    -0.394 OA
BRANCH  15  16
ATOM     16  C   UNL     1      31.806 -24.423 -14.934  0.00  0.00    +0.150 C 
ATOM     17  C   UNL     1      31.891 -23.365 -15.832  0.00  0.00    +0.039 C 
ATOM     18  C   UNL     1      30.581 -25.023 -14.662  0.00  0.00    +0.039 C 
ATOM     19  C   UNL     1      29.506 -23.497 -16.195  0.00  0.00    +0.143 C 
ATOM     20  C   UNL     1      30.737 -22.900 -16.464  0.00  0.00    +0.027 C 
ATOM     21  C   UNL     1      29.428 -24.558 -15.294  0.00  0.00    +0.027 C 
BRANCH  19  24
ATOM     22  O   UNL     1      28.008 -21.818 -16.699  0.00  0.00    -0.126 OA
ATOM     23  O   UNL     1      27.649 -23.819 -17.525  0.00  0.00    -0.126 OA
ATOM     24  N   UNL     1      28.332 -23.022 -16.837  0.00  0.00    +0.058 N 
ENDBRANCH  19  24
ENDBRANCH  15  16
ENDBRANCH   1  15
TORSDOF 7
ENDMDL
MODEL 4
REMARK VINA RESULT:      -9.6      0.832      1.352
REMARK  Name = 255
REMARK  7 active torsions:
REMARK  status: ('A' for Active; 'I' for Inactive)
REMARK    1  A    between atoms: P_1  and  O_3
REMARK    2  A    between atoms: P_1  and  O_5
REMARK    3  A    between atoms: P_1  and  O_15
REMARK    4  A    between atoms: O_5  and  C_6
REMARK    5  A    between atoms: C_9  and  N_14
REMARK    6  A    between atoms: O_15  and  C_16
REMARK    7  A    between atoms: C_19  and  N_24
REMARK                            x       y       z     vdW  Elec       q    Type
REMARK                         _______ _______ _______ _____ _____    ______ ____
ROOT
ATOM      1  P   UNL     1      34.689 -16.704 -22.044  0.00  0.00    +0.588 P 
ATOM      2  O   UNL     1      35.084 -16.412 -20.625  0.00  0.00    -0.205 OA
ENDROOT
BRANCH   1   3
ATOM      3  O   UNL     1      35.774 -16.240 -23.153  0.00  0.00    -0.283 OA
ATOM      4  H   UNL     1      35.695 -16.803 -23.938  0.00  0.00    +0.224 HD
ENDBRANCH   1   3
BRANCH   1   5
ATOM      5  O   UNL     1      33.314 -16.014 -22.551  0.00  0.00    -0.394 OA
BRANCH   5   6
ATOM      6  C   UNL     1      33.090 -14.673 -22.631  0.00  0.00    +0.150 C 
ATOM      7  C   UNL     1      32.311 -14.038 -21.665  0.00  0.00    +0.039 C 
ATOM      8  C   UNL     1      33.641 -13.936 -23.679  0.00  0.00    +0.039 C 
ATOM      9  C   UNL     1      32.633 -11.927 -22.794  0.00  0.00    +0.143 C 
ATOM     10  C   UNL     1      32.082 -12.664 -21.746  0.00  0.00    +0.027 C 
ATOM     11  C   UNL     1      33.412 -12.562 -23.760  0.00  0.00    +0.027 C 
BRANCH   9  14
ATOM     12  O   UNL     1      31.494 -10.020 -22.172  0.00  0.00    -0.126 OA
ATOM     13  O   UNL     1      33.101  -9.840 -23.656  0.00  0.00    -0.126 OA
ATOM     14  N   UNL     1      32.398 -10.529 -22.878  0.00  0.00    +0.058 N 
ENDBRANCH   9  14
ENDBRANCH   5   6
ENDBRANCH   1   5
BRANCH   1  15
ATOM     15  O   UNL     1      34.488 -18.267 -22.395  0.00  0.00    -0.394 OA
BRANCH  15  16
ATOM     16  C   UNL     1      34.506 -19.285 -21.479  0.00  0.00    +0.150 C 
ATOM     17  C   UNL     1      35.722 -19.825 -21.073  0.00  0.00    +0.039 C 
ATOM     18  C   UNL     1      33.310 -19.768 -20.961  0.00  0.00    +0.039 C 
ATOM     19  C   UNL     1      34.544 -21.349 -19.615  0.00  0.00    +0.143 C 
ATOM     20  C   UNL     1      35.741 -20.860 -20.138  0.00  0.00    +0.027 C 
ATOM     21  C   UNL     1      33.329 -20.803 -20.026  0.00  0.00    +0.027 C 
BRANCH  19  24
ATOM     22  O   UNL     1      33.673 -23.287 -18.718  0.00  0.00    -0.126 OA
ATOM     23  O   UNL     1      35.471 -22.428 -17.799  0.00  0.00    -0.126 OA
ATOM     24  N   UNL     1      34.563 -22.405 -18.666  0.00  0.00    +0.058 N 
ENDBRANCH  19  24
ENDBRANCH  15  16
ENDBRANCH   1  15
TORSDOF 7
ENDMDL
MODEL 5
REMARK VINA RESULT:      -9.6      1.121      1.811
REMARK  Name = 255
REMARK  7 active torsions:
REMARK  status: ('A' for Active; 'I' for Inactive)
REMARK    1  A    between atoms: P_1  and  O_3
REMARK    2  A    between atoms: P_1  and  O_5
REMARK    3  A    between atoms: P_1  and  O_15
REMARK    4  A    between atoms: O_5  and  C_6
REMARK    5  A    between atoms: C_9  and  N_14
REMARK    6  A    between atoms: O_15  and  C_16
REMARK    7  A    between atoms: C_19  and  N_24
REMARK                            x       y       z     vdW  Elec       q    Type
REMARK                         _______ _______ _______ _____ _____    ______ ____
ROOT
ATOM      1  P   UNL     1      35.078 -17.384 -21.962  0.00  0.00    +0.588 P 
ATOM      2  O   UNL     1      35.252 -16.772 -20.603  0.00  0.00    -0.205 OA
ENDROOT
BRANCH   1   3
ATOM      3  O   UNL     1      36.456 -17.871 -22.662  0.00  0.00    -0.283 OA
ATOM      4  H   UNL     1      37.176 -17.843 -22.013  0.00  0.00    +0.224 HD
ENDBRANCH   1   3
BRANCH   1   5
ATOM      5  O   UNL     1      34.401 -16.434 -23.085  0.00  0.00    -0.394 OA
BRANCH   5   6
ATOM      6  C   UNL     1      33.778 -15.248 -22.840  0.00  0.00    +0.150 C 
ATOM      7  C   UNL     1      34.051 -14.139 -23.639  0.00  0.00    +0.039 C 
ATOM      8  C   UNL     1      32.867 -15.145 -21.789  0.00  0.00    +0.039 C 
ATOM      9  C   UNL     1      32.500 -12.821 -22.337  0.00  0.00    +0.143 C 
ATOM     10  C   UNL     1      33.411 -12.924 -23.388  0.00  0.00    +0.027 C 
ATOM     11  C   UNL     1      32.228 -13.930 -21.538  0.00  0.00    +0.027 C 
BRANCH   9  14
ATOM     12  O   UNL     1      32.314 -10.536 -22.591  0.00  0.00    -0.126 OA
ATOM     13  O   UNL     1      30.832 -11.572 -21.348  0.00  0.00    -0.126 OA
ATOM     14  N   UNL     1      31.851 -11.584 -22.080  0.00  0.00    +0.058 N 
ENDBRANCH   9  14
ENDBRANCH   5   6
ENDBRANCH   1   5
BRANCH   1  15
ATOM     15  O   UNL     1      34.181 -18.727 -22.003  0.00  0.00    -0.394 OA
BRANCH  15  16
ATOM     16  C   UNL     1      34.229 -19.729 -21.071  0.00  0.00    +0.150 C 
ATOM     17  C   UNL     1      33.050 -20.194 -20.498  0.00  0.00    +0.039 C 
ATOM     18  C   UNL     1      35.455 -20.276 -20.708  0.00  0.00    +0.039 C 
ATOM     19  C   UNL     1      34.325 -21.768 -19.181  0.00  0.00    +0.143 C 
ATOM     20  C   UNL     1      33.098 -21.216 -19.550  0.00  0.00    +0.027 C 
ATOM     21  C   UNL     1      35.503 -21.298 -19.760  0.00  0.00    +0.027 C 
BRANCH  19  24
ATOM     22  O   UNL     1      35.223 -22.742 -17.294  0.00  0.00    -0.126 OA
ATOM     23  O   UNL     1      33.564 -23.762 -18.306  0.00  0.00    -0.126 OA
ATOM     24  N   UNL     1      34.373 -22.807 -18.214  0.00  0.00    +0.058 N 
ENDBRANCH  19  24
ENDBRANCH  15  16
ENDBRANCH   1  15
TORSDOF 7
ENDMDL
MODEL 6
REMARK VINA RESULT:      -9.6      9.593     10.948
REMARK  Name = 255
REMARK  7 active torsions:
REMARK  status: ('A' for Active; 'I' for Inactive)
REMARK    1  A    between atoms: P_1  and  O_3
REMARK    2  A    between atoms: P_1  and  O_5
REMARK    3  A    between atoms: P_1  and  O_15
REMARK    4  A    between atoms: O_5  and  C_6
REMARK    5  A    between atoms: C_9  and  N_14
REMARK    6  A    between atoms: O_15  and  C_16
REMARK    7  A    between atoms: C_19  and  N_24
REMARK                            x       y       z     vdW  Elec       q    Type
REMARK                         _______ _______ _______ _____ _____    ______ ____
ROOT
ATOM      1  P   UNL     1      33.785 -24.274 -13.841  0.00  0.00    +0.588 P 
ATOM      2  O   UNL     1      34.354 -24.385 -12.456  0.00  0.00    -0.205 OA
ENDROOT
BRANCH   1   3
ATOM      3  O   UNL     1      33.513 -22.756 -14.337  0.00  0.00    -0.283 OA
ATOM      4  H   UNL     1      32.680 -22.436 -13.958  0.00  0.00    +0.224 HD
ENDBRANCH   1   3
BRANCH   1   5
ATOM      5  O   UNL     1      32.362 -25.009 -14.082  0.00  0.00    -0.394 OA
BRANCH   5   6
ATOM      6  C   UNL     1      31.322 -24.495 -14.796  0.00  0.00    +0.150 C 
ATOM      7  C   UNL     1      31.559 -23.533 -15.777  0.00  0.00    +0.039 C 
ATOM      8  C   UNL     1      30.022 -24.932 -14.546  0.00  0.00    +0.039 C 
ATOM      9  C   UNL     1      29.193 -23.444 -16.258  0.00  0.00    +0.143 C 
ATOM     10  C   UNL     1      30.493 -23.007 -16.509  0.00  0.00    +0.027 C 
ATOM     11  C   UNL     1      28.957 -24.406 -15.278  0.00  0.00    +0.027 C 
BRANCH   9  14
ATOM     12  O   UNL     1      27.829 -21.689 -16.877  0.00  0.00    -0.126 OA
ATOM     13  O   UNL     1      27.459 -23.663 -17.764  0.00  0.00    -0.126 OA
ATOM     14  N   UNL     1      28.109 -22.906 -17.002  0.00  0.00    +0.058 N 
ENDBRANCH   9  14
ENDBRANCH   5   6
ENDBRANCH   1   5
BRANCH   1  15
ATOM     15  O   UNL     1      34.724 -24.856 -15.019  0.00  0.00    -0.394 OA
BRANCH  15  16
ATOM     16  C   UNL     1      36.078 -25.034 -14.926  0.00  0.00    +0.150 C 
ATOM     17  C   UNL     1      36.592 -26.308 -14.707  0.00  0.00    +0.039 C 
ATOM     18  C   UNL     1      36.928 -23.941 -15.054  0.00  0.00    +0.039 C 
ATOM     19  C   UNL     1      38.830 -25.397 -14.741  0.00  0.00    +0.143 C 
ATOM     20  C   UNL     1      37.972 -26.490 -14.614  0.00  0.00    +0.027 C 
ATOM     21  C   UNL     1      38.307 -24.123 -14.961  0.00  0.00    +0.027 C 
BRANCH  19  24
ATOM     22  O   UNL     1      40.709 -26.731 -14.809  0.00  0.00    -0.126 OA
ATOM     23  O   UNL     1      40.963 -24.591 -14.395  0.00  0.00    -0.126 OA
ATOM     24  N   UNL     1      40.234 -25.582 -14.643  0.00  0.00    +0.058 N 
ENDBRANCH  19  24
ENDBRANCH  15  16
ENDBRANCH   1  15
TORSDOF 7
ENDMDL
MODEL 7
REMARK VINA RESULT:      -9.5      0.296      8.857
REMARK  Name = 255
REMARK  7 active torsions:
REMARK  status: ('A' for Active; 'I' for Inactive)
REMARK    1  A    between atoms: P_1  and  O_3
REMARK    2  A    between atoms: P_1  and  O_5
REMARK    3  A    between atoms: P_1  and  O_15
REMARK    4  A    between atoms: O_5  and  C_6
REMARK    5  A    between atoms: C_9  and  N_14
REMARK    6  A    between atoms: O_15  and  C_16
REMARK    7  A    between atoms: C_19  and  N_24
REMARK                            x       y       z     vdW  Elec       q    Type
REMARK                         _______ _______ _______ _____ _____    ______ ____
ROOT
ATOM      1  P   UNL     1      34.611 -16.663 -21.841  0.00  0.00    +0.588 P 
ATOM      2  O   UNL     1      35.375 -15.830 -22.829  0.00  0.00    -0.205 OA
ENDROOT
BRANCH   1   3
ATOM      3  O   UNL     1      35.280 -16.743 -20.369  0.00  0.00    -0.283 OA
ATOM      4  H   UNL     1      34.876 -16.075 -19.794  0.00  0.00    +0.224 HD
ENDBRANCH   1   3
BRANCH   1   5
ATOM      5  O   UNL     1      34.398 -18.218 -22.242  0.00  0.00    -0.394 OA
BRANCH   5   6
ATOM      6  C   UNL     1      34.424 -19.265 -21.372  0.00  0.00    +0.150 C 
ATOM      7  C   UNL     1      33.236 -19.743 -20.820  0.00  0.00    +0.039 C 
ATOM      8  C   UNL     1      35.640 -19.859 -21.033  0.00  0.00    +0.039 C 
ATOM      9  C   UNL     1      34.478 -21.410 -19.590  0.00  0.00    +0.143 C 
ATOM     10  C   UNL     1      33.263 -20.817 -19.929  0.00  0.00    +0.027 C 
ATOM     11  C   UNL     1      35.666 -20.932 -20.142  0.00  0.00    +0.027 C 
BRANCH   9  14
ATOM     12  O   UNL     1      33.712 -23.457 -18.854  0.00  0.00    -0.126 OA
ATOM     13  O   UNL     1      35.323 -22.479 -17.730  0.00  0.00    -0.126 OA
ATOM     14  N   UNL     1      34.506 -22.501 -18.681  0.00  0.00    +0.058 N 
ENDBRANCH   9  14
ENDBRANCH   5   6
ENDBRANCH   1   5
BRANCH   1  15
ATOM     15  O   UNL     1      33.118 -16.143 -21.511  0.00  0.00    -0.394 OA
BRANCH  15  16
ATOM     16  C   UNL     1      32.726 -14.831 -21.521  0.00  0.00    +0.150 C 
ATOM     17  C   UNL     1      32.511 -14.166 -20.319  0.00  0.00    +0.039 C 
ATOM     18  C   UNL     1      32.547 -14.174 -22.734  0.00  0.00    +0.039 C 
ATOM     19  C   UNL     1      31.932 -12.165 -21.541  0.00  0.00    +0.143 C 
ATOM     20  C   UNL     1      32.113 -12.829 -20.329  0.00  0.00    +0.027 C 
ATOM     21  C   UNL     1      32.149 -12.837 -22.744  0.00  0.00    +0.027 C 
BRANCH  19  24
ATOM     22  O   UNL     1      31.404 -10.214 -22.651  0.00  0.00    -0.126 OA
ATOM     23  O   UNL     1      31.294 -10.231 -20.459  0.00  0.00    -0.126 OA
ATOM     24  N   UNL     1      31.524 -10.805 -21.551  0.00  0.00    +0.058 N 
ENDBRANCH  19  24
ENDBRANCH  15  16
ENDBRANCH   1  15
TORSDOF 7
ENDMDL
MODEL 8
REMARK VINA RESULT:      -9.3      1.332      8.430
REMARK  Name = 255
REMARK  7 active torsions:
REMARK  status: ('A' for Active; 'I' for Inactive)
REMARK    1  A    between atoms: P_1  and  O_3
REMARK    2  A    between atoms: P_1  and  O_5
REMARK    3  A    between atoms: P_1  and  O_15
REMARK    4  A    between atoms: O_5  and  C_6
REMARK    5  A    between atoms: C_9  and  N_14
REMARK    6  A    between atoms: O_15  and  C_16
REMARK    7  A    between atoms: C_19  and  N_24
REMARK                            x       y       z     vdW  Elec       q    Type
REMARK                         _______ _______ _______ _____ _____    ______ ____
ROOT
ATOM      1  P   UNL     1      35.127 -17.685 -23.166  0.00  0.00    +0.588 P 
ATOM      2  O   UNL     1      34.416 -18.288 -24.343  0.00  0.00    -0.205 OA
ENDROOT
BRANCH   1   3
ATOM      3  O   UNL     1      36.638 -18.224 -22.944  0.00  0.00    -0.283 OA
ATOM      4  H   UNL     1      36.872 -18.834 -23.660  0.00  0.00    +0.224 HD
ENDBRANCH   1   3
BRANCH   1   5
ATOM      5  O   UNL     1      34.428 -17.916 -21.723  0.00  0.00    -0.394 OA
BRANCH   5   6
ATOM      6  C   UNL     1      34.402 -19.096 -21.043  0.00  0.00    +0.150 C 
ATOM      7  C   UNL     1      35.596 -19.721 -20.685  0.00  0.00    +0.039 C 
ATOM      8  C   UNL     1      33.180 -19.676 -20.703  0.00  0.00    +0.039 C 
ATOM      9  C   UNL     1      34.347 -21.510 -19.648  0.00  0.00    +0.143 C 
ATOM     10  C   UNL     1      35.568 -20.929 -19.987  0.00  0.00    +0.027 C 
ATOM     11  C   UNL     1      33.153 -20.885 -20.006  0.00  0.00    +0.027 C 
BRANCH   9  14
ATOM     12  O   UNL     1      34.685 -22.761 -17.740  0.00  0.00    -0.126 OA
ATOM     13  O   UNL     1      33.928 -23.775 -19.533  0.00  0.00    -0.126 OA
ATOM     14  N   UNL     1      34.319 -22.741 -18.940  0.00  0.00    +0.058 N 
ENDBRANCH   9  14
ENDBRANCH   5   6
ENDBRANCH   1   5
BRANCH   1  15
ATOM     15  O   UNL     1      35.342 -16.085 -23.238  0.00  0.00    -0.394 OA
BRANCH  15  16
ATOM     16  C   UNL     1      34.458 -15.154 -22.761  0.00  0.00    +0.150 C 
ATOM     17  C   UNL     1      33.750 -14.357 -23.653  0.00  0.00    +0.039 C 
ATOM     18  C   UNL     1      34.275 -15.016 -21.390  0.00  0.00    +0.039 C 
ATOM     19  C   UNL     1      32.660 -13.265 -21.794  0.00  0.00    +0.143 C 
ATOM     20  C   UNL     1      32.848 -13.409 -23.168  0.00  0.00    +0.027 C 
ATOM     21  C   UNL     1      33.374 -14.068 -20.905  0.00  0.00    +0.027 C 
BRANCH  19  24
ATOM     22  O   UNL     1      31.032 -11.664 -22.114  0.00  0.00    -0.126 OA
ATOM     23  O   UNL     1      31.672 -12.105 -20.062  0.00  0.00    -0.126 OA
ATOM     24  N   UNL     1      31.745 -12.298 -21.300  0.00  0.00    +0.058 N 
ENDBRANCH  19  24
ENDBRANCH  15  16
ENDBRANCH   1  15
TORSDOF 7
ENDMDL
MODEL 9
REMARK VINA RESULT:      -9.3      6.101      8.793
REMARK  Name = 255
REMARK  7 active torsions:
REMARK  status: ('A' for Active; 'I' for Inactive)
REMARK    1  A    between atoms: P_1  and  O_3
REMARK    2  A    between atoms: P_1  and  O_5
REMARK    3  A    between atoms: P_1  and  O_15
REMARK    4  A    between atoms: O_5  and  C_6
REMARK    5  A    between atoms: C_9  and  N_14
REMARK    6  A    between atoms: O_15  and  C_16
REMARK    7  A    between atoms: C_19  and  N_24
REMARK                            x       y       z     vdW  Elec       q    Type
REMARK                         _______ _______ _______ _____ _____    ______ ____
ROOT
ATOM      1  P   UNL     1      34.485 -23.609 -15.700  0.00  0.00    +0.588 P 
ATOM      2  O   UNL     1      35.141 -22.351 -15.211  0.00  0.00    -0.205 OA
ENDROOT
BRANCH   1   3
ATOM      3  O   UNL     1      35.425 -24.927 -15.634  0.00  0.00    -0.283 OA
ATOM      4  H   UNL     1      35.143 -25.559 -16.314  0.00  0.00    +0.224 HD
ENDBRANCH   1   3
BRANCH   1   5
ATOM      5  O   UNL     1      33.972 -23.589 -17.236  0.00  0.00    -0.394 OA
BRANCH   5   6
ATOM      6  C   UNL     1      34.264 -22.622 -18.150  0.00  0.00    +0.150 C 
ATOM      7  C   UNL     1      35.580 -22.196 -18.319  0.00  0.00    +0.039 C 
ATOM      8  C   UNL     1      33.243 -22.058 -18.916  0.00  0.00    +0.039 C 
ATOM      9  C   UNL     1      34.858 -20.642 -20.022  0.00  0.00    +0.143 C 
ATOM     10  C   UNL     1      35.878 -21.206 -19.256  0.00  0.00    +0.027 C 
ATOM     11  C   UNL     1      33.542 -21.067 -19.852  0.00  0.00    +0.027 C 
BRANCH   9  14
ATOM     12  O   UNL     1      34.511 -19.591 -22.045  0.00  0.00    -0.126 OA
ATOM     13  O   UNL     1      36.072 -18.807 -20.716  0.00  0.00    -0.126 OA
ATOM     14  N   UNL     1      35.162 -19.632 -20.973  0.00  0.00    +0.058 N 
ENDBRANCH   9  14
ENDBRANCH   5   6
ENDBRANCH   1   5
BRANCH   1  15
ATOM     15  O   UNL     1      33.183 -24.076 -14.866  0.00  0.00    -0.394 OA
BRANCH  15  16
ATOM     16  C   UNL     1      31.889 -23.928 -15.286  0.00  0.00    +0.150 C 
ATOM     17  C   UNL     1      30.998 -24.988 -15.162  0.00  0.00    +0.039 C 
ATOM     18  C   UNL     1      31.475 -22.717 -15.831  0.00  0.00    +0.039 C 
ATOM     19  C   UNL     1      29.257 -23.625 -16.137  0.00  0.00    +0.143 C 
ATOM     20  C   UNL     1      29.678 -24.837 -15.589  0.00  0.00    +0.027 C 
ATOM     21  C   UNL     1      30.156 -22.566 -16.258  0.00  0.00    +0.027 C 
BRANCH  19  24
ATOM     22  O   UNL     1      27.560 -24.010 -17.650  0.00  0.00    -0.126 OA
ATOM     23  O   UNL     1      27.119 -22.804 -15.870  0.00  0.00    -0.126 OA
ATOM     24  N   UNL     1      27.915 -23.473 -16.574  0.00  0.00    +0.058 N 
ENDBRANCH  19  24
ENDBRANCH  15  16
ENDBRANCH   1  15
TORSDOF 7
ENDMDL
