MODEL 1
REMARK VINA RESULT:      -5.1      0.000      0.000
REMARK  Name = 10783
REMARK  2 active torsions:
REMARK  status: ('A' for Active; 'I' for Inactive)
REMARK    1  A    between atoms: C_3  and  C_7
REMARK    2  A    between atoms: C_7  and  C_9
REMARK                            x       y       z     vdW  Elec       q    Type
REMARK                         _______ _______ _______ _____ _____    ______ ____
ROOT
ATOM      1  S   UNL     1      33.281 -14.026 -24.437  0.00  0.00    -0.109 S 
ATOM      2  N   UNL     1      33.464 -15.856 -26.252  0.00  0.00    -0.266 NA
ATOM      3  C   UNL     1      34.050 -15.500 -24.015  0.00  0.00    +0.086 C 
ATOM      4  C   UNL     1      34.053 -16.347 -25.104  0.00  0.00    +0.043 C 
ATOM      5  C   UNL     1      34.623 -17.709 -25.142  0.00  0.00    +0.048 C 
ATOM      6  C   UNL     1      33.022 -14.641 -26.018  0.00  0.00    +0.183 C 
ENDROOT
BRANCH   3   7
ATOM      7  C   UNL     1      34.585 -15.698 -22.653  0.00  0.00    +0.034 C 
BRANCH   7   9
ATOM      8 CL   UNL     1      32.831 -15.013 -20.651  0.00  0.00    -0.114 Cl
ATOM      9  C   UNL     1      34.229 -14.574 -21.663  0.00  0.00    +0.096 C 
ENDBRANCH   7   9
ENDBRANCH   3   7
TORSDOF 2
ENDMDL
MODEL 2
REMARK VINA RESULT:      -5.1      1.439      2.229
REMARK  Name = 10783
REMARK  2 active torsions:
REMARK  status: ('A' for Active; 'I' for Inactive)
REMARK    1  A    between atoms: C_3  and  C_7
REMARK    2  A    between atoms: C_7  and  C_9
REMARK                            x       y       z     vdW  Elec       q    Type
REMARK                         _______ _______ _______ _____ _____    ______ ____
ROOT
ATOM      1  S   UNL     1      34.870 -16.806 -23.435  0.00  0.00    -0.109 S 
ATOM      2  N   UNL     1      34.007 -16.728 -25.870  0.00  0.00    -0.266 NA
ATOM      3  C   UNL     1      34.080 -15.377 -23.961  0.00  0.00    +0.086 C 
ATOM      4  C   UNL     1      33.693 -15.521 -25.277  0.00  0.00    +0.043 C 
ATOM      5  C   UNL     1      32.983 -14.511 -26.089  0.00  0.00    +0.048 C 
ATOM      6  C   UNL     1      34.630 -17.484 -24.993  0.00  0.00    +0.183 C 
ENDROOT
BRANCH   3   7
ATOM      7  C   UNL     1      33.908 -14.238 -23.038  0.00  0.00    +0.034 C 
BRANCH   7   9
ATOM      8 CL   UNL     1      32.886 -14.808 -20.551  0.00  0.00    -0.114 Cl
ATOM      9  C   UNL     1      32.600 -14.274 -22.225  0.00  0.00    +0.096 C 
ENDBRANCH   7   9
ENDBRANCH   3   7
TORSDOF 2
ENDMDL
MODEL 3
REMARK VINA RESULT:      -5.1      3.135      3.631
REMARK  Name = 10783
REMARK  2 active torsions:
REMARK  status: ('A' for Active; 'I' for Inactive)
REMARK    1  A    between atoms: C_3  and  C_7
REMARK    2  A    between atoms: C_7  and  C_9
REMARK                            x       y       z     vdW  Elec       q    Type
REMARK                         _______ _______ _______ _____ _____    ______ ____
ROOT
ATOM      1  S   UNL     1      34.680 -16.659 -21.229  0.00  0.00    -0.109 S 
ATOM      2  N   UNL     1      34.687 -15.602 -23.588  0.00  0.00    -0.266 NA
ATOM      3  C   UNL     1      34.659 -17.714 -22.581  0.00  0.00    +0.086 C 
ATOM      4  C   UNL     1      34.666 -16.974 -23.745  0.00  0.00    +0.043 C 
ATOM      5  C   UNL     1      34.654 -17.517 -25.119  0.00  0.00    +0.048 C 
ATOM      6  C   UNL     1      34.696 -15.321 -22.304  0.00  0.00    +0.183 C 
ENDROOT
BRANCH   3   7
ATOM      7  C   UNL     1      34.637 -19.178 -22.385  0.00  0.00    +0.034 C 
BRANCH   7   9
ATOM      8 CL   UNL     1      32.797 -20.068 -20.546  0.00  0.00    -0.114 Cl
ATOM      9  C   UNL     1      34.480 -19.617 -20.917  0.00  0.00    +0.096 C 
ENDBRANCH   7   9
ENDBRANCH   3   7
TORSDOF 2
ENDMDL
MODEL 4
REMARK VINA RESULT:      -5.1      3.549      4.251
REMARK  Name = 10783
REMARK  2 active torsions:
REMARK  status: ('A' for Active; 'I' for Inactive)
REMARK    1  A    between atoms: C_3  and  C_7
REMARK    2  A    between atoms: C_7  and  C_9
REMARK                            x       y       z     vdW  Elec       q    Type
REMARK                         _______ _______ _______ _____ _____    ______ ____
ROOT
ATOM      1  S   UNL     1      34.934 -18.345 -23.884  0.00  0.00    -0.109 S 
ATOM      2  N   UNL     1      34.852 -15.857 -23.189  0.00  0.00    -0.266 NA
ATOM      3  C   UNL     1      34.799 -17.983 -22.213  0.00  0.00    +0.086 C 
ATOM      4  C   UNL     1      34.769 -16.615 -22.037  0.00  0.00    +0.043 C 
ATOM      5  C   UNL     1      34.659 -15.907 -20.745  0.00  0.00    +0.048 C 
ATOM      6  C   UNL     1      34.942 -16.663 -24.223  0.00  0.00    +0.183 C 
ENDROOT
BRANCH   3   7
ATOM      7  C   UNL     1      34.733 -19.071 -21.217  0.00  0.00    +0.034 C 
BRANCH   7   9
ATOM      8 CL   UNL     1      33.320 -20.923 -19.758  0.00  0.00    -0.114 Cl
ATOM      9  C   UNL     1      33.313 -19.603 -20.954  0.00  0.00    +0.096 C 
ENDBRANCH   7   9
ENDBRANCH   3   7
TORSDOF 2
ENDMDL
MODEL 5
REMARK VINA RESULT:      -5.0      3.482      4.661
REMARK  Name = 10783
REMARK  2 active torsions:
REMARK  status: ('A' for Active; 'I' for Inactive)
REMARK    1  A    between atoms: C_3  and  C_7
REMARK    2  A    between atoms: C_7  and  C_9
REMARK                            x       y       z     vdW  Elec       q    Type
REMARK                         _______ _______ _______ _____ _____    ______ ____
ROOT
ATOM      1  S   UNL     1      35.450 -18.280 -23.262  0.00  0.00    -0.109 S 
ATOM      2  N   UNL     1      35.373 -17.733 -20.738  0.00  0.00    -0.266 NA
ATOM      3  C   UNL     1      34.894 -16.727 -22.795  0.00  0.00    +0.086 C 
ATOM      4  C   UNL     1      34.924 -16.619 -21.420  0.00  0.00    +0.043 C 
ATOM      5  C   UNL     1      34.522 -15.436 -20.633  0.00  0.00    +0.048 C 
ATOM      6  C   UNL     1      35.679 -18.670 -21.607  0.00  0.00    +0.183 C 
ENDROOT
BRANCH   3   7
ATOM      7  C   UNL     1      34.476 -15.746 -23.817  0.00  0.00    +0.034 C 
BRANCH   7   9
ATOM      8 CL   UNL     1      33.088 -15.313 -26.150  0.00  0.00    -0.114 Cl
ATOM      9  C   UNL     1      34.165 -16.361 -25.194  0.00  0.00    +0.096 C 
ENDBRANCH   7   9
ENDBRANCH   3   7
TORSDOF 2
ENDMDL
MODEL 6
REMARK VINA RESULT:      -4.9      1.348      1.394
REMARK  Name = 10783
REMARK  2 active torsions:
REMARK  status: ('A' for Active; 'I' for Inactive)
REMARK    1  A    between atoms: C_3  and  C_7
REMARK    2  A    between atoms: C_7  and  C_9
REMARK                            x       y       z     vdW  Elec       q    Type
REMARK                         _______ _______ _______ _____ _____    ______ ____
ROOT
ATOM      1  S   UNL     1      33.488 -14.086 -24.334  0.00  0.00    -0.109 S 
ATOM      2  N   UNL     1      33.467 -15.910 -26.165  0.00  0.00    -0.266 NA
ATOM      3  C   UNL     1      34.226 -15.592 -23.975  0.00  0.00    +0.086 C 
ATOM      4  C   UNL     1      34.117 -16.431 -25.064  0.00  0.00    +0.043 C 
ATOM      5  C   UNL     1      34.628 -17.815 -25.148  0.00  0.00    +0.048 C 
ATOM      6  C   UNL     1      33.091 -14.679 -25.894  0.00  0.00    +0.183 C 
ENDROOT
BRANCH   3   7
ATOM      7  C   UNL     1      34.848 -15.821 -22.655  0.00  0.00    +0.034 C 
BRANCH   7   9
ATOM      8 CL   UNL     1      34.709 -18.087 -21.106  0.00  0.00    -0.114 Cl
ATOM      9  C   UNL     1      33.951 -16.572 -21.654  0.00  0.00    +0.096 C 
ENDBRANCH   7   9
ENDBRANCH   3   7
TORSDOF 2
ENDMDL
MODEL 7
REMARK VINA RESULT:      -4.9      2.618      3.125
REMARK  Name = 10783
REMARK  2 active torsions:
REMARK  status: ('A' for Active; 'I' for Inactive)
REMARK    1  A    between atoms: C_3  and  C_7
REMARK    2  A    between atoms: C_7  and  C_9
REMARK                            x       y       z     vdW  Elec       q    Type
REMARK                         _______ _______ _______ _____ _____    ______ ____
ROOT
ATOM      1  S   UNL     1      34.856 -16.495 -23.686  0.00  0.00    -0.109 S 
ATOM      2  N   UNL     1      34.675 -19.073 -23.677  0.00  0.00    -0.266 NA
ATOM      3  C   UNL     1      34.777 -17.288 -22.168  0.00  0.00    +0.086 C 
ATOM      4  C   UNL     1      34.685 -18.651 -22.362  0.00  0.00    +0.043 C 
ATOM      5  C   UNL     1      34.597 -19.676 -21.302  0.00  0.00    +0.048 C 
ATOM      6  C   UNL     1      34.761 -18.022 -24.463  0.00  0.00    +0.183 C 
ENDROOT
BRANCH   3   7
ATOM      7  C   UNL     1      34.812 -16.507 -20.916  0.00  0.00    +0.034 C 
BRANCH   7   9
ATOM      8 CL   UNL     1      32.792 -14.714 -20.404  0.00  0.00    -0.114 Cl
ATOM      9  C   UNL     1      34.409 -15.030 -21.080  0.00  0.00    +0.096 C 
ENDBRANCH   7   9
ENDBRANCH   3   7
TORSDOF 2
ENDMDL
MODEL 8
REMARK VINA RESULT:      -4.9      6.413      6.956
REMARK  Name = 10783
REMARK  2 active torsions:
REMARK  status: ('A' for Active; 'I' for Inactive)
REMARK    1  A    between atoms: C_3  and  C_7
REMARK    2  A    between atoms: C_7  and  C_9
REMARK                            x       y       z     vdW  Elec       q    Type
REMARK                         _______ _______ _______ _____ _____    ______ ____
ROOT
ATOM      1  S   UNL     1      33.567 -21.142 -19.807  0.00  0.00    -0.109 S 
ATOM      2  N   UNL     1      33.833 -19.104 -21.374  0.00  0.00    -0.266 NA
ATOM      3  C   UNL     1      35.155 -20.581 -20.130  0.00  0.00    +0.086 C 
ATOM      4  C   UNL     1      35.098 -19.495 -20.979  0.00  0.00    +0.043 C 
ATOM      5  C   UNL     1      36.253 -18.730 -21.491  0.00  0.00    +0.048 C 
ATOM      6  C   UNL     1      32.948 -19.901 -20.817  0.00  0.00    +0.183 C 
ENDROOT
BRANCH   3   7
ATOM      7  C   UNL     1      36.322 -21.253 -19.524  0.00  0.00    +0.034 C 
BRANCH   7   9
ATOM      8 CL   UNL     1      37.227 -21.400 -16.933  0.00  0.00    -0.114 Cl
ATOM      9  C   UNL     1      36.037 -21.905 -18.158  0.00  0.00    +0.096 C 
ENDBRANCH   7   9
ENDBRANCH   3   7
TORSDOF 2
ENDMDL
MODEL 9
REMARK VINA RESULT:      -4.9      2.661      3.550
REMARK  Name = 10783
REMARK  2 active torsions:
REMARK  status: ('A' for Active; 'I' for Inactive)
REMARK    1  A    between atoms: C_3  and  C_7
REMARK    2  A    between atoms: C_7  and  C_9
REMARK                            x       y       z     vdW  Elec       q    Type
REMARK                         _______ _______ _______ _____ _____    ______ ____
ROOT
ATOM      1  S   UNL     1      34.683 -16.869 -24.543  0.00  0.00    -0.109 S 
ATOM      2  N   UNL     1      33.836 -14.963 -23.017  0.00  0.00    -0.266 NA
ATOM      3  C   UNL     1      35.005 -16.984 -22.863  0.00  0.00    +0.086 C 
ATOM      4  C   UNL     1      34.480 -15.885 -22.215  0.00  0.00    +0.043 C 
ATOM      5  C   UNL     1      34.549 -15.617 -20.764  0.00  0.00    +0.048 C 
ATOM      6  C   UNL     1      33.881 -15.377 -24.263  0.00  0.00    +0.183 C 
ENDROOT
BRANCH   3   7
ATOM      7  C   UNL     1      35.744 -18.143 -22.323  0.00  0.00    +0.034 C 
BRANCH   7   9
ATOM      8 CL   UNL     1      33.634 -19.289 -20.985  0.00  0.00    -0.114 Cl
ATOM      9  C   UNL     1      34.910 -19.433 -22.219  0.00  0.00    +0.096 C 
ENDBRANCH   7   9
ENDBRANCH   3   7
TORSDOF 2
ENDMDL
