MODEL 1
REMARK VINA RESULT:      -9.9      0.000      0.000
REMARK  Name = 2746
REMARK  4 active torsions:
REMARK  status: ('A' for Active; 'I' for Inactive)
REMARK    1  A    between atoms: N_2  and  C_16
REMARK    2  A    between atoms: C_3  and  C_5
REMARK    3  A    between atoms: C_6  and  N_12
REMARK    4  A    between atoms: C_17  and  N_22
REMARK                            x       y       z     vdW  Elec       q    Type
REMARK                         _______ _______ _______ _____ _____    ______ ____
ROOT
ATOM      1  O   UNL     1      33.890 -23.920 -18.210  0.00  0.00    -0.270 OA
ATOM      2  N   UNL     1      32.361 -22.474 -17.172  0.00  0.00    -0.279 N 
ATOM      3  C   UNL     1      33.319 -22.821 -18.136  0.00  0.00    +0.250 C 
ATOM      4  H   UNL     1      31.994 -21.564 -17.242  0.00  0.00    +0.155 HD
ENDROOT
BRANCH   3   5
ATOM      5  C   UNL     1      33.662 -21.779 -19.091  0.00  0.00    +0.054 C 
ATOM      6  C   UNL     1      34.318 -19.780 -20.923  0.00  0.00    +0.050 C 
ATOM      7  C   UNL     1      32.661 -20.968 -19.628  0.00  0.00    +0.006 C 
ATOM      8  C   UNL     1      34.991 -21.590 -19.472  0.00  0.00    +0.006 C 
ATOM      9  C   UNL     1      32.989 -19.969 -20.544  0.00  0.00    +0.015 C 
ATOM     10  C   UNL     1      35.318 -20.590 -20.387  0.00  0.00    +0.015 C 
BRANCH   6  12
ATOM     11  O   UNL     1      35.281 -16.962 -20.476  0.00  0.00    -0.275 OA
ATOM     12  N   UNL     1      34.646 -18.779 -21.838  0.00  0.00    -0.284 N 
ATOM     13  C   UNL     1      35.090 -17.476 -21.573  0.00  0.00    +0.227 C 
ATOM     14  C   UNL     1      35.336 -16.700 -22.843  0.00  0.00    +0.095 C 
ATOM     15  H   UNL     1      34.553 -19.017 -22.788  0.00  0.00    +0.155 HD
ENDBRANCH   6  12
ENDBRANCH   3   5
BRANCH   2  16
ATOM     16  C   UNL     1      31.852 -23.264 -16.112  0.00  0.00    +0.064 C 
ATOM     17  C   UNL     1      30.490 -23.490 -16.000  0.00  0.00    +0.055 C 
ATOM     18  C   UNL     1      32.749 -23.795 -15.200  0.00  0.00    +0.016 C 
ATOM     19  C   UNL     1      30.012 -24.269 -14.946  0.00  0.00    +0.015 C 
ATOM     20  C   UNL     1      32.271 -24.574 -14.145  0.00  0.00    +0.001 C 
ATOM     21  C   UNL     1      30.902 -24.811 -14.019  0.00  0.00    +0.001 C 
BRANCH  17  22
ATOM     22  N   UNL     1      29.570 -22.951 -16.927  0.00  0.00    -0.356 N 
ATOM     23  H   UNL     1      28.635 -23.259 -16.927  0.00  0.00    +0.142 HD
ATOM     24  H   UNL     1      29.863 -22.268 -17.572  0.00  0.00    +0.142 HD
ENDBRANCH  17  22
ENDBRANCH   2  16
TORSDOF 4
ENDMDL
MODEL 2
REMARK VINA RESULT:      -9.8      0.658      1.516
REMARK  Name = 2746
REMARK  4 active torsions:
REMARK  status: ('A' for Active; 'I' for Inactive)
REMARK    1  A    between atoms: N_2  and  C_16
REMARK    2  A    between atoms: C_3  and  C_5
REMARK    3  A    between atoms: C_6  and  N_12
REMARK    4  A    between atoms: C_17  and  N_22
REMARK                            x       y       z     vdW  Elec       q    Type
REMARK                         _______ _______ _______ _____ _____    ______ ____
ROOT
ATOM      1  O   UNL     1      33.907 -23.916 -18.179  0.00  0.00    -0.270 OA
ATOM      2  N   UNL     1      32.333 -22.500 -17.167  0.00  0.00    -0.279 N 
ATOM      3  C   UNL     1      33.311 -22.829 -18.117  0.00  0.00    +0.250 C 
ATOM      4  H   UNL     1      31.948 -21.598 -17.245  0.00  0.00    +0.155 HD
ENDROOT
BRANCH   3   5
ATOM      5  C   UNL     1      33.644 -21.783 -19.072  0.00  0.00    +0.054 C 
ATOM      6  C   UNL     1      34.280 -19.776 -20.902  0.00  0.00    +0.050 C 
ATOM      7  C   UNL     1      32.637 -20.969 -19.593  0.00  0.00    +0.006 C 
ATOM      8  C   UNL     1      34.968 -21.593 -19.466  0.00  0.00    +0.006 C 
ATOM      9  C   UNL     1      32.955 -19.967 -20.509  0.00  0.00    +0.015 C 
ATOM     10  C   UNL     1      35.286 -20.590 -20.381  0.00  0.00    +0.015 C 
BRANCH   6  12
ATOM     11  O   UNL     1      35.281 -16.972 -20.454  0.00  0.00    -0.275 OA
ATOM     12  N   UNL     1      34.597 -18.771 -21.816  0.00  0.00    -0.284 N 
ATOM     13  C   UNL     1      35.060 -17.475 -21.551  0.00  0.00    +0.227 C 
ATOM     14  C   UNL     1      35.287 -16.692 -22.819  0.00  0.00    +0.095 C 
ATOM     15  H   UNL     1      34.482 -19.001 -22.766  0.00  0.00    +0.155 HD
ENDBRANCH   6  12
ENDBRANCH   3   5
BRANCH   2  16
ATOM     16  C   UNL     1      31.827 -23.298 -16.111  0.00  0.00    +0.064 C 
ATOM     17  C   UNL     1      32.605 -23.555 -14.994  0.00  0.00    +0.055 C 
ATOM     18  C   UNL     1      30.545 -23.808 -16.230  0.00  0.00    +0.016 C 
ATOM     19  C   UNL     1      32.086 -24.345 -13.968  0.00  0.00    +0.015 C 
ATOM     20  C   UNL     1      30.026 -24.599 -15.204  0.00  0.00    +0.001 C 
ATOM     21  C   UNL     1      30.797 -24.867 -14.073  0.00  0.00    +0.001 C 
BRANCH  17  22
ATOM     22  N   UNL     1      33.913 -23.037 -14.867  0.00  0.00    -0.356 N 
ATOM     23  H   UNL     1      34.077 -22.249 -14.299  0.00  0.00    +0.142 HD
ATOM     24  H   UNL     1      34.661 -23.463 -15.344  0.00  0.00    +0.142 HD
ENDBRANCH  17  22
ENDBRANCH   2  16
TORSDOF 4
ENDMDL
MODEL 3
REMARK VINA RESULT:      -9.6      2.548      3.585
REMARK  Name = 2746
REMARK  4 active torsions:
REMARK  status: ('A' for Active; 'I' for Inactive)
REMARK    1  A    between atoms: N_2  and  C_16
REMARK    2  A    between atoms: C_3  and  C_5
REMARK    3  A    between atoms: C_6  and  N_12
REMARK    4  A    between atoms: C_17  and  N_22
REMARK                            x       y       z     vdW  Elec       q    Type
REMARK                         _______ _______ _______ _____ _____    ______ ____
ROOT
ATOM      1  O   UNL     1      33.817 -23.510 -18.773  0.00  0.00    -0.270 OA
ATOM      2  N   UNL     1      35.135 -22.209 -17.332  0.00  0.00    -0.279 N 
ATOM      3  C   UNL     1      34.433 -22.463 -18.519  0.00  0.00    +0.250 C 
ATOM      4  H   UNL     1      35.575 -21.331 -17.274  0.00  0.00    +0.155 HD
ENDROOT
BRANCH   3   5
ATOM      5  C   UNL     1      34.474 -21.406 -19.517  0.00  0.00    +0.054 C 
ATOM      6  C   UNL     1      34.556 -19.380 -21.433  0.00  0.00    +0.050 C 
ATOM      7  C   UNL     1      35.702 -20.954 -20.004  0.00  0.00    +0.006 C 
ATOM      8  C   UNL     1      33.288 -20.845 -19.990  0.00  0.00    +0.006 C 
ATOM      9  C   UNL     1      35.743 -19.940 -20.961  0.00  0.00    +0.015 C 
ATOM     10  C   UNL     1      33.329 -19.832 -20.947  0.00  0.00    +0.015 C 
BRANCH   6  12
ATOM     11  O   UNL     1      34.921 -19.530 -24.418  0.00  0.00    -0.275 OA
ATOM     12  N   UNL     1      34.597 -18.367 -22.392  0.00  0.00    -0.284 N 
ATOM     13  C   UNL     1      34.773 -18.494 -23.777  0.00  0.00    +0.227 C 
ATOM     14  C   UNL     1      34.758 -17.154 -24.468  0.00  0.00    +0.095 C 
ATOM     15  H   UNL     1      34.490 -17.450 -22.055  0.00  0.00    +0.155 HD
ENDBRANCH   6  12
ENDBRANCH   3   5
BRANCH   2  16
ATOM     16  C   UNL     1      35.291 -23.052 -16.203  0.00  0.00    +0.064 C 
ATOM     17  C   UNL     1      36.555 -23.352 -15.724  0.00  0.00    +0.055 C 
ATOM     18  C   UNL     1      34.152 -23.563 -15.602  0.00  0.00    +0.016 C 
ATOM     19  C   UNL     1      36.685 -24.185 -14.613  0.00  0.00    +0.015 C 
ATOM     20  C   UNL     1      34.281 -24.397 -14.492  0.00  0.00    +0.001 C 
ATOM     21  C   UNL     1      35.548 -24.708 -13.997  0.00  0.00    +0.001 C 
BRANCH  17  22
ATOM     22  N   UNL     1      37.721 -22.834 -16.332  0.00  0.00    -0.356 N 
ATOM     23  H   UNL     1      38.129 -23.306 -17.094  0.00  0.00    +0.142 HD
ATOM     24  H   UNL     1      38.124 -22.002 -15.996  0.00  0.00    +0.142 HD
ENDBRANCH  17  22
ENDBRANCH   2  16
TORSDOF 4
ENDMDL
MODEL 4
REMARK VINA RESULT:      -9.6      4.235      6.682
REMARK  Name = 2746
REMARK  4 active torsions:
REMARK  status: ('A' for Active; 'I' for Inactive)
REMARK    1  A    between atoms: N_2  and  C_16
REMARK    2  A    between atoms: C_3  and  C_5
REMARK    3  A    between atoms: C_6  and  N_12
REMARK    4  A    between atoms: C_17  and  N_22
REMARK                            x       y       z     vdW  Elec       q    Type
REMARK                         _______ _______ _______ _____ _____    ______ ____
ROOT
ATOM      1  O   UNL     1      34.807 -19.014 -23.381  0.00  0.00    -0.270 OA
ATOM      2  N   UNL     1      34.400 -18.533 -21.121  0.00  0.00    -0.279 N 
ATOM      3  C   UNL     1      34.556 -18.204 -22.475  0.00  0.00    +0.250 C 
ATOM      4  H   UNL     1      34.202 -17.781 -20.518  0.00  0.00    +0.155 HD
ENDROOT
BRANCH   3   5
ATOM      5  C   UNL     1      34.434 -16.792 -22.802  0.00  0.00    +0.054 C 
ATOM      6  C   UNL     1      34.200 -14.084 -23.428  0.00  0.00    +0.050 C 
ATOM      7  C   UNL     1      34.555 -15.831 -21.798  0.00  0.00    +0.006 C 
ATOM      8  C   UNL     1      34.195 -16.398 -24.119  0.00  0.00    +0.006 C 
ATOM      9  C   UNL     1      34.437 -14.477 -22.110  0.00  0.00    +0.015 C 
ATOM     10  C   UNL     1      34.078 -15.044 -24.431  0.00  0.00    +0.015 C 
BRANCH   6  12
ATOM     11  O   UNL     1      32.095 -12.074 -22.654  0.00  0.00    -0.275 OA
ATOM     12  N   UNL     1      34.083 -12.728 -23.740  0.00  0.00    -0.284 N 
ATOM     13  C   UNL     1      33.076 -11.835 -23.352  0.00  0.00    +0.227 C 
ATOM     14  C   UNL     1      33.315 -10.451 -23.900  0.00  0.00    +0.095 C 
ATOM     15  H   UNL     1      34.798 -12.353 -24.303  0.00  0.00    +0.155 HD
ENDBRANCH   6  12
ENDBRANCH   3   5
BRANCH   2  16
ATOM     16  C   UNL     1      34.488 -19.807 -20.508  0.00  0.00    +0.064 C 
ATOM     17  C   UNL     1      35.722 -20.337 -20.170  0.00  0.00    +0.055 C 
ATOM     18  C   UNL     1      33.314 -20.500 -20.262  0.00  0.00    +0.016 C 
ATOM     19  C   UNL     1      35.784 -21.595 -19.569  0.00  0.00    +0.015 C 
ATOM     20  C   UNL     1      33.376 -21.758 -19.662  0.00  0.00    +0.001 C 
ATOM     21  C   UNL     1      34.611 -22.305 -19.315  0.00  0.00    +0.001 C 
BRANCH  17  22
ATOM     22  N   UNL     1      36.923 -19.635 -20.417  0.00  0.00    -0.356 N 
ATOM     23  H   UNL     1      37.187 -18.889 -19.831  0.00  0.00    +0.142 HD
ATOM     24  H   UNL     1      37.497 -19.891 -21.175  0.00  0.00    +0.142 HD
ENDBRANCH  17  22
ENDBRANCH   2  16
TORSDOF 4
ENDMDL
MODEL 5
REMARK VINA RESULT:      -9.5      3.809      6.415
REMARK  Name = 2746
REMARK  4 active torsions:
REMARK  status: ('A' for Active; 'I' for Inactive)
REMARK    1  A    between atoms: N_2  and  C_16
REMARK    2  A    between atoms: C_3  and  C_5
REMARK    3  A    between atoms: C_6  and  N_12
REMARK    4  A    between atoms: C_17  and  N_22
REMARK                            x       y       z     vdW  Elec       q    Type
REMARK                         _______ _______ _______ _____ _____    ______ ____
ROOT
ATOM      1  O   UNL     1      35.408 -17.142 -20.487  0.00  0.00    -0.270 OA
ATOM      2  N   UNL     1      34.718 -19.108 -21.565  0.00  0.00    -0.279 N 
ATOM      3  C   UNL     1      34.932 -17.726 -21.473  0.00  0.00    +0.250 C 
ATOM      4  H   UNL     1      34.333 -19.426 -22.413  0.00  0.00    +0.155 HD
ENDROOT
BRANCH   3   5
ATOM      5  C   UNL     1      34.530 -16.944 -22.632  0.00  0.00    +0.054 C 
ATOM      6  C   UNL     1      33.757 -15.447 -24.856  0.00  0.00    +0.050 C 
ATOM      7  C   UNL     1      34.831 -17.397 -23.917  0.00  0.00    +0.006 C 
ATOM      8  C   UNL     1      33.842 -15.742 -22.460  0.00  0.00    +0.006 C 
ATOM      9  C   UNL     1      34.446 -16.648 -25.029  0.00  0.00    +0.015 C 
ATOM     10  C   UNL     1      33.457 -14.994 -23.571  0.00  0.00    +0.015 C 
BRANCH   6  12
ATOM     11  O   UNL     1      33.685 -12.467 -25.277  0.00  0.00    -0.275 OA
ATOM     12  N   UNL     1      33.371 -14.699 -25.968  0.00  0.00    -0.284 N 
ATOM     13  C   UNL     1      33.355 -13.305 -26.110  0.00  0.00    +0.227 C 
ATOM     14  C   UNL     1      32.868 -12.887 -27.475  0.00  0.00    +0.095 C 
ATOM     15  H   UNL     1      33.072 -15.214 -26.751  0.00  0.00    +0.155 HD
ENDBRANCH   6  12
ENDBRANCH   3   5
BRANCH   2  16
ATOM     16  C   UNL     1      34.986 -20.108 -20.597  0.00  0.00    +0.064 C 
ATOM     17  C   UNL     1      33.947 -20.819 -20.021  0.00  0.00    +0.055 C 
ATOM     18  C   UNL     1      36.305 -20.346 -20.247  0.00  0.00    +0.016 C 
ATOM     19  C   UNL     1      34.234 -21.797 -19.068  0.00  0.00    +0.015 C 
ATOM     20  C   UNL     1      36.593 -21.324 -19.294  0.00  0.00    +0.001 C 
ATOM     21  C   UNL     1      35.557 -22.049 -18.705  0.00  0.00    +0.001 C 
BRANCH  17  22
ATOM     22  N   UNL     1      32.599 -20.581 -20.373  0.00  0.00    -0.356 N 
ATOM     23  H   UNL     1      32.388 -20.008 -21.146  0.00  0.00    +0.142 HD
ATOM     24  H   UNL     1      31.873 -20.986 -19.848  0.00  0.00    +0.142 HD
ENDBRANCH  17  22
ENDBRANCH   2  16
TORSDOF 4
ENDMDL
MODEL 6
REMARK VINA RESULT:      -9.4      7.127     12.391
REMARK  Name = 2746
REMARK  4 active torsions:
REMARK  status: ('A' for Active; 'I' for Inactive)
REMARK    1  A    between atoms: N_2  and  C_16
REMARK    2  A    between atoms: C_3  and  C_5
REMARK    3  A    between atoms: C_6  and  N_12
REMARK    4  A    between atoms: C_17  and  N_22
REMARK                            x       y       z     vdW  Elec       q    Type
REMARK                         _______ _______ _______ _____ _____    ______ ____
ROOT
ATOM      1  O   UNL     1      30.372 -11.182 -21.062  0.00  0.00    -0.270 OA
ATOM      2  N   UNL     1      32.207 -10.226 -22.168  0.00  0.00    -0.279 N 
ATOM      3  C   UNL     1      31.469 -11.291 -21.632  0.00  0.00    +0.250 C 
ATOM      4  H   UNL     1      33.061 -10.468 -22.592  0.00  0.00    +0.155 HD
ENDROOT
BRANCH   3   5
ATOM      5  C   UNL     1      32.078 -12.606 -21.749  0.00  0.00    +0.054 C 
ATOM      6  C   UNL     1      33.248 -15.129 -21.975  0.00  0.00    +0.050 C 
ATOM      7  C   UNL     1      32.503 -13.070 -22.995  0.00  0.00    +0.006 C 
ATOM      8  C   UNL     1      32.238 -13.406 -20.617  0.00  0.00    +0.006 C 
ATOM      9  C   UNL     1      33.087 -14.331 -23.108  0.00  0.00    +0.015 C 
ATOM     10  C   UNL     1      32.822 -14.666 -20.730  0.00  0.00    +0.015 C 
BRANCH   6  12
ATOM     11  O   UNL     1      35.259 -16.515 -20.214  0.00  0.00    -0.275 OA
ATOM     12  N   UNL     1      33.834 -16.390 -22.089  0.00  0.00    -0.284 N 
ATOM     13  C   UNL     1      34.772 -16.988 -21.236  0.00  0.00    +0.227 C 
ATOM     14  C   UNL     1      35.159 -18.366 -21.709  0.00  0.00    +0.095 C 
ATOM     15  H   UNL     1      33.554 -16.927 -22.865  0.00  0.00    +0.155 HD
ENDBRANCH   6  12
ENDBRANCH   3   5
BRANCH   2  16
ATOM     16  C   UNL     1      31.883  -8.847 -22.181  0.00  0.00    +0.064 C 
ATOM     17  C   UNL     1      32.135  -8.059 -21.070  0.00  0.00    +0.055 C 
ATOM     18  C   UNL     1      31.309  -8.318 -23.326  0.00  0.00    +0.016 C 
ATOM     19  C   UNL     1      31.805  -6.704 -21.105  0.00  0.00    +0.015 C 
ATOM     20  C   UNL     1      30.978  -6.963 -23.360  0.00  0.00    +0.001 C 
ATOM     21  C   UNL     1      31.226  -6.156 -22.250  0.00  0.00    +0.001 C 
BRANCH  17  22
ATOM     22  N   UNL     1      32.720  -8.593 -19.900  0.00  0.00    -0.356 N 
ATOM     23  H   UNL     1      33.438  -8.100 -19.441  0.00  0.00    +0.142 HD
ATOM     24  H   UNL     1      32.409  -9.456 -19.543  0.00  0.00    +0.142 HD
ENDBRANCH  17  22
ENDBRANCH   2  16
TORSDOF 4
ENDMDL
MODEL 7
REMARK VINA RESULT:      -9.4      5.259      7.182
REMARK  Name = 2746
REMARK  4 active torsions:
REMARK  status: ('A' for Active; 'I' for Inactive)
REMARK    1  A    between atoms: N_2  and  C_16
REMARK    2  A    between atoms: C_3  and  C_5
REMARK    3  A    between atoms: C_6  and  N_12
REMARK    4  A    between atoms: C_17  and  N_22
REMARK                            x       y       z     vdW  Elec       q    Type
REMARK                         _______ _______ _______ _____ _____    ______ ____
ROOT
ATOM      1  O   UNL     1      33.465 -24.666 -12.707  0.00  0.00    -0.270 OA
ATOM      2  N   UNL     1      34.836 -24.130 -14.534  0.00  0.00    -0.279 N 
ATOM      3  C   UNL     1      33.613 -24.214 -13.853  0.00  0.00    +0.250 C 
ATOM      4  H   UNL     1      34.796 -23.747 -15.439  0.00  0.00    +0.155 HD
ENDROOT
BRANCH   3   5
ATOM      5  C   UNL     1      32.446 -23.750 -14.587  0.00  0.00    +0.054 C 
ATOM      6  C   UNL     1      30.209 -22.862 -15.996  0.00  0.00    +0.050 C 
ATOM      7  C   UNL     1      32.550 -23.453 -15.947  0.00  0.00    +0.006 C 
ATOM      8  C   UNL     1      31.223 -23.602 -13.933  0.00  0.00    +0.006 C 
ATOM      9  C   UNL     1      31.432 -23.008 -16.651  0.00  0.00    +0.015 C 
ATOM     10  C   UNL     1      30.105 -23.158 -14.638  0.00  0.00    +0.015 C 
BRANCH   6  12
ATOM     11  O   UNL     1      27.935 -24.406 -17.225  0.00  0.00    -0.275 OA
ATOM     12  N   UNL     1      29.090 -22.418 -16.702  0.00  0.00    -0.284 N 
ATOM     13  C   UNL     1      28.057 -23.186 -17.257  0.00  0.00    +0.227 C 
ATOM     14  C   UNL     1      27.027 -22.325 -17.945  0.00  0.00    +0.095 C 
ATOM     15  H   UNL     1      29.017 -21.445 -16.827  0.00  0.00    +0.155 HD
ENDBRANCH   6  12
ENDBRANCH   3   5
BRANCH   2  16
ATOM     16  C   UNL     1      36.122 -24.523 -14.088  0.00  0.00    +0.064 C 
ATOM     17  C   UNL     1      36.655 -25.741 -14.477  0.00  0.00    +0.055 C 
ATOM     18  C   UNL     1      36.820 -23.662 -13.257  0.00  0.00    +0.016 C 
ATOM     19  C   UNL     1      37.922 -26.108 -14.023  0.00  0.00    +0.015 C 
ATOM     20  C   UNL     1      38.087 -24.030 -12.802  0.00  0.00    +0.001 C 
ATOM     21  C   UNL     1      38.638 -25.253 -13.186  0.00  0.00    +0.001 C 
BRANCH  17  22
ATOM     22  N   UNL     1      35.948 -26.623 -15.324  0.00  0.00    -0.356 N 
ATOM     23  H   UNL     1      35.366 -26.263 -16.033  0.00  0.00    +0.142 HD
ATOM     24  H   UNL     1      36.036 -27.596 -15.207  0.00  0.00    +0.142 HD
ENDBRANCH  17  22
ENDBRANCH   2  16
TORSDOF 4
ENDMDL
MODEL 8
REMARK VINA RESULT:      -9.3      4.863      7.117
REMARK  Name = 2746
REMARK  4 active torsions:
REMARK  status: ('A' for Active; 'I' for Inactive)
REMARK    1  A    between atoms: N_2  and  C_16
REMARK    2  A    between atoms: C_3  and  C_5
REMARK    3  A    between atoms: C_6  and  N_12
REMARK    4  A    between atoms: C_17  and  N_22
REMARK                            x       y       z     vdW  Elec       q    Type
REMARK                         _______ _______ _______ _____ _____    ______ ____
ROOT
ATOM      1  O   UNL     1      35.017 -23.901 -16.352  0.00  0.00    -0.270 OA
ATOM      2  N   UNL     1      34.821 -24.307 -14.050  0.00  0.00    -0.279 N 
ATOM      3  C   UNL     1      34.338 -23.939 -15.314  0.00  0.00    +0.250 C 
ATOM      4  H   UNL     1      34.162 -24.290 -13.319  0.00  0.00    +0.155 HD
ENDROOT
BRANCH   3   5
ATOM      5  C   UNL     1      32.937 -23.554 -15.369  0.00  0.00    +0.054 C 
ATOM      6  C   UNL     1      30.249 -22.816 -15.474  0.00  0.00    +0.050 C 
ATOM      7  C   UNL     1      32.171 -23.538 -14.202  0.00  0.00    +0.006 C 
ATOM      8  C   UNL     1      32.357 -23.202 -16.588  0.00  0.00    +0.006 C 
ATOM      9  C   UNL     1      30.828 -23.170 -14.255  0.00  0.00    +0.015 C 
ATOM     10  C   UNL     1      31.013 -22.833 -16.640  0.00  0.00    +0.015 C 
BRANCH   6  12
ATOM     11  O   UNL     1      28.172 -23.289 -17.602  0.00  0.00    -0.275 OA
ATOM     12  N   UNL     1      28.904 -22.446 -15.525  0.00  0.00    -0.284 N 
ATOM     13  C   UNL     1      27.978 -22.692 -16.548  0.00  0.00    +0.227 C 
ATOM     14  C   UNL     1      26.620 -22.125 -16.221  0.00  0.00    +0.095 C 
ATOM     15  H   UNL     1      28.564 -21.949 -14.747  0.00  0.00    +0.155 HD
ENDBRANCH   6  12
ENDBRANCH   3   5
BRANCH   2  16
ATOM     16  C   UNL     1      36.133 -24.702 -13.688  0.00  0.00    +0.064 C 
ATOM     17  C   UNL     1      36.688 -25.854 -14.217  0.00  0.00    +0.055 C 
ATOM     18  C   UNL     1      36.834 -23.908 -12.794  0.00  0.00    +0.016 C 
ATOM     19  C   UNL     1      37.981 -26.223 -13.844  0.00  0.00    +0.015 C 
ATOM     20  C   UNL     1      38.126 -24.277 -12.420  0.00  0.00    +0.001 C 
ATOM     21  C   UNL     1      38.699 -25.436 -12.946  0.00  0.00    +0.001 C 
BRANCH  17  22
ATOM     22  N   UNL     1      35.979 -26.668 -15.129  0.00  0.00    -0.356 N 
ATOM     23  H   UNL     1      36.202 -26.642 -16.088  0.00  0.00    +0.142 HD
ATOM     24  H   UNL     1      35.262 -27.260 -14.807  0.00  0.00    +0.142 HD
ENDBRANCH  17  22
ENDBRANCH   2  16
TORSDOF 4
ENDMDL
MODEL 9
REMARK VINA RESULT:      -9.3      7.943     10.790
REMARK  Name = 2746
REMARK  4 active torsions:
REMARK  status: ('A' for Active; 'I' for Inactive)
REMARK    1  A    between atoms: N_2  and  C_16
REMARK    2  A    between atoms: C_3  and  C_5
REMARK    3  A    between atoms: C_6  and  N_12
REMARK    4  A    between atoms: C_17  and  N_22
REMARK                            x       y       z     vdW  Elec       q    Type
REMARK                         _______ _______ _______ _____ _____    ______ ____
ROOT
ATOM      1  O   UNL     1      32.093 -14.852 -21.771  0.00  0.00    -0.270 OA
ATOM      2  N   UNL     1      33.836 -14.454 -23.290  0.00  0.00    -0.279 N 
ATOM      3  C   UNL     1      32.785 -14.072 -22.444  0.00  0.00    +0.250 C 
ATOM      4  H   UNL     1      34.295 -13.721 -23.760  0.00  0.00    +0.155 HD
ENDROOT
BRANCH   3   5
ATOM      5  C   UNL     1      32.495 -12.648 -22.397  0.00  0.00    +0.054 C 
ATOM      6  C   UNL     1      31.939  -9.916 -22.309  0.00  0.00    +0.050 C 
ATOM      7  C   UNL     1      33.070 -11.788 -23.333  0.00  0.00    +0.006 C 
ATOM      8  C   UNL     1      31.642 -12.141 -21.416  0.00  0.00    +0.006 C 
ATOM      9  C   UNL     1      32.793 -10.422 -23.289  0.00  0.00    +0.015 C 
ATOM     10  C   UNL     1      31.364 -10.775 -21.373  0.00  0.00    +0.015 C 
BRANCH   6  12
ATOM     11  O   UNL     1      33.055  -7.749 -20.541  0.00  0.00    -0.275 OA
ATOM     12  N   UNL     1      31.660  -8.549 -22.266  0.00  0.00    -0.284 N 
ATOM     13  C   UNL     1      32.212  -7.581 -21.416  0.00  0.00    +0.227 C 
ATOM     14  C   UNL     1      31.645  -6.210 -21.687  0.00  0.00    +0.095 C 
ATOM     15  H   UNL     1      30.994  -8.224 -22.913  0.00  0.00    +0.155 HD
ENDBRANCH   6  12
ENDBRANCH   3   5
BRANCH   2  16
ATOM     16  C   UNL     1      34.326 -15.757 -23.555  0.00  0.00    +0.064 C 
ATOM     17  C   UNL     1      34.131 -16.337 -24.797  0.00  0.00    +0.055 C 
ATOM     18  C   UNL     1      34.995 -16.425 -22.543  0.00  0.00    +0.016 C 
ATOM     19  C   UNL     1      34.620 -17.622 -25.034  0.00  0.00    +0.015 C 
ATOM     20  C   UNL     1      35.484 -17.711 -22.780  0.00  0.00    +0.001 C 
ATOM     21  C   UNL     1      35.296 -18.309 -24.026  0.00  0.00    +0.001 C 
BRANCH  17  22
ATOM     22  N   UNL     1      33.449 -15.661 -25.833  0.00  0.00    -0.356 N 
ATOM     23  H   UNL     1      32.551 -15.958 -26.107  0.00  0.00    +0.142 HD
ATOM     24  H   UNL     1      33.871 -14.893 -26.281  0.00  0.00    +0.142 HD
ENDBRANCH  17  22
ENDBRANCH   2  16
TORSDOF 4
ENDMDL
