MODEL 1
REMARK VINA RESULT:      -9.9      0.000      0.000
REMARK  Name = 23630026
REMARK  7 active torsions:
REMARK  status: ('A' for Active; 'I' for Inactive)
REMARK    1  A    between atoms: C_3  and  C_11
REMARK    2  A    between atoms: C_6  and  N_28
REMARK    3  A    between atoms: C_9  and  C_23
REMARK    4  A    between atoms: C_12  and  O_17
REMARK    5  A    between atoms: C_14  and  O_19
REMARK    6  A    between atoms: N_22  and  C_25
REMARK    7  A    between atoms: C_25  and  C_26
REMARK                            x       y       z     vdW  Elec       q    Type
REMARK                         _______ _______ _______ _____ _____    ______ ____
ROOT
ATOM      1  N   UNL     1      34.241 -14.945 -22.494  0.00  0.00    -0.152 NA
ATOM      2  N   UNL     1      34.886 -15.996 -21.900  0.00  0.00    -0.142 NA
ATOM      3  C   UNL     1      33.180 -13.949 -24.378  0.00  0.00    +0.089 C 
ATOM      4  C   UNL     1      33.835 -15.019 -23.774  0.00  0.00    +0.086 A 
ATOM      5  C   UNL     1      34.063 -16.179 -24.533  0.00  0.00    +0.013 A 
ATOM      6  C   UNL     1      34.721 -17.248 -23.925  0.00  0.00    +0.063 A 
ATOM      7  C   UNL     1      32.753 -14.012 -25.706  0.00  0.00    -0.020 C 
ATOM      8  C   UNL     1      33.635 -16.244 -25.870  0.00  0.00    +0.055 C 
ATOM      9  C   UNL     1      35.114 -17.114 -22.610  0.00  0.00    +0.168 A 
ATOM     10  C   UNL     1      32.981 -15.162 -26.454  0.00  0.00    -0.025 C 
ENDROOT
BRANCH   3  11
ATOM     11  C   UNL     1      32.920 -12.728 -23.636  0.00  0.00    +0.024 C 
ATOM     12  C   UNL     1      33.543 -11.533 -23.990  0.00  0.00    +0.136 C 
ATOM     13  C   UNL     1      32.034 -12.765 -22.561  0.00  0.00    +0.036 C 
ATOM     14  C   UNL     1      31.771 -11.603 -21.836  0.00  0.00    +0.139 C 
ATOM     15  C   UNL     1      33.280 -10.370 -23.264  0.00  0.00    +0.040 C 
ATOM     16  C   UNL     1      32.394 -10.406 -22.188  0.00  0.00    +0.040 C 
BRANCH  12  17
ATOM     17  O   UNL     1      34.415 -11.471 -25.037  0.00  0.00    -0.472 OA
ATOM     18  C   UNL     1      35.174 -10.273 -25.177  0.00  0.00    +0.252 C 
ENDBRANCH  12  17
BRANCH  14  19
ATOM     19  O   UNL     1      30.906 -11.637 -20.785  0.00  0.00    -0.471 OA
ATOM     20  C   UNL     1      31.263 -10.885 -19.626  0.00  0.00    +0.252 C 
ENDBRANCH  14  19
ENDBRANCH   3  11
BRANCH   9  23
ATOM     21  O   UNL     1      37.025 -18.342 -22.036  0.00  0.00    -0.268 OA
ATOM     22  N   UNL     1      35.034 -18.951 -21.017  0.00  0.00    -0.300 N 
ATOM     23  C   UNL     1      35.803 -18.171 -21.888  0.00  0.00    +0.267 C 
ATOM     24  H   UNL     1      34.071 -18.760 -20.949  0.00  0.00    +0.150 HD
BRANCH  22  25
ATOM     25  C   UNL     1      35.577 -20.022 -20.213  0.00  0.00    +0.090 C 
BRANCH  25  26
ATOM     26  C   UNL     1      34.521 -21.051 -19.827  0.00  0.00    +0.021 C 
ATOM     27  C   UNL     1      33.104 -20.579 -20.120  0.00  0.00    +0.002 C 
ENDBRANCH  25  26
ENDBRANCH  22  25
ENDBRANCH   9  23
BRANCH   6  28
ATOM     28  N   UNL     1      34.988 -18.449 -24.618  0.00  0.00    -0.356 N 
ATOM     29  H   UNL     1      34.680 -18.560 -25.547  0.00  0.00    +0.142 HD
ATOM     30  H   UNL     1      35.482 -19.175 -24.174  0.00  0.00    +0.142 HD
ENDBRANCH   6  28
TORSDOF 7
ENDMDL
MODEL 2
REMARK VINA RESULT:      -9.5      6.698     13.288
REMARK  Name = 23630026
REMARK  7 active torsions:
REMARK  status: ('A' for Active; 'I' for Inactive)
REMARK    1  A    between atoms: C_3  and  C_11
REMARK    2  A    between atoms: C_6  and  N_28
REMARK    3  A    between atoms: C_9  and  C_23
REMARK    4  A    between atoms: C_12  and  O_17
REMARK    5  A    between atoms: C_14  and  O_19
REMARK    6  A    between atoms: N_22  and  C_25
REMARK    7  A    between atoms: C_25  and  C_26
REMARK                            x       y       z     vdW  Elec       q    Type
REMARK                         _______ _______ _______ _____ _____    ______ ____
ROOT
ATOM      1  N   UNL     1      35.619 -23.338 -16.383  0.00  0.00    -0.152 NA
ATOM      2  N   UNL     1      35.379 -22.731 -17.587  0.00  0.00    -0.142 NA
ATOM      3  C   UNL     1      34.848 -24.319 -14.356  0.00  0.00    +0.089 C 
ATOM      4  C   UNL     1      34.603 -23.701 -15.580  0.00  0.00    +0.086 A 
ATOM      5  C   UNL     1      33.270 -23.465 -15.956  0.00  0.00    +0.013 A 
ATOM      6  C   UNL     1      33.030 -22.845 -17.182  0.00  0.00    +0.063 A 
ATOM      7  C   UNL     1      33.804 -24.700 -13.511  0.00  0.00    -0.020 C 
ATOM      8  C   UNL     1      32.218 -23.848 -15.107  0.00  0.00    +0.055 C 
ATOM      9  C   UNL     1      34.111 -22.496 -17.964  0.00  0.00    +0.168 A 
ATOM     10  C   UNL     1      32.486 -24.464 -13.887  0.00  0.00    -0.025 C 
ENDROOT
BRANCH   3  11
ATOM     11  C   UNL     1      36.208 -24.585 -13.922  0.00  0.00    +0.024 C 
ATOM     12  C   UNL     1      36.671 -24.108 -12.696  0.00  0.00    +0.136 C 
ATOM     13  C   UNL     1      37.049 -25.328 -14.748  0.00  0.00    +0.036 C 
ATOM     14  C   UNL     1      38.358 -25.594 -14.348  0.00  0.00    +0.139 C 
ATOM     15  C   UNL     1      37.981 -24.375 -12.297  0.00  0.00    +0.040 C 
ATOM     16  C   UNL     1      38.824 -25.118 -13.123  0.00  0.00    +0.040 C 
BRANCH  12  17
ATOM     17  O   UNL     1      35.868 -23.378 -11.871  0.00  0.00    -0.472 OA
ATOM     18  C   UNL     1      35.790 -23.793 -10.510  0.00  0.00    +0.252 C 
ENDBRANCH  12  17
BRANCH  14  19
ATOM     19  O   UNL     1      39.182 -26.320 -15.154  0.00  0.00    -0.471 OA
ATOM     20  C   UNL     1      40.585 -26.106 -15.008  0.00  0.00    +0.252 C 
ENDBRANCH  14  19
ENDBRANCH   3  11
BRANCH   9  23
ATOM     21  O   UNL     1      33.027 -22.158 -20.014  0.00  0.00    -0.268 OA
ATOM     22  N   UNL     1      34.900 -20.862 -19.584  0.00  0.00    -0.300 N 
ATOM     23  C   UNL     1      33.964 -21.849 -19.258  0.00  0.00    +0.267 C 
ATOM     24  H   UNL     1      35.616 -20.668 -18.938  0.00  0.00    +0.150 HD
BRANCH  22  25
ATOM     25  C   UNL     1      34.874 -20.113 -20.820  0.00  0.00    +0.090 C 
BRANCH  25  26
ATOM     26  C   UNL     1      36.093 -19.212 -20.979  0.00  0.00    +0.021 C 
ATOM     27  C   UNL     1      35.979 -18.273 -22.171  0.00  0.00    +0.002 C 
ENDBRANCH  25  26
ENDBRANCH  22  25
ENDBRANCH   9  23
BRANCH   6  28
ATOM     28  N   UNL     1      31.720 -22.573 -17.634  0.00  0.00    -0.356 N 
ATOM     29  H   UNL     1      31.084 -22.106 -17.045  0.00  0.00    +0.142 HD
ATOM     30  H   UNL     1      31.443 -22.848 -18.537  0.00  0.00    +0.142 HD
ENDBRANCH   6  28
TORSDOF 7
ENDMDL
MODEL 3
REMARK VINA RESULT:      -9.2      1.135      2.487
REMARK  Name = 23630026
REMARK  7 active torsions:
REMARK  status: ('A' for Active; 'I' for Inactive)
REMARK    1  A    between atoms: C_3  and  C_11
REMARK    2  A    between atoms: C_6  and  N_28
REMARK    3  A    between atoms: C_9  and  C_23
REMARK    4  A    between atoms: C_12  and  O_17
REMARK    5  A    between atoms: C_14  and  O_19
REMARK    6  A    between atoms: N_22  and  C_25
REMARK    7  A    between atoms: C_25  and  C_26
REMARK                            x       y       z     vdW  Elec       q    Type
REMARK                         _______ _______ _______ _____ _____    ______ ____
ROOT
ATOM      1  N   UNL     1      34.508 -14.517 -23.004  0.00  0.00    -0.152 NA
ATOM      2  N   UNL     1      35.073 -15.613 -22.410  0.00  0.00    -0.142 NA
ATOM      3  C   UNL     1      33.379 -13.487 -24.829  0.00  0.00    +0.089 C 
ATOM      4  C   UNL     1      33.953 -14.604 -24.225  0.00  0.00    +0.086 A 
ATOM      5  C   UNL     1      33.938 -15.823 -24.922  0.00  0.00    +0.013 A 
ATOM      6  C   UNL     1      34.515 -16.938 -24.314  0.00  0.00    +0.063 A 
ATOM      7  C   UNL     1      32.799 -13.563 -26.097  0.00  0.00    -0.020 C 
ATOM      8  C   UNL     1      33.355 -15.901 -26.198  0.00  0.00    +0.055 C 
ATOM      9  C   UNL     1      35.069 -16.789 -23.061  0.00  0.00    +0.168 A 
ATOM     10  C   UNL     1      32.787 -14.772 -26.784  0.00  0.00    -0.025 C 
ENDROOT
BRANCH   3  11
ATOM     11  C   UNL     1      33.369 -12.204 -24.150  0.00  0.00    +0.024 C 
ATOM     12  C   UNL     1      32.564 -11.997 -23.031  0.00  0.00    +0.136 C 
ATOM     13  C   UNL     1      34.176 -11.176 -24.633  0.00  0.00    +0.036 C 
ATOM     14  C   UNL     1      34.180  -9.936 -23.994  0.00  0.00    +0.139 C 
ATOM     15  C   UNL     1      32.567 -10.756 -22.393  0.00  0.00    +0.040 C 
ATOM     16  C   UNL     1      33.376  -9.726 -22.874  0.00  0.00    +0.040 C 
BRANCH  12  17
ATOM     17  O   UNL     1      31.763 -12.986 -22.541  0.00  0.00    -0.472 OA
ATOM     18  C   UNL     1      31.950 -13.354 -21.177  0.00  0.00    +0.252 C 
ENDBRANCH  12  17
BRANCH  14  19
ATOM     19  O   UNL     1      34.969  -8.931 -24.463  0.00  0.00    -0.471 OA
ATOM     20  C   UNL     1      34.766  -7.633 -23.906  0.00  0.00    +0.252 C 
ENDBRANCH  14  19
ENDBRANCH   3  11
BRANCH   9  23
ATOM     21  O   UNL     1      36.899 -18.142 -22.499  0.00  0.00    -0.268 OA
ATOM     22  N   UNL     1      34.877 -18.619 -21.470  0.00  0.00    -0.300 N 
ATOM     23  C   UNL     1      35.691 -17.891 -22.344  0.00  0.00    +0.267 C 
ATOM     24  H   UNL     1      33.929 -18.366 -21.396  0.00  0.00    +0.150 HD
BRANCH  22  25
ATOM     25  C   UNL     1      35.353 -19.726 -20.671  0.00  0.00    +0.090 C 
BRANCH  25  26
ATOM     26  C   UNL     1      34.215 -20.585 -20.133  0.00  0.00    +0.021 C 
ATOM     27  C   UNL     1      32.843 -20.065 -20.537  0.00  0.00    +0.002 C 
ENDBRANCH  25  26
ENDBRANCH  22  25
ENDBRANCH   9  23
BRANCH   6  28
ATOM     28  N   UNL     1      34.541 -18.201 -24.946  0.00  0.00    -0.356 N 
ATOM     29  H   UNL     1      35.066 -18.327 -25.770  0.00  0.00    +0.142 HD
ATOM     30  H   UNL     1      34.035 -18.954 -24.565  0.00  0.00    +0.142 HD
ENDBRANCH   6  28
TORSDOF 7
ENDMDL
MODEL 4
REMARK VINA RESULT:      -9.2      1.905      7.296
REMARK  Name = 23630026
REMARK  7 active torsions:
REMARK  status: ('A' for Active; 'I' for Inactive)
REMARK    1  A    between atoms: C_3  and  C_11
REMARK    2  A    between atoms: C_6  and  N_28
REMARK    3  A    between atoms: C_9  and  C_23
REMARK    4  A    between atoms: C_12  and  O_17
REMARK    5  A    between atoms: C_14  and  O_19
REMARK    6  A    between atoms: N_22  and  C_25
REMARK    7  A    between atoms: C_25  and  C_26
REMARK                            x       y       z     vdW  Elec       q    Type
REMARK                         _______ _______ _______ _____ _____    ______ ____
ROOT
ATOM      1  N   UNL     1      33.810 -16.220 -21.771  0.00  0.00    -0.152 NA
ATOM      2  N   UNL     1      33.349 -14.942 -21.603  0.00  0.00    -0.142 NA
ATOM      3  C   UNL     1      34.518 -18.009 -23.172  0.00  0.00    +0.089 C 
ATOM      4  C   UNL     1      34.049 -16.709 -23.001  0.00  0.00    +0.086 A 
ATOM      5  C   UNL     1      33.831 -15.920 -24.143  0.00  0.00    +0.013 A 
ATOM      6  C   UNL     1      33.361 -14.620 -23.967  0.00  0.00    +0.063 A 
ATOM      7  C   UNL     1      34.770 -18.531 -24.442  0.00  0.00    -0.020 C 
ATOM      8  C   UNL     1      34.085 -16.444 -25.422  0.00  0.00    +0.055 C 
ATOM      9  C   UNL     1      33.134 -14.172 -22.682  0.00  0.00    +0.168 A 
ATOM     10  C   UNL     1      34.553 -17.747 -25.570  0.00  0.00    -0.025 C 
ENDROOT
BRANCH   3  11
ATOM     11  C   UNL     1      34.760 -18.865 -22.024  0.00  0.00    +0.024 C 
ATOM     12  C   UNL     1      36.021 -18.926 -21.434  0.00  0.00    +0.136 C 
ATOM     13  C   UNL     1      33.710 -19.628 -21.516  0.00  0.00    +0.036 C 
ATOM     14  C   UNL     1      33.923 -20.456 -20.413  0.00  0.00    +0.139 C 
ATOM     15  C   UNL     1      36.233 -19.755 -20.331  0.00  0.00    +0.040 C 
ATOM     16  C   UNL     1      35.184 -20.519 -19.821  0.00  0.00    +0.040 C 
BRANCH  12  17
ATOM     17  O   UNL     1      37.064 -18.190 -21.913  0.00  0.00    -0.472 OA
ATOM     18  C   UNL     1      38.313 -18.860 -22.066  0.00  0.00    +0.252 C 
ENDBRANCH  12  17
BRANCH  14  19
ATOM     19  O   UNL     1      32.899 -21.202 -19.915  0.00  0.00    -0.471 OA
ATOM     20  C   UNL     1      33.211 -22.107 -18.858  0.00  0.00    +0.252 C 
ENDBRANCH  14  19
ENDBRANCH   3  11
BRANCH   9  23
ATOM     21  O   UNL     1      33.099 -11.852 -23.013  0.00  0.00    -0.268 OA
ATOM     22  N   UNL     1      31.644 -12.715 -21.427  0.00  0.00    -0.300 N 
ATOM     23  C   UNL     1      32.647 -12.832 -22.396  0.00  0.00    +0.267 C 
ATOM     24  H   UNL     1      31.334 -13.533 -20.977  0.00  0.00    +0.150 HD
BRANCH  22  25
ATOM     25  C   UNL     1      31.042 -11.457 -21.048  0.00  0.00    +0.090 C 
BRANCH  25  26
ATOM     26  C   UNL     1      31.353 -11.075 -19.606  0.00  0.00    +0.021 C 
ATOM     27  C   UNL     1      31.761  -9.616 -19.458  0.00  0.00    +0.002 C 
ENDBRANCH  25  26
ENDBRANCH  22  25
ENDBRANCH   9  23
BRANCH   6  28
ATOM     28  N   UNL     1      33.117 -13.761 -25.062  0.00  0.00    -0.356 N 
ATOM     29  H   UNL     1      32.332 -13.911 -25.638  0.00  0.00    +0.142 HD
ATOM     30  H   UNL     1      33.730 -13.015 -25.249  0.00  0.00    +0.142 HD
ENDBRANCH   6  28
TORSDOF 7
ENDMDL
MODEL 5
REMARK VINA RESULT:      -9.1      6.223     12.415
REMARK  Name = 23630026
REMARK  7 active torsions:
REMARK  status: ('A' for Active; 'I' for Inactive)
REMARK    1  A    between atoms: C_3  and  C_11
REMARK    2  A    between atoms: C_6  and  N_28
REMARK    3  A    between atoms: C_9  and  C_23
REMARK    4  A    between atoms: C_12  and  O_17
REMARK    5  A    between atoms: C_14  and  O_19
REMARK    6  A    between atoms: N_22  and  C_25
REMARK    7  A    between atoms: C_25  and  C_26
REMARK                            x       y       z     vdW  Elec       q    Type
REMARK                         _______ _______ _______ _____ _____    ______ ____
ROOT
ATOM      1  N   UNL     1      36.080 -22.817 -16.772  0.00  0.00    -0.152 NA
ATOM      2  N   UNL     1      36.326 -22.180 -17.958  0.00  0.00    -0.142 NA
ATOM      3  C   UNL     1      34.575 -23.791 -15.205  0.00  0.00    +0.089 C 
ATOM      4  C   UNL     1      34.826 -23.143 -16.413  0.00  0.00    +0.086 A 
ATOM      5  C   UNL     1      33.737 -22.838 -17.247  0.00  0.00    +0.013 A 
ATOM      6  C   UNL     1      33.992 -22.189 -18.454  0.00  0.00    +0.063 A 
ATOM      7  C   UNL     1      33.278 -24.136 -14.820  0.00  0.00    -0.020 C 
ATOM      8  C   UNL     1      32.431 -23.184 -16.860  0.00  0.00    +0.055 C 
ATOM      9  C   UNL     1      35.299 -21.879 -18.769  0.00  0.00    +0.168 A 
ATOM     10  C   UNL     1      32.204 -23.832 -15.648  0.00  0.00    -0.025 C 
ENDROOT
BRANCH   3  11
ATOM     11  C   UNL     1      35.666 -24.129 -14.308  0.00  0.00    +0.024 C 
ATOM     12  C   UNL     1      36.439 -25.268 -14.524  0.00  0.00    +0.136 C 
ATOM     13  C   UNL     1      35.931 -23.296 -13.223  0.00  0.00    +0.036 C 
ATOM     14  C   UNL     1      36.975 -23.604 -12.349  0.00  0.00    +0.139 C 
ATOM     15  C   UNL     1      37.483 -25.576 -13.650  0.00  0.00    +0.040 C 
ATOM     16  C   UNL     1      37.750 -24.743 -12.564  0.00  0.00    +0.040 C 
BRANCH  12  17
ATOM     17  O   UNL     1      36.198 -26.099 -15.578  0.00  0.00    -0.472 OA
ATOM     18  C   UNL     1      36.977 -27.291 -15.654  0.00  0.00    +0.252 C 
ENDBRANCH  12  17
BRANCH  14  19
ATOM     19  O   UNL     1      37.237 -22.792 -11.289  0.00  0.00    -0.471 OA
ATOM     20  C   UNL     1      36.548 -23.073 -10.071  0.00  0.00    +0.252 C 
ENDBRANCH  14  19
ENDBRANCH   3  11
BRANCH   9  23
ATOM     21  O   UNL     1      36.282 -21.815 -20.896  0.00  0.00    -0.268 OA
ATOM     22  N   UNL     1      35.274 -19.869 -20.140  0.00  0.00    -0.300 N 
ATOM     23  C   UNL     1      35.666 -21.205 -20.004  0.00  0.00    +0.267 C 
ATOM     24  H   UNL     1      34.789 -19.448 -19.394  0.00  0.00    +0.150 HD
BRANCH  22  25
ATOM     25  C   UNL     1      35.543 -19.072 -21.315  0.00  0.00    +0.090 C 
BRANCH  25  26
ATOM     26  C   UNL     1      34.420 -19.155 -22.342  0.00  0.00    +0.021 C 
ATOM     27  C   UNL     1      34.933 -19.175 -23.774  0.00  0.00    +0.002 C 
ENDBRANCH  25  26
ENDBRANCH  22  25
ENDBRANCH   9  23
BRANCH   6  28
ATOM     28  N   UNL     1      32.955 -21.847 -19.350  0.00  0.00    -0.356 N 
ATOM     29  H   UNL     1      32.019 -21.858 -19.044  0.00  0.00    +0.142 HD
ATOM     30  H   UNL     1      33.167 -21.599 -20.278  0.00  0.00    +0.142 HD
ENDBRANCH   6  28
TORSDOF 7
ENDMDL
MODEL 6
REMARK VINA RESULT:      -8.6      3.690      8.770
REMARK  Name = 23630026
REMARK  7 active torsions:
REMARK  status: ('A' for Active; 'I' for Inactive)
REMARK    1  A    between atoms: C_3  and  C_11
REMARK    2  A    between atoms: C_6  and  N_28
REMARK    3  A    between atoms: C_9  and  C_23
REMARK    4  A    between atoms: C_12  and  O_17
REMARK    5  A    between atoms: C_14  and  O_19
REMARK    6  A    between atoms: N_22  and  C_25
REMARK    7  A    between atoms: C_25  and  C_26
REMARK                            x       y       z     vdW  Elec       q    Type
REMARK                         _______ _______ _______ _____ _____    ______ ____
ROOT
ATOM      1  N   UNL     1      33.705 -11.141 -23.889  0.00  0.00    -0.152 NA
ATOM      2  N   UNL     1      33.917  -9.833 -24.235  0.00  0.00    -0.142 NA
ATOM      3  C   UNL     1      32.710 -12.788 -22.489  0.00  0.00    +0.089 C 
ATOM      4  C   UNL     1      32.925 -11.458 -22.841  0.00  0.00    +0.086 A 
ATOM      5  C   UNL     1      32.306 -10.455 -22.076  0.00  0.00    +0.013 A 
ATOM      6  C   UNL     1      32.524  -9.125 -22.432  0.00  0.00    +0.063 A 
ATOM      7  C   UNL     1      31.902 -13.133 -21.404  0.00  0.00    -0.020 C 
ATOM      8  C   UNL     1      31.492 -10.801 -20.984  0.00  0.00    +0.055 C 
ATOM      9  C   UNL     1      33.334  -8.859 -23.516  0.00  0.00    +0.168 A 
ATOM     10  C   UNL     1      31.291 -12.137 -20.649  0.00  0.00    -0.025 C 
ENDROOT
BRANCH   3  11
ATOM     11  C   UNL     1      33.326 -13.862 -23.248  0.00  0.00    +0.024 C 
ATOM     12  C   UNL     1      34.231 -14.733 -22.643  0.00  0.00    +0.136 C 
ATOM     13  C   UNL     1      33.001 -14.013 -24.594  0.00  0.00    +0.036 C 
ATOM     14  C   UNL     1      33.582 -15.038 -25.340  0.00  0.00    +0.139 C 
ATOM     15  C   UNL     1      34.813 -15.759 -23.390  0.00  0.00    +0.040 C 
ATOM     16  C   UNL     1      34.488 -15.911 -24.737  0.00  0.00    +0.040 C 
BRANCH  12  17
ATOM     17  O   UNL     1      34.568 -14.606 -21.328  0.00  0.00    -0.472 OA
ATOM     18  C   UNL     1      34.591 -15.797 -20.547  0.00  0.00    +0.252 C 
ENDBRANCH  12  17
BRANCH  14  19
ATOM     19  O   UNL     1      33.265 -15.188 -26.655  0.00  0.00    -0.471 OA
ATOM     20  C   UNL     1      33.035 -13.997 -27.406  0.00  0.00    +0.252 C 
ENDBRANCH  14  19
ENDBRANCH   3  11
BRANCH   9  23
ATOM     21  O   UNL     1      34.763  -7.031 -23.847  0.00  0.00    -0.268 OA
ATOM     22  N   UNL     1      32.566  -6.796 -24.551  0.00  0.00    -0.300 N 
ATOM     23  C   UNL     1      33.620  -7.506 -23.966  0.00  0.00    +0.267 C 
ATOM     24  H   UNL     1      31.688  -7.234 -24.613  0.00  0.00    +0.150 HD
BRANCH  22  25
ATOM     25  C   UNL     1      32.698  -5.453 -25.068  0.00  0.00    +0.090 C 
BRANCH  25  26
ATOM     26  C   UNL     1      31.575  -4.537 -24.599  0.00  0.00    +0.021 C 
ATOM     27  C   UNL     1      31.207  -4.757 -23.139  0.00  0.00    +0.002 C 
ENDBRANCH  25  26
ENDBRANCH  22  25
ENDBRANCH   9  23
BRANCH   6  28
ATOM     28  N   UNL     1      31.939  -8.057 -21.716  0.00  0.00    -0.356 N 
ATOM     29  H   UNL     1      30.990  -8.103 -21.453  0.00  0.00    +0.142 HD
ATOM     30  H   UNL     1      32.477  -7.268 -21.480  0.00  0.00    +0.142 HD
ENDBRANCH   6  28
TORSDOF 7
ENDMDL
MODEL 7
REMARK VINA RESULT:      -8.3      2.981      8.234
REMARK  Name = 23630026
REMARK  7 active torsions:
REMARK  status: ('A' for Active; 'I' for Inactive)
REMARK    1  A    between atoms: C_3  and  C_11
REMARK    2  A    between atoms: C_6  and  N_28
REMARK    3  A    between atoms: C_9  and  C_23
REMARK    4  A    between atoms: C_12  and  O_17
REMARK    5  A    between atoms: C_14  and  O_19
REMARK    6  A    between atoms: N_22  and  C_25
REMARK    7  A    between atoms: C_25  and  C_26
REMARK                            x       y       z     vdW  Elec       q    Type
REMARK                         _______ _______ _______ _____ _____    ______ ____
ROOT
ATOM      1  N   UNL     1      33.053 -12.384 -23.513  0.00  0.00    -0.152 NA
ATOM      2  N   UNL     1      32.779 -11.053 -23.682  0.00  0.00    -0.142 NA
ATOM      3  C   UNL     1      33.067 -14.352 -22.176  0.00  0.00    +0.089 C 
ATOM      4  C   UNL     1      32.787 -12.999 -22.348  0.00  0.00    +0.086 A 
ATOM      5  C   UNL     1      32.221 -12.291 -21.274  0.00  0.00    +0.013 A 
ATOM      6  C   UNL     1      31.944 -10.936 -21.451  0.00  0.00    +0.063 A 
ATOM      7  C   UNL     1      32.796 -15.004 -20.971  0.00  0.00    -0.020 C 
ATOM      8  C   UNL     1      31.948 -12.946 -20.061  0.00  0.00    +0.055 C 
ATOM      9  C   UNL     1      32.238 -10.358 -22.668  0.00  0.00    +0.168 A 
ATOM     10  C   UNL     1      32.236 -14.300 -19.911  0.00  0.00    -0.025 C 
ENDROOT
BRANCH   3  11
ATOM     11  C   UNL     1      33.652 -15.129 -23.254  0.00  0.00    +0.024 C 
ATOM     12  C   UNL     1      34.593 -16.122 -22.988  0.00  0.00    +0.136 C 
ATOM     13  C   UNL     1      33.260 -14.868 -24.566  0.00  0.00    +0.036 C 
ATOM     14  C   UNL     1      33.810 -15.604 -25.615  0.00  0.00    +0.139 C 
ATOM     15  C   UNL     1      35.144 -16.857 -24.038  0.00  0.00    +0.040 C 
ATOM     16  C   UNL     1      34.752 -16.598 -25.351  0.00  0.00    +0.040 C 
BRANCH  12  17
ATOM     17  O   UNL     1      34.994 -16.394 -21.714  0.00  0.00    -0.472 OA
ATOM     18  C   UNL     1      35.385 -17.736 -21.430  0.00  0.00    +0.252 C 
ENDBRANCH  12  17
BRANCH  14  19
ATOM     19  O   UNL     1      33.428 -15.352 -26.897  0.00  0.00    -0.471 OA
ATOM     20  C   UNL     1      33.250 -13.985 -27.264  0.00  0.00    +0.252 C 
ENDBRANCH  14  19
ENDBRANCH   3  11
BRANCH   9  23
ATOM     21  O   UNL     1      30.849  -8.575 -23.287  0.00  0.00    -0.268 OA
ATOM     22  N   UNL     1      33.058  -8.072 -22.797  0.00  0.00    -0.300 N 
ATOM     23  C   UNL     1      31.984  -8.954 -22.950  0.00  0.00    +0.267 C 
ATOM     24  H   UNL     1      33.929  -8.441 -22.527  0.00  0.00    +0.150 HD
BRANCH  22  25
ATOM     25  C   UNL     1      32.959  -6.647 -23.016  0.00  0.00    +0.090 C 
BRANCH  25  26
ATOM     26  C   UNL     1      33.172  -6.268 -24.477  0.00  0.00    +0.021 C 
ATOM     27  C   UNL     1      34.559  -6.634 -24.984  0.00  0.00    +0.002 C 
ENDBRANCH  25  26
ENDBRANCH  22  25
ENDBRANCH   9  23
BRANCH   6  28
ATOM     28  N   UNL     1      31.373 -10.153 -20.423  0.00  0.00    -0.356 N 
ATOM     29  H   UNL     1      31.640 -10.302 -19.486  0.00  0.00    +0.142 HD
ATOM     30  H   UNL     1      30.711  -9.458 -20.641  0.00  0.00    +0.142 HD
ENDBRANCH   6  28
TORSDOF 7
ENDMDL
MODEL 8
REMARK VINA RESULT:      -8.3      6.307     11.461
REMARK  Name = 23630026
REMARK  7 active torsions:
REMARK  status: ('A' for Active; 'I' for Inactive)
REMARK    1  A    between atoms: C_3  and  C_11
REMARK    2  A    between atoms: C_6  and  N_28
REMARK    3  A    between atoms: C_9  and  C_23
REMARK    4  A    between atoms: C_12  and  O_17
REMARK    5  A    between atoms: C_14  and  O_19
REMARK    6  A    between atoms: N_22  and  C_25
REMARK    7  A    between atoms: C_25  and  C_26
REMARK                            x       y       z     vdW  Elec       q    Type
REMARK                         _______ _______ _______ _____ _____    ______ ____
ROOT
ATOM      1  N   UNL     1      32.174  -6.887 -24.371  0.00  0.00    -0.152 NA
ATOM      2  N   UNL     1      31.749  -5.785 -25.063  0.00  0.00    -0.142 NA
ATOM      3  C   UNL     1      32.603  -8.021 -22.323  0.00  0.00    +0.089 C 
ATOM      4  C   UNL     1      32.171  -6.899 -23.027  0.00  0.00    +0.086 A 
ATOM      5  C   UNL     1      31.732  -5.781 -22.299  0.00  0.00    +0.013 A 
ATOM      6  C   UNL     1      31.301  -4.660 -23.008  0.00  0.00    +0.063 A 
ATOM      7  C   UNL     1      32.606  -8.048 -20.927  0.00  0.00    -0.020 C 
ATOM      8  C   UNL     1      31.734  -5.806 -20.894  0.00  0.00    +0.055 C 
ATOM      9  C   UNL     1      31.326  -4.705 -24.386  0.00  0.00    +0.168 A 
ATOM     10  C   UNL     1      32.171  -6.938 -20.210  0.00  0.00    -0.025 C 
ENDROOT
BRANCH   3  11
ATOM     11  C   UNL     1      33.066  -9.203 -23.028  0.00  0.00    +0.024 C 
ATOM     12  C   UNL     1      32.372 -10.408 -22.932  0.00  0.00    +0.136 C 
ATOM     13  C   UNL     1      34.219  -9.118 -23.806  0.00  0.00    +0.036 C 
ATOM     14  C   UNL     1      34.679 -10.243 -24.491  0.00  0.00    +0.139 C 
ATOM     15  C   UNL     1      32.833 -11.532 -23.617  0.00  0.00    +0.040 C 
ATOM     16  C   UNL     1      33.986 -11.449 -24.397  0.00  0.00    +0.040 C 
BRANCH  12  17
ATOM     17  O   UNL     1      31.242 -10.516 -22.175  0.00  0.00    -0.472 OA
ATOM     18  C   UNL     1      31.193 -11.587 -21.236  0.00  0.00    +0.252 C 
ENDBRANCH  12  17
BRANCH  14  19
ATOM     19  O   UNL     1      35.805 -10.162 -25.253  0.00  0.00    -0.471 OA
ATOM     20  C   UNL     1      35.688 -10.534 -26.625  0.00  0.00    +0.252 C 
ENDBRANCH  14  19
ENDBRANCH   3  11
BRANCH   9  23
ATOM     21  O   UNL     1      29.854  -2.968 -24.940  0.00  0.00    -0.268 OA
ATOM     22  N   UNL     1      31.714  -3.247 -26.294  0.00  0.00    -0.300 N 
ATOM     23  C   UNL     1      30.895  -3.590 -25.213  0.00  0.00    +0.267 C 
ATOM     24  H   UNL     1      32.524  -3.783 -26.452  0.00  0.00    +0.150 HD
BRANCH  22  25
ATOM     25  C   UNL     1      31.435  -2.150 -27.192  0.00  0.00    +0.090 C 
BRANCH  25  26
ATOM     26  C   UNL     1      31.499  -2.568 -28.657  0.00  0.00    +0.021 C 
ATOM     27  C   UNL     1      32.269  -3.863 -28.866  0.00  0.00    +0.002 C 
ENDBRANCH  25  26
ENDBRANCH  22  25
ENDBRANCH   9  23
BRANCH   6  28
ATOM     28  N   UNL     1      30.843  -3.496 -22.353  0.00  0.00    -0.356 N 
ATOM     29  H   UNL     1      30.978  -3.392 -21.382  0.00  0.00    +0.142 HD
ATOM     30  H   UNL     1      30.390  -2.788 -22.864  0.00  0.00    +0.142 HD
ENDBRANCH   6  28
TORSDOF 7
ENDMDL
MODEL 9
REMARK VINA RESULT:      -8.2      2.994      5.290
REMARK  Name = 23630026
REMARK  7 active torsions:
REMARK  status: ('A' for Active; 'I' for Inactive)
REMARK    1  A    between atoms: C_3  and  C_11
REMARK    2  A    between atoms: C_6  and  N_28
REMARK    3  A    between atoms: C_9  and  C_23
REMARK    4  A    between atoms: C_12  and  O_17
REMARK    5  A    between atoms: C_14  and  O_19
REMARK    6  A    between atoms: N_22  and  C_25
REMARK    7  A    between atoms: C_25  and  C_26
REMARK                            x       y       z     vdW  Elec       q    Type
REMARK                         _______ _______ _______ _____ _____    ______ ____
ROOT
ATOM      1  N   UNL     1      33.047 -11.064 -24.207  0.00  0.00    -0.152 NA
ATOM      2  N   UNL     1      33.321 -12.300 -24.728  0.00  0.00    -0.142 NA
ATOM      3  C   UNL     1      32.256  -9.678 -22.441  0.00  0.00    +0.089 C 
ATOM      4  C   UNL     1      32.535 -10.936 -22.971  0.00  0.00    +0.086 A 
ATOM      5  C   UNL     1      32.270 -12.067 -22.182  0.00  0.00    +0.013 A 
ATOM      6  C   UNL     1      32.551 -13.325 -22.716  0.00  0.00    +0.063 A 
ATOM      7  C   UNL     1      31.724  -9.529 -21.159  0.00  0.00    -0.020 C 
ATOM      8  C   UNL     1      31.735 -11.919 -20.891  0.00  0.00    +0.055 C 
ATOM      9  C   UNL     1      33.074 -13.395 -23.989  0.00  0.00    +0.168 A 
ATOM     10  C   UNL     1      31.463 -10.652 -20.381  0.00  0.00    -0.025 C 
ENDROOT
BRANCH   3  11
ATOM     11  C   UNL     1      32.512  -8.477 -23.216  0.00  0.00    +0.024 C 
ATOM     12  C   UNL     1      33.793  -8.192 -23.686  0.00  0.00    +0.136 C 
ATOM     13  C   UNL     1      31.457  -7.608 -23.486  0.00  0.00    +0.036 C 
ATOM     14  C   UNL     1      31.683  -6.449 -24.229  0.00  0.00    +0.139 C 
ATOM     15  C   UNL     1      34.019  -7.032 -24.428  0.00  0.00    +0.040 C 
ATOM     16  C   UNL     1      32.964  -6.162 -24.700  0.00  0.00    +0.040 C 
BRANCH  12  17
ATOM     17  O   UNL     1      34.842  -9.025 -23.433  0.00  0.00    -0.472 OA
ATOM     18  C   UNL     1      35.520  -9.574 -24.561  0.00  0.00    +0.252 C 
ENDBRANCH  12  17
BRANCH  14  19
ATOM     19  O   UNL     1      30.654  -5.599 -24.495  0.00  0.00    -0.471 OA
ATOM     20  C   UNL     1      30.995  -4.269 -24.883  0.00  0.00    +0.252 C 
ENDBRANCH  14  19
ENDBRANCH   3  11
BRANCH   9  23
ATOM     21  O   UNL     1      32.804 -15.014 -25.662  0.00  0.00    -0.268 OA
ATOM     22  N   UNL     1      34.423 -15.419 -24.052  0.00  0.00    -0.300 N 
ATOM     23  C   UNL     1      33.402 -14.658 -24.632  0.00  0.00    +0.267 C 
ATOM     24  H   UNL     1      34.853 -15.076 -23.237  0.00  0.00    +0.150 HD
BRANCH  22  25
ATOM     25  C   UNL     1      34.879 -16.682 -24.586  0.00  0.00    +0.090 C 
BRANCH  25  26
ATOM     26  C   UNL     1      34.960 -17.768 -23.520  0.00  0.00    +0.021 C 
ATOM     27  C   UNL     1      34.845 -19.170 -24.098  0.00  0.00    +0.002 C 
ENDBRANCH  25  26
ENDBRANCH  22  25
ENDBRANCH   9  23
BRANCH   6  28
ATOM     28  N   UNL     1      32.315 -14.512 -21.988  0.00  0.00    -0.356 N 
ATOM     29  H   UNL     1      32.926 -14.773 -21.261  0.00  0.00    +0.142 HD
ATOM     30  H   UNL     1      31.540 -15.078 -22.207  0.00  0.00    +0.142 HD
ENDBRANCH   6  28
TORSDOF 7
ENDMDL
