MODEL 1
REMARK VINA RESULT:      -6.5      0.000      0.000
REMARK  Name = 17754078
REMARK  9 active torsions:
REMARK  status: ('A' for Active; 'I' for Inactive)
REMARK    1  A    between atoms: C_1  and  O_2
REMARK    2  A    between atoms: C_1  and  C_11
REMARK    3  A    between atoms: O_2  and  P_3
REMARK    4  A    between atoms: P_3  and  O_5
REMARK    5  A    between atoms: P_3  and  O_7
REMARK    6  A    between atoms: O_7  and  C_8
REMARK    7  A    between atoms: C_11  and  N_12
REMARK    8  A    between atoms: C_11  and  C_17
REMARK    9  A    between atoms: C_17  and  O_18
REMARK                            x       y       z     vdW  Elec       q    Type
REMARK                         _______ _______ _______ _____ _____    ______ ____
ROOT
ATOM      1  C   UNK     1      38.655 -24.910 -12.931  0.00  0.00    +0.143 C 
ENDROOT
BRANCH   1   2
ATOM      2  O   UNK     1      37.539 -25.384 -12.185  0.00  0.00    -0.275 OA
BRANCH   2   3
ATOM      3  P   UNK     1      36.447 -24.338 -11.616  0.00  0.00    +0.476 P 
ATOM      4  O   UNK     1      35.423 -24.942 -10.699  0.00  0.00    -0.227 OA
BRANCH   3   5
ATOM      5  O   UNK     1      37.333 -23.167 -10.935  0.00  0.00    -0.302 OA
ATOM      6  H   UNK     1      36.746 -22.472 -10.597  0.00  0.00    +0.222 HD
ENDBRANCH   3   5
BRANCH   3   7
ATOM      7  O   UNK     1      35.833 -23.616 -12.930  0.00  0.00    -0.276 OA
BRANCH   7   8
ATOM      8  C   UNK     1      35.065 -24.394 -13.830  0.00  0.00    +0.126 C 
ATOM      9  C   UNK     1      33.587 -24.114 -13.600  0.00  0.00    +0.033 C 
ATOM     10  C   UNK     1      35.488 -24.075 -15.256  0.00  0.00    +0.033 C 
ENDBRANCH   7   8
ENDBRANCH   3   7
ENDBRANCH   2   3
ENDBRANCH   1   2
BRANCH   1  11
ATOM     11  C   UNK     1      38.700 -25.618 -14.282  0.00  0.00    +0.066 C 
BRANCH  11  12
ATOM     12  N   UNK     1      37.921 -26.854 -14.218  0.00  0.00    +0.390 N 
ATOM     13  H   UNK     1      37.507 -27.042 -15.132  0.00  0.00    -0.088 HD
ATOM     14  H   UNK     1      37.181 -26.755 -13.523  0.00  0.00    -0.088 HD
ATOM     15  H   UNK     1      38.533 -27.627 -13.957  0.00  0.00    -0.088 HD
ENDBRANCH  11  12
BRANCH  11  17
ATOM     16  O   UNK     1      40.979 -26.405 -13.866  0.00  0.00    -0.253 OA
ATOM     17  C   UNK     1      40.124 -25.998 -14.639  0.00  0.00    +0.295 C 
BRANCH  17  18
ATOM     18  O   UNK     1      40.345 -25.818 -15.968  0.00  0.00    -0.482 OA
ATOM     19  H   UNK     1      39.825 -25.207 -16.450  0.00  0.00    +0.295 HD
ENDBRANCH  17  18
ENDBRANCH  11  17
ENDBRANCH   1  11
TORSDOF 9
ENDMDL
MODEL 2
REMARK VINA RESULT:      -6.1      2.629      4.551
REMARK  Name = 17754078
REMARK  9 active torsions:
REMARK  status: ('A' for Active; 'I' for Inactive)
REMARK    1  A    between atoms: C_1  and  O_2
REMARK    2  A    between atoms: C_1  and  C_11
REMARK    3  A    between atoms: O_2  and  P_3
REMARK    4  A    between atoms: P_3  and  O_5
REMARK    5  A    between atoms: P_3  and  O_7
REMARK    6  A    between atoms: O_7  and  C_8
REMARK    7  A    between atoms: C_11  and  N_12
REMARK    8  A    between atoms: C_11  and  C_17
REMARK    9  A    between atoms: C_17  and  O_18
REMARK                            x       y       z     vdW  Elec       q    Type
REMARK                         _______ _______ _______ _____ _____    ______ ____
ROOT
ATOM      1  C   UNK     1      37.786 -24.884 -12.120  0.00  0.00    +0.143 C 
ENDROOT
BRANCH   1   2
ATOM      2  O   UNK     1      37.352 -25.687 -13.213  0.00  0.00    -0.275 OA
BRANCH   2   3
ATOM      3  P   UNK     1      37.944 -25.419 -14.693  0.00  0.00    +0.476 P 
ATOM      4  O   UNK     1      39.298 -26.020 -14.941  0.00  0.00    -0.227 OA
BRANCH   3   5
ATOM      5  O   UNK     1      36.789 -25.960 -15.689  0.00  0.00    -0.302 OA
ATOM      6  H   UNK     1      36.307 -25.206 -16.066  0.00  0.00    +0.222 HD
ENDBRANCH   3   5
BRANCH   3   7
ATOM      7  O   UNK     1      37.873 -23.812 -14.889  0.00  0.00    -0.276 OA
BRANCH   7   8
ATOM      8  C   UNK     1      36.880 -23.280 -15.747  0.00  0.00    +0.126 C 
ATOM      9  C   UNK     1      35.651 -22.918 -14.927  0.00  0.00    +0.033 C 
ATOM     10  C   UNK     1      37.446 -22.076 -16.483  0.00  0.00    +0.033 C 
ENDBRANCH   7   8
ENDBRANCH   3   7
ENDBRANCH   2   3
ENDBRANCH   1   2
BRANCH   1  11
ATOM     11  C   UNK     1      36.713 -23.848 -11.795  0.00  0.00    +0.066 C 
BRANCH  11  12
ATOM     12  N   UNK     1      37.272 -22.816 -10.924  0.00  0.00    +0.390 N 
ATOM     13  H   UNK     1      36.889 -22.921  -9.983  0.00  0.00    -0.088 HD
ATOM     14  H   UNK     1      37.031 -21.895 -11.288  0.00  0.00    -0.088 HD
ATOM     15  H   UNK     1      38.287 -22.913 -10.889  0.00  0.00    -0.088 HD
ENDBRANCH  11  12
BRANCH  11  17
ATOM     16  O   UNK     1      35.420 -24.551  -9.840  0.00  0.00    -0.253 OA
ATOM     17  C   UNK     1      35.557 -24.491 -11.054  0.00  0.00    +0.295 C 
BRANCH  17  18
ATOM     18  O   UNK     1      34.663 -25.016 -11.932  0.00  0.00    -0.482 OA
ATOM     19  H   UNK     1      33.873 -24.553 -12.128  0.00  0.00    +0.295 HD
ENDBRANCH  17  18
ENDBRANCH  11  17
ENDBRANCH   1  11
TORSDOF 9
ENDMDL
MODEL 3
REMARK VINA RESULT:      -6.1      2.056      2.218
REMARK  Name = 17754078
REMARK  9 active torsions:
REMARK  status: ('A' for Active; 'I' for Inactive)
REMARK    1  A    between atoms: C_1  and  O_2
REMARK    2  A    between atoms: C_1  and  C_11
REMARK    3  A    between atoms: O_2  and  P_3
REMARK    4  A    between atoms: P_3  and  O_5
REMARK    5  A    between atoms: P_3  and  O_7
REMARK    6  A    between atoms: O_7  and  C_8
REMARK    7  A    between atoms: C_11  and  N_12
REMARK    8  A    between atoms: C_11  and  C_17
REMARK    9  A    between atoms: C_17  and  O_18
REMARK                            x       y       z     vdW  Elec       q    Type
REMARK                         _______ _______ _______ _____ _____    ______ ____
ROOT
ATOM      1  C   UNK     1      37.277 -26.148 -12.753  0.00  0.00    +0.143 C 
ENDROOT
BRANCH   1   2
ATOM      2  O   UNK     1      36.082 -25.432 -13.044  0.00  0.00    -0.275 OA
BRANCH   2   3
ATOM      3  P   UNK     1      35.473 -24.404 -11.956  0.00  0.00    +0.476 P 
ATOM      4  O   UNK     1      35.326 -24.975 -10.574  0.00  0.00    -0.227 OA
BRANCH   3   5
ATOM      5  O   UNK     1      36.446 -23.113 -12.037  0.00  0.00    -0.302 OA
ATOM      6  H   UNK     1      35.933 -22.310 -11.853  0.00  0.00    +0.222 HD
ENDBRANCH   3   5
BRANCH   3   7
ATOM      7  O   UNK     1      34.094 -23.865 -12.612  0.00  0.00    -0.276 OA
BRANCH   7   8
ATOM      8  C   UNK     1      33.700 -24.380 -13.872  0.00  0.00    +0.126 C 
ATOM      9  C   UNK     1      32.259 -24.862 -13.788  0.00  0.00    +0.033 C 
ATOM     10  C   UNK     1      33.877 -23.303 -14.931  0.00  0.00    +0.033 C 
ENDBRANCH   7   8
ENDBRANCH   3   7
ENDBRANCH   2   3
ENDBRANCH   1   2
BRANCH   1  11
ATOM     11  C   UNK     1      38.097 -26.305 -14.031  0.00  0.00    +0.066 C 
BRANCH  11  12
ATOM     12  N   UNK     1      39.073 -25.220 -14.129  0.00  0.00    +0.390 N 
ATOM     13  H   UNK     1      39.964 -25.593 -14.456  0.00  0.00    -0.088 HD
ATOM     14  H   UNK     1      39.198 -24.791 -13.213  0.00  0.00    -0.088 HD
ATOM     15  H   UNK     1      38.735 -24.519 -14.790  0.00  0.00    -0.088 HD
ENDBRANCH  11  12
BRANCH  11  17
ATOM     16  O   UNK     1      36.744 -27.168 -15.879  0.00  0.00    -0.253 OA
ATOM     17  C   UNK     1      37.203 -26.223 -15.253  0.00  0.00    +0.295 C 
BRANCH  17  18
ATOM     18  O   UNK     1      36.970 -24.926 -15.584  0.00  0.00    -0.482 OA
ATOM     19  H   UNK     1      36.092 -24.630 -15.725  0.00  0.00    +0.295 HD
ENDBRANCH  17  18
ENDBRANCH  11  17
ENDBRANCH   1  11
TORSDOF 9
ENDMDL
MODEL 4
REMARK VINA RESULT:      -6.0      2.243      3.027
REMARK  Name = 17754078
REMARK  9 active torsions:
REMARK  status: ('A' for Active; 'I' for Inactive)
REMARK    1  A    between atoms: C_1  and  O_2
REMARK    2  A    between atoms: C_1  and  C_11
REMARK    3  A    between atoms: O_2  and  P_3
REMARK    4  A    between atoms: P_3  and  O_5
REMARK    5  A    between atoms: P_3  and  O_7
REMARK    6  A    between atoms: O_7  and  C_8
REMARK    7  A    between atoms: C_11  and  N_12
REMARK    8  A    between atoms: C_11  and  C_17
REMARK    9  A    between atoms: C_17  and  O_18
REMARK                            x       y       z     vdW  Elec       q    Type
REMARK                         _______ _______ _______ _____ _____    ______ ____
ROOT
ATOM      1  C   UNK     1      37.669 -26.093 -15.011  0.00  0.00    +0.143 C 
ENDROOT
BRANCH   1   2
ATOM      2  O   UNK     1      36.585 -25.801 -14.136  0.00  0.00    -0.275 OA
BRANCH   2   3
ATOM      3  P   UNK     1      35.587 -24.575 -14.470  0.00  0.00    +0.476 P 
ATOM      4  O   UNK     1      35.737 -24.008 -15.853  0.00  0.00    -0.227 OA
BRANCH   3   5
ATOM      5  O   UNK     1      34.112 -25.162 -14.154  0.00  0.00    -0.302 OA
ATOM      6  H   UNK     1      34.078 -25.474 -13.235  0.00  0.00    +0.222 HD
ENDBRANCH   3   5
BRANCH   3   7
ATOM      7  O   UNK     1      35.820 -23.506 -13.274  0.00  0.00    -0.276 OA
BRANCH   7   8
ATOM      8  C   UNK     1      36.578 -23.910 -12.148  0.00  0.00    +0.126 C 
ATOM      9  C   UNK     1      37.511 -22.779 -11.740  0.00  0.00    +0.033 C 
ATOM     10  C   UNK     1      35.633 -24.298 -11.021  0.00  0.00    +0.033 C 
ENDBRANCH   7   8
ENDBRANCH   3   7
ENDBRANCH   2   3
ENDBRANCH   1   2
BRANCH   1  11
ATOM     11  C   UNK     1      38.832 -25.151 -14.709  0.00  0.00    +0.066 C 
BRANCH  11  12
ATOM     12  N   UNK     1      38.862 -24.071 -15.694  0.00  0.00    +0.390 N 
ATOM     13  H   UNK     1      37.920 -23.698 -15.818  0.00  0.00    -0.088 HD
ATOM     14  H   UNK     1      39.205 -24.430 -16.584  0.00  0.00    -0.088 HD
ATOM     15  H   UNK     1      39.480 -23.329 -15.365  0.00  0.00    -0.088 HD
ENDBRANCH  11  12
BRANCH  11  17
ATOM     16  O   UNK     1      40.804 -26.330 -13.867  0.00  0.00    -0.253 OA
ATOM     17  C   UNK     1      40.154 -25.888 -14.803  0.00  0.00    +0.295 C 
BRANCH  17  18
ATOM     18  O   UNK     1      40.546 -25.995 -16.100  0.00  0.00    -0.482 OA
ATOM     19  H   UNK     1      40.914 -25.255 -16.540  0.00  0.00    +0.295 HD
ENDBRANCH  17  18
ENDBRANCH  11  17
ENDBRANCH   1  11
TORSDOF 9
ENDMDL
MODEL 5
REMARK VINA RESULT:      -6.0      2.075      4.835
REMARK  Name = 17754078
REMARK  9 active torsions:
REMARK  status: ('A' for Active; 'I' for Inactive)
REMARK    1  A    between atoms: C_1  and  O_2
REMARK    2  A    between atoms: C_1  and  C_11
REMARK    3  A    between atoms: O_2  and  P_3
REMARK    4  A    between atoms: P_3  and  O_5
REMARK    5  A    between atoms: P_3  and  O_7
REMARK    6  A    between atoms: O_7  and  C_8
REMARK    7  A    between atoms: C_11  and  N_12
REMARK    8  A    between atoms: C_11  and  C_17
REMARK    9  A    between atoms: C_17  and  O_18
REMARK                            x       y       z     vdW  Elec       q    Type
REMARK                         _______ _______ _______ _____ _____    ______ ____
ROOT
ATOM      1  C   UNK     1      35.947 -23.192 -14.206  0.00  0.00    +0.143 C 
ENDROOT
BRANCH   1   2
ATOM      2  O   UNK     1      36.296 -23.156 -12.826  0.00  0.00    -0.275 OA
BRANCH   2   3
ATOM      3  P   UNK     1      37.723 -23.740 -12.341  0.00  0.00    +0.476 P 
ATOM      4  O   UNK     1      38.557 -22.771 -11.551  0.00  0.00    -0.227 OA
BRANCH   3   5
ATOM      5  O   UNK     1      37.349 -25.095 -11.539  0.00  0.00    -0.302 OA
ATOM      6  H   UNK     1      37.639 -25.015 -10.616  0.00  0.00    +0.222 HD
ENDBRANCH   3   5
BRANCH   3   7
ATOM      7  O   UNK     1      38.430 -24.294 -13.689  0.00  0.00    -0.276 OA
BRANCH   7   8
ATOM      8  C   UNK     1      38.828 -25.653 -13.732  0.00  0.00    +0.126 C 
ATOM      9  C   UNK     1      37.900 -26.418 -14.663  0.00  0.00    +0.033 C 
ATOM     10  C   UNK     1      40.278 -25.737 -14.183  0.00  0.00    +0.033 C 
ENDBRANCH   7   8
ENDBRANCH   3   7
ENDBRANCH   2   3
ENDBRANCH   1   2
BRANCH   1  11
ATOM     11  C   UNK     1      34.848 -24.229 -14.424  0.00  0.00    +0.066 C 
BRANCH  11  12
ATOM     12  N   UNK     1      34.077 -23.887 -15.619  0.00  0.00    +0.390 N 
ATOM     13  H   UNK     1      34.305 -24.541 -16.368  0.00  0.00    -0.088 HD
ATOM     14  H   UNK     1      34.307 -22.939 -15.913  0.00  0.00    -0.088 HD
ATOM     15  H   UNK     1      33.081 -23.947 -15.408  0.00  0.00    -0.088 HD
ENDBRANCH  11  12
BRANCH  11  17
ATOM     16  O   UNK     1      32.807 -23.668 -13.196  0.00  0.00    -0.253 OA
ATOM     17  C   UNK     1      33.886 -24.241 -13.252  0.00  0.00    +0.295 C 
BRANCH  17  18
ATOM     18  O   UNK     1      34.388 -24.986 -12.232  0.00  0.00    -0.482 OA
ATOM     19  H   UNK     1      34.805 -24.565 -11.507  0.00  0.00    +0.295 HD
ENDBRANCH  17  18
ENDBRANCH  11  17
ENDBRANCH   1  11
TORSDOF 9
ENDMDL
MODEL 6
REMARK VINA RESULT:      -6.0      3.033      4.326
REMARK  Name = 17754078
REMARK  9 active torsions:
REMARK  status: ('A' for Active; 'I' for Inactive)
REMARK    1  A    between atoms: C_1  and  O_2
REMARK    2  A    between atoms: C_1  and  C_11
REMARK    3  A    between atoms: O_2  and  P_3
REMARK    4  A    between atoms: P_3  and  O_5
REMARK    5  A    between atoms: P_3  and  O_7
REMARK    6  A    between atoms: O_7  and  C_8
REMARK    7  A    between atoms: C_11  and  N_12
REMARK    8  A    between atoms: C_11  and  C_17
REMARK    9  A    between atoms: C_17  and  O_18
REMARK                            x       y       z     vdW  Elec       q    Type
REMARK                         _______ _______ _______ _____ _____    ______ ____
ROOT
ATOM      1  C   UNK     1      36.996 -23.691 -13.318  0.00  0.00    +0.143 C 
ENDROOT
BRANCH   1   2
ATOM      2  O   UNK     1      35.637 -23.415 -13.640  0.00  0.00    -0.275 OA
BRANCH   2   3
ATOM      3  P   UNK     1      34.925 -24.197 -14.862  0.00  0.00    +0.476 P 
ATOM      4  O   UNK     1      35.865 -24.982 -15.732  0.00  0.00    -0.227 OA
BRANCH   3   5
ATOM      5  O   UNK     1      33.780 -25.093 -14.151  0.00  0.00    -0.302 OA
ATOM      6  H   UNK     1      33.883 -26.021 -14.419  0.00  0.00    +0.222 HD
ENDBRANCH   3   5
BRANCH   3   7
ATOM      7  O   UNK     1      34.071 -23.064 -15.644  0.00  0.00    -0.276 OA
BRANCH   7   8
ATOM      8  C   UNK     1      33.247 -23.466 -16.724  0.00  0.00    +0.126 C 
ATOM      9  C   UNK     1      31.800 -23.123 -16.405  0.00  0.00    +0.033 C 
ATOM     10  C   UNK     1      33.723 -22.787 -17.999  0.00  0.00    +0.033 C 
ENDBRANCH   7   8
ENDBRANCH   3   7
ENDBRANCH   2   3
ENDBRANCH   1   2
BRANCH   1  11
ATOM     11  C   UNK     1      37.053 -24.803 -12.274  0.00  0.00    +0.066 C 
BRANCH  11  12
ATOM     12  N   UNK     1      36.681 -26.076 -12.888  0.00  0.00    +0.390 N 
ATOM     13  H   UNK     1      36.134 -25.900 -13.731  0.00  0.00    -0.088 HD
ATOM     14  H   UNK     1      36.126 -26.623 -12.230  0.00  0.00    -0.088 HD
ATOM     15  H   UNK     1      37.525 -26.594 -13.133  0.00  0.00    -0.088 HD
ENDBRANCH  11  12
BRANCH  11  17
ATOM     16  O   UNK     1      36.303 -23.940 -10.110  0.00  0.00    -0.253 OA
ATOM     17  C   UNK     1      36.068 -24.534 -11.153  0.00  0.00    +0.295 C 
BRANCH  17  18
ATOM     18  O   UNK     1      34.851 -25.057 -11.454  0.00  0.00    -0.482 OA
ATOM     19  H   UNK     1      34.530 -25.798 -10.980  0.00  0.00    +0.295 HD
ENDBRANCH  17  18
ENDBRANCH  11  17
ENDBRANCH   1  11
TORSDOF 9
ENDMDL
MODEL 7
REMARK VINA RESULT:      -5.9      2.702      3.220
REMARK  Name = 17754078
REMARK  9 active torsions:
REMARK  status: ('A' for Active; 'I' for Inactive)
REMARK    1  A    between atoms: C_1  and  O_2
REMARK    2  A    between atoms: C_1  and  C_11
REMARK    3  A    between atoms: O_2  and  P_3
REMARK    4  A    between atoms: P_3  and  O_5
REMARK    5  A    between atoms: P_3  and  O_7
REMARK    6  A    between atoms: O_7  and  C_8
REMARK    7  A    between atoms: C_11  and  N_12
REMARK    8  A    between atoms: C_11  and  C_17
REMARK    9  A    between atoms: C_17  and  O_18
REMARK                            x       y       z     vdW  Elec       q    Type
REMARK                         _______ _______ _______ _____ _____    ______ ____
ROOT
ATOM      1  C   UNK     1      37.782 -24.388 -15.036  0.00  0.00    +0.143 C 
ENDROOT
BRANCH   1   2
ATOM      2  O   UNK     1      36.543 -24.932 -15.478  0.00  0.00    -0.275 OA
BRANCH   2   3
ATOM      3  P   UNK     1      35.178 -24.090 -15.279  0.00  0.00    +0.476 P 
ATOM      4  O   UNK     1      34.303 -24.574 -14.158  0.00  0.00    -0.227 OA
BRANCH   3   5
ATOM      5  O   UNK     1      35.674 -22.558 -15.115  0.00  0.00    -0.302 OA
ATOM      6  H   UNK     1      36.584 -22.547 -14.777  0.00  0.00    +0.222 HD
ENDBRANCH   3   5
BRANCH   3   7
ATOM      7  O   UNK     1      34.468 -24.091 -16.736  0.00  0.00    -0.276 OA
BRANCH   7   8
ATOM      8  C   UNK     1      33.651 -22.988 -17.088  0.00  0.00    +0.126 C 
ATOM      9  C   UNK     1      33.769 -22.736 -18.584  0.00  0.00    +0.033 C 
ATOM     10  C   UNK     1      32.216 -23.275 -16.673  0.00  0.00    +0.033 C 
ENDBRANCH   7   8
ENDBRANCH   3   7
ENDBRANCH   2   3
ENDBRANCH   1   2
BRANCH   1  11
ATOM     11  C   UNK     1      38.656 -25.508 -14.478  0.00  0.00    +0.066 C 
BRANCH  11  12
ATOM     12  N   UNK     1      38.610 -25.490 -13.017  0.00  0.00    +0.390 N 
ATOM     13  H   UNK     1      39.496 -25.832 -12.644  0.00  0.00    -0.088 HD
ATOM     14  H   UNK     1      37.851 -26.088 -12.693  0.00  0.00    -0.088 HD
ATOM     15  H   UNK     1      38.453 -24.535 -12.694  0.00  0.00    -0.088 HD
ENDBRANCH  11  12
BRANCH  11  17
ATOM     16  O   UNK     1      40.964 -24.726 -14.246  0.00  0.00    -0.253 OA
ATOM     17  C   UNK     1      40.103 -25.311 -14.889  0.00  0.00    +0.295 C 
BRANCH  17  18
ATOM     18  O   UNK     1      40.334 -25.877 -16.102  0.00  0.00    -0.482 OA
ATOM     19  H   UNK     1      39.675 -26.408 -16.503  0.00  0.00    +0.295 HD
ENDBRANCH  17  18
ENDBRANCH  11  17
ENDBRANCH   1  11
TORSDOF 9
ENDMDL
MODEL 8
REMARK VINA RESULT:      -5.9      3.153      4.439
REMARK  Name = 17754078
REMARK  9 active torsions:
REMARK  status: ('A' for Active; 'I' for Inactive)
REMARK    1  A    between atoms: C_1  and  O_2
REMARK    2  A    between atoms: C_1  and  C_11
REMARK    3  A    between atoms: O_2  and  P_3
REMARK    4  A    between atoms: P_3  and  O_5
REMARK    5  A    between atoms: P_3  and  O_7
REMARK    6  A    between atoms: O_7  and  C_8
REMARK    7  A    between atoms: C_11  and  N_12
REMARK    8  A    between atoms: C_11  and  C_17
REMARK    9  A    between atoms: C_17  and  O_18
REMARK                            x       y       z     vdW  Elec       q    Type
REMARK                         _______ _______ _______ _____ _____    ______ ____
ROOT
ATOM      1  C   UNK     1      36.714 -23.367 -13.398  0.00  0.00    +0.143 C 
ENDROOT
BRANCH   1   2
ATOM      2  O   UNK     1      35.332 -23.427 -13.735  0.00  0.00    -0.275 OA
BRANCH   2   3
ATOM      3  P   UNK     1      34.865 -24.176 -15.089  0.00  0.00    +0.476 P 
ATOM      4  O   UNK     1      35.316 -23.510 -16.358  0.00  0.00    -0.227 OA
BRANCH   3   5
ATOM      5  O   UNK     1      35.403 -25.692 -14.912  0.00  0.00    -0.302 OA
ATOM      6  H   UNK     1      34.912 -26.129 -14.198  0.00  0.00    +0.222 HD
ENDBRANCH   3   5
BRANCH   3   7
ATOM      7  O   UNK     1      33.259 -24.338 -14.947  0.00  0.00    -0.276 OA
BRANCH   7   8
ATOM      8  C   UNK     1      32.451 -23.182 -15.073  0.00  0.00    +0.126 C 
ATOM      9  C   UNK     1      31.768 -23.194 -16.432  0.00  0.00    +0.033 C 
ATOM     10  C   UNK     1      31.445 -23.147 -13.932  0.00  0.00    +0.033 C 
ENDBRANCH   7   8
ENDBRANCH   3   7
ENDBRANCH   2   3
ENDBRANCH   1   2
BRANCH   1  11
ATOM     11  C   UNK     1      36.879 -23.595 -11.897  0.00  0.00    +0.066 C 
BRANCH  11  12
ATOM     12  N   UNK     1      38.289 -23.820 -11.585  0.00  0.00    +0.390 N 
ATOM     13  H   UNK     1      38.826 -22.983 -11.814  0.00  0.00    -0.088 HD
ATOM     14  H   UNK     1      38.638 -24.608 -12.130  0.00  0.00    -0.088 HD
ATOM     15  H   UNK     1      38.388 -24.024 -10.590  0.00  0.00    -0.088 HD
ENDBRANCH  11  12
BRANCH  11  17
ATOM     16  O   UNK     1      35.314 -24.892 -10.534  0.00  0.00    -0.253 OA
ATOM     17  C   UNK     1      36.114 -24.828 -11.457  0.00  0.00    +0.295 C 
BRANCH  17  18
ATOM     18  O   UNK     1      36.441 -25.893 -12.235  0.00  0.00    -0.482 OA
ATOM     19  H   UNK     1      35.882 -26.143 -12.944  0.00  0.00    +0.295 HD
ENDBRANCH  17  18
ENDBRANCH  11  17
ENDBRANCH   1  11
TORSDOF 9
ENDMDL
MODEL 9
REMARK VINA RESULT:      -5.9     12.206     13.683
REMARK  Name = 17754078
REMARK  9 active torsions:
REMARK  status: ('A' for Active; 'I' for Inactive)
REMARK    1  A    between atoms: C_1  and  O_2
REMARK    2  A    between atoms: C_1  and  C_11
REMARK    3  A    between atoms: O_2  and  P_3
REMARK    4  A    between atoms: P_3  and  O_5
REMARK    5  A    between atoms: P_3  and  O_7
REMARK    6  A    between atoms: O_7  and  C_8
REMARK    7  A    between atoms: C_11  and  N_12
REMARK    8  A    between atoms: C_11  and  C_17
REMARK    9  A    between atoms: C_17  and  O_18
REMARK                            x       y       z     vdW  Elec       q    Type
REMARK                         _______ _______ _______ _____ _____    ______ ____
ROOT
ATOM      1  C   UNK     1      33.822 -15.867 -23.148  0.00  0.00    +0.143 C 
ENDROOT
BRANCH   1   2
ATOM      2  O   UNK     1      35.110 -16.446 -22.966  0.00  0.00    -0.275 OA
BRANCH   2   3
ATOM      3  P   UNK     1      35.263 -18.051 -22.859  0.00  0.00    +0.476 P 
ATOM      4  O   UNK     1      34.701 -18.810 -24.028  0.00  0.00    -0.227 OA
BRANCH   3   5
ATOM      5  O   UNK     1      36.846 -18.287 -22.618  0.00  0.00    -0.302 OA
ATOM      6  H   UNK     1      37.166 -17.669 -21.941  0.00  0.00    +0.222 HD
ENDBRANCH   3   5
BRANCH   3   7
ATOM      7  O   UNK     1      34.612 -18.440 -21.427  0.00  0.00    -0.276 OA
BRANCH   7   8
ATOM      8  C   UNK     1      34.221 -19.784 -21.207  0.00  0.00    +0.126 C 
ATOM      9  C   UNK     1      35.249 -20.466 -20.318  0.00  0.00    +0.033 C 
ATOM     10  C   UNK     1      32.832 -19.806 -20.588  0.00  0.00    +0.033 C 
ENDBRANCH   7   8
ENDBRANCH   3   7
ENDBRANCH   2   3
ENDBRANCH   1   2
BRANCH   1  11
ATOM     11  C   UNK     1      33.880 -14.849 -24.284  0.00  0.00    +0.066 C 
BRANCH  11  12
ATOM     12  N   UNK     1      32.863 -13.819 -24.077  0.00  0.00    +0.390 N 
ATOM     13  H   UNK     1      32.599 -13.416 -24.977  0.00  0.00    -0.088 HD
ATOM     14  H   UNK     1      33.235 -13.089 -23.472  0.00  0.00    -0.088 HD
ATOM     15  H   UNK     1      32.041 -14.238 -23.640  0.00  0.00    -0.088 HD
ENDBRANCH  11  12
BRANCH  11  17
ATOM     16  O   UNK     1      32.654 -15.260 -26.361  0.00  0.00    -0.253 OA
ATOM     17  C   UNK     1      33.587 -15.516 -25.614  0.00  0.00    +0.295 C 
BRANCH  17  18
ATOM     18  O   UNK     1      34.516 -16.471 -25.881  0.00  0.00    -0.482 OA
ATOM     19  H   UNK     1      34.908 -16.517 -26.730  0.00  0.00    +0.295 HD
ENDBRANCH  17  18
ENDBRANCH  11  17
ENDBRANCH   1  11
TORSDOF 9
ENDMDL
