MODEL 1
REMARK VINA RESULT:      -8.2      0.000      0.000
REMARK  Name = 6918236
REMARK  5 active torsions:
REMARK  status: ('A' for Active; 'I' for Inactive)
REMARK    1  A    between atoms: N_3  and  C_13
REMARK    2  A    between atoms: C_13  and  C_14
REMARK    3  A    between atoms: C_14  and  P_15
REMARK    4  A    between atoms: P_15  and  O_17
REMARK    5  A    between atoms: P_15  and  O_19
REMARK                            x       y       z     vdW  Elec       q    Type
REMARK                         _______ _______ _______ _____ _____    ______ ____
ROOT
ATOM      1  O   UNL     1      38.110 -24.321 -11.276  0.00  0.00    -0.282 OA
ATOM      2  O   UNL     1      35.378 -24.472  -9.937  0.00  0.00    -0.282 OA
ATOM      3  N   UNL     1      36.738 -24.234 -14.280  0.00  0.00    -0.303 N 
ATOM      4  N   UNL     1      33.842 -24.417 -12.822  0.00  0.00    -0.329 N 
ATOM      5  C   UNL     1      35.800 -24.418 -15.404  0.00  0.00    +0.093 C 
ATOM      6  C   UNL     1      36.308 -24.312 -13.042  0.00  0.00    +0.107 C 
ATOM      7  C   UNL     1      34.416 -23.770 -15.183  0.00  0.00    +0.043 C 
ATOM      8  C   UNL     1      35.086 -24.388 -12.434  0.00  0.00    +0.104 C 
ATOM      9  C   UNL     1      33.481 -24.544 -14.232  0.00  0.00    +0.089 C 
ATOM     10  C   UNL     1      37.003 -24.342 -11.750  0.00  0.00    +0.250 C 
ATOM     11  C   UNL     1      35.681 -24.416 -11.100  0.00  0.00    +0.250 C 
ATOM     12  H   UNL     1      33.128 -24.352 -12.149  0.00  0.00    +0.147 HD
ENDROOT
BRANCH   3  13
ATOM     13  C   UNL     1      38.159 -24.284 -14.603  0.00  0.00    +0.104 C 
BRANCH  13  14
ATOM     14  C   UNL     1      38.685 -25.695 -14.411  0.00  0.00    +0.137 C 
BRANCH  14  15
ATOM     15  P   UNL     1      40.465 -25.831 -14.701  0.00  0.00    +0.339 P 
ATOM     16  O   UNL     1      41.112 -26.925 -13.928  0.00  0.00    -0.258 OA
BRANCH  15  17
ATOM     17  O   UNL     1      40.980 -24.338 -14.392  0.00  0.00    -0.324 OA
ATOM     18  H   UNL     1      41.240 -23.907 -15.221  0.00  0.00    +0.220 HD
ENDBRANCH  15  17
BRANCH  15  19
ATOM     19  O   UNL     1      40.545 -25.947 -16.304  0.00  0.00    -0.324 OA
ATOM     20  H   UNL     1      40.368 -26.863 -16.571  0.00  0.00    +0.220 HD
ENDBRANCH  15  19
ENDBRANCH  14  15
ENDBRANCH  13  14
ENDBRANCH   3  13
TORSDOF 5
ENDMDL
MODEL 2
REMARK VINA RESULT:      -7.9      3.506      5.334
REMARK  Name = 6918236
REMARK  5 active torsions:
REMARK  status: ('A' for Active; 'I' for Inactive)
REMARK    1  A    between atoms: N_3  and  C_13
REMARK    2  A    between atoms: C_13  and  C_14
REMARK    3  A    between atoms: C_14  and  P_15
REMARK    4  A    between atoms: P_15  and  O_17
REMARK    5  A    between atoms: P_15  and  O_19
REMARK                            x       y       z     vdW  Elec       q    Type
REMARK                         _______ _______ _______ _____ _____    ______ ____
ROOT
ATOM      1  O   UNL     1      35.399 -22.859 -17.299  0.00  0.00    -0.282 OA
ATOM      2  O   UNL     1      32.711 -22.391 -18.653  0.00  0.00    -0.282 OA
ATOM      3  N   UNL     1      33.935 -24.086 -14.603  0.00  0.00    -0.303 N 
ATOM      4  N   UNL     1      31.085 -23.554 -16.066  0.00  0.00    -0.329 N 
ATOM      5  C   UNL     1      32.948 -24.365 -13.542  0.00  0.00    +0.093 C 
ATOM      6  C   UNL     1      33.543 -23.595 -15.756  0.00  0.00    +0.107 C 
ATOM      7  C   UNL     1      31.622 -24.966 -14.056  0.00  0.00    +0.043 C 
ATOM      8  C   UNL     1      32.340 -23.374 -16.367  0.00  0.00    +0.104 C 
ATOM      9  C   UNL     1      30.668 -23.957 -14.725  0.00  0.00    +0.089 C 
ATOM     10  C   UNL     1      34.278 -23.070 -16.912  0.00  0.00    +0.250 C 
ATOM     11  C   UNL     1      32.977 -22.841 -17.569  0.00  0.00    +0.250 C 
ATOM     12  H   UNL     1      30.401 -23.413 -16.759  0.00  0.00    +0.147 HD
ENDROOT
BRANCH   3  13
ATOM     13  C   UNL     1      35.336 -24.076 -14.203  0.00  0.00    +0.104 C 
BRANCH  13  14
ATOM     14  C   UNL     1      35.463 -23.604 -12.765  0.00  0.00    +0.137 C 
BRANCH  14  15
ATOM     15  P   UNL     1      36.378 -24.762 -11.719  0.00  0.00    +0.339 P 
ATOM     16  O   UNL     1      37.670 -24.219 -11.222  0.00  0.00    -0.258 OA
BRANCH  15  17
ATOM     17  O   UNL     1      36.466 -26.072 -12.649  0.00  0.00    -0.324 OA
ATOM     18  H   UNL     1      35.636 -26.570 -12.586  0.00  0.00    +0.220 HD
ENDBRANCH  15  17
BRANCH  15  19
ATOM     19  O   UNL     1      35.289 -25.150 -10.600  0.00  0.00    -0.324 OA
ATOM     20  H   UNL     1      34.399 -24.948 -10.932  0.00  0.00    +0.220 HD
ENDBRANCH  15  19
ENDBRANCH  14  15
ENDBRANCH  13  14
ENDBRANCH   3  13
TORSDOF 5
ENDMDL
MODEL 3
REMARK VINA RESULT:      -7.9      3.560      4.708
REMARK  Name = 6918236
REMARK  5 active torsions:
REMARK  status: ('A' for Active; 'I' for Inactive)
REMARK    1  A    between atoms: N_3  and  C_13
REMARK    2  A    between atoms: C_13  and  C_14
REMARK    3  A    between atoms: C_14  and  P_15
REMARK    4  A    between atoms: P_15  and  O_17
REMARK    5  A    between atoms: P_15  and  O_19
REMARK                            x       y       z     vdW  Elec       q    Type
REMARK                         _______ _______ _______ _____ _____    ______ ____
ROOT
ATOM      1  O   UNL     1      35.604 -22.757 -17.172  0.00  0.00    -0.282 OA
ATOM      2  O   UNL     1      32.969 -22.674 -18.697  0.00  0.00    -0.282 OA
ATOM      3  N   UNL     1      34.098 -23.839 -14.438  0.00  0.00    -0.303 N 
ATOM      4  N   UNL     1      31.302 -23.719 -16.086  0.00  0.00    -0.329 N 
ATOM      5  C   UNL     1      33.079 -24.101 -13.403  0.00  0.00    +0.093 C 
ATOM      6  C   UNL     1      33.733 -23.503 -15.654  0.00  0.00    +0.107 C 
ATOM      7  C   UNL     1      31.841 -24.870 -13.916  0.00  0.00    +0.043 C 
ATOM      8  C   UNL     1      32.552 -23.456 -16.342  0.00  0.00    +0.104 C 
ATOM      9  C   UNL     1      30.844 -24.024 -14.732  0.00  0.00    +0.089 C 
ATOM     10  C   UNL     1      34.485 -23.030 -16.821  0.00  0.00    +0.250 C 
ATOM     11  C   UNL     1      33.210 -22.988 -17.560  0.00  0.00    +0.250 C 
ATOM     12  H   UNL     1      30.650 -23.711 -16.822  0.00  0.00    +0.147 HD
ENDROOT
BRANCH   3  13
ATOM     13  C   UNL     1      35.468 -23.662 -13.973  0.00  0.00    +0.104 C 
BRANCH  13  14
ATOM     14  C   UNL     1      36.018 -24.981 -13.463  0.00  0.00    +0.137 C 
BRANCH  14  15
ATOM     15  P   UNL     1      37.024 -25.850 -14.691  0.00  0.00    +0.339 P 
ATOM     16  O   UNL     1      38.116 -26.665 -14.096  0.00  0.00    -0.258 OA
BRANCH  15  17
ATOM     17  O   UNL     1      37.477 -24.657 -15.671  0.00  0.00    -0.324 OA
ATOM     18  H   UNL     1      38.445 -24.594 -15.678  0.00  0.00    +0.220 HD
ENDBRANCH  15  17
BRANCH  15  19
ATOM     19  O   UNL     1      35.915 -26.652 -15.538  0.00  0.00    -0.324 OA
ATOM     20  H   UNL     1      36.356 -27.240 -16.172  0.00  0.00    +0.220 HD
ENDBRANCH  15  19
ENDBRANCH  14  15
ENDBRANCH  13  14
ENDBRANCH   3  13
TORSDOF 5
ENDMDL
MODEL 4
REMARK VINA RESULT:      -7.8     12.214     13.811
REMARK  Name = 6918236
REMARK  5 active torsions:
REMARK  status: ('A' for Active; 'I' for Inactive)
REMARK    1  A    between atoms: N_3  and  C_13
REMARK    2  A    between atoms: C_13  and  C_14
REMARK    3  A    between atoms: C_14  and  P_15
REMARK    4  A    between atoms: P_15  and  O_17
REMARK    5  A    between atoms: P_15  and  O_19
REMARK                            x       y       z     vdW  Elec       q    Type
REMARK                         _______ _______ _______ _____ _____    ______ ____
ROOT
ATOM      1  O   UNL     1      34.806 -17.437 -25.479  0.00  0.00    -0.282 OA
ATOM      2  O   UNL     1      33.156 -15.337 -26.943  0.00  0.00    -0.282 OA
ATOM      3  N   UNL     1      34.459 -15.843 -22.606  0.00  0.00    -0.303 N 
ATOM      4  N   UNL     1      32.722 -13.611 -24.202  0.00  0.00    -0.329 N 
ATOM      5  C   UNL     1      34.263 -14.779 -21.602  0.00  0.00    +0.093 C 
ATOM      6  C   UNL     1      34.072 -15.658 -23.847  0.00  0.00    +0.107 C 
ATOM      7  C   UNL     1      32.919 -14.030 -21.730  0.00  0.00    +0.043 C 
ATOM      8  C   UNL     1      33.339 -14.716 -24.513  0.00  0.00    +0.104 C 
ATOM      9  C   UNL     1      32.855 -13.004 -22.879  0.00  0.00    +0.089 C 
ATOM     10  C   UNL     1      34.275 -16.434 -25.075  0.00  0.00    +0.250 C 
ATOM     11  C   UNL     1      33.477 -15.418 -25.787  0.00  0.00    +0.250 C 
ATOM     12  H   UNL     1      32.153 -13.174 -24.875  0.00  0.00    +0.147 HD
ENDROOT
BRANCH   3  13
ATOM     13  C   UNL     1      35.358 -16.929 -22.237  0.00  0.00    +0.104 C 
BRANCH  13  14
ATOM     14  C   UNL     1      34.774 -17.717 -21.078  0.00  0.00    +0.137 C 
BRANCH  14  15
ATOM     15  P   UNL     1      34.406 -19.436 -21.505  0.00  0.00    +0.339 P 
ATOM     16  O   UNL     1      33.051 -19.877 -21.082  0.00  0.00    -0.258 OA
BRANCH  15  17
ATOM     17  O   UNL     1      35.649 -20.226 -20.855  0.00  0.00    -0.324 OA
ATOM     18  H   UNL     1      36.195 -20.607 -21.560  0.00  0.00    +0.220 HD
ENDBRANCH  15  17
BRANCH  15  19
ATOM     19  O   UNL     1      34.707 -19.469 -23.086  0.00  0.00    -0.324 OA
ATOM     20  H   UNL     1      34.022 -18.967 -23.556  0.00  0.00    +0.220 HD
ENDBRANCH  15  19
ENDBRANCH  14  15
ENDBRANCH  13  14
ENDBRANCH   3  13
TORSDOF 5
ENDMDL
MODEL 5
REMARK VINA RESULT:      -7.6      3.533      5.855
REMARK  Name = 6918236
REMARK  5 active torsions:
REMARK  status: ('A' for Active; 'I' for Inactive)
REMARK    1  A    between atoms: N_3  and  C_13
REMARK    2  A    between atoms: C_13  and  C_14
REMARK    3  A    between atoms: C_14  and  P_15
REMARK    4  A    between atoms: P_15  and  O_17
REMARK    5  A    between atoms: P_15  and  O_19
REMARK                            x       y       z     vdW  Elec       q    Type
REMARK                         _______ _______ _______ _____ _____    ______ ____
ROOT
ATOM      1  O   UNL     1      36.810 -26.454 -12.523  0.00  0.00    -0.282 OA
ATOM      2  O   UNL     1      39.474 -26.096 -13.955  0.00  0.00    -0.282 OA
ATOM      3  N   UNL     1      35.444 -23.987 -14.246  0.00  0.00    -0.303 N 
ATOM      4  N   UNL     1      38.305 -23.618 -15.738  0.00  0.00    -0.329 N 
ATOM      5  C   UNL     1      35.265 -22.750 -15.030  0.00  0.00    +0.093 C 
ATOM      6  C   UNL     1      36.622 -24.564 -14.184  0.00  0.00    +0.107 C 
ATOM      7  C   UNL     1      36.038 -22.732 -16.367  0.00  0.00    +0.043 C 
ATOM      8  C   UNL     1      37.824 -24.404 -14.817  0.00  0.00    +0.104 C 
ATOM      9  C   UNL     1      37.551 -22.471 -16.238  0.00  0.00    +0.089 C 
ATOM     10  C   UNL     1      37.143 -25.673 -13.378  0.00  0.00    +0.250 C 
ATOM     11  C   UNL     1      38.435 -25.501 -14.069  0.00  0.00    +0.250 C 
ATOM     12  H   UNL     1      39.199 -23.802 -16.106  0.00  0.00    +0.147 HD
ENDROOT
BRANCH   3  13
ATOM     13  C   UNL     1      34.372 -24.335 -13.322  0.00  0.00    +0.104 C 
BRANCH  13  14
ATOM     14  C   UNL     1      33.116 -24.693 -14.095  0.00  0.00    +0.137 C 
BRANCH  14  15
ATOM     15  P   UNL     1      31.697 -23.660 -13.657  0.00  0.00    +0.339 P 
ATOM     16  O   UNL     1      31.107 -22.937 -14.815  0.00  0.00    -0.258 OA
BRANCH  15  17
ATOM     17  O   UNL     1      32.289 -22.745 -12.472  0.00  0.00    -0.324 OA
ATOM     18  H   UNL     1      32.529 -23.307 -11.719  0.00  0.00    +0.220 HD
ENDBRANCH  15  17
BRANCH  15  19
ATOM     19  O   UNL     1      30.733 -24.703 -12.899  0.00  0.00    -0.324 OA
ATOM     20  H   UNL     1      29.914 -24.814 -13.408  0.00  0.00    +0.220 HD
ENDBRANCH  15  19
ENDBRANCH  14  15
ENDBRANCH  13  14
ENDBRANCH   3  13
TORSDOF 5
ENDMDL
MODEL 6
REMARK VINA RESULT:      -7.5      3.463      5.949
REMARK  Name = 6918236
REMARK  5 active torsions:
REMARK  status: ('A' for Active; 'I' for Inactive)
REMARK    1  A    between atoms: N_3  and  C_13
REMARK    2  A    between atoms: C_13  and  C_14
REMARK    3  A    between atoms: C_14  and  P_15
REMARK    4  A    between atoms: P_15  and  O_17
REMARK    5  A    between atoms: P_15  and  O_19
REMARK                            x       y       z     vdW  Elec       q    Type
REMARK                         _______ _______ _______ _____ _____    ______ ____
ROOT
ATOM      1  O   UNL     1      36.773 -26.958 -15.949  0.00  0.00    -0.282 OA
ATOM      2  O   UNL     1      39.558 -26.965 -14.716  0.00  0.00    -0.282 OA
ATOM      3  N   UNL     1      35.761 -24.585 -13.885  0.00  0.00    -0.303 N 
ATOM      4  N   UNL     1      38.733 -24.633 -12.579  0.00  0.00    -0.329 N 
ATOM      5  C   UNL     1      35.631 -23.708 -12.706  0.00  0.00    +0.093 C 
ATOM      6  C   UNL     1      36.870 -25.257 -14.089  0.00  0.00    +0.107 C 
ATOM      7  C   UNL     1      36.911 -22.914 -12.365  0.00  0.00    +0.043 C 
ATOM      8  C   UNL     1      38.120 -25.272 -13.535  0.00  0.00    +0.104 C 
ATOM      9  C   UNL     1      38.018 -23.734 -11.675  0.00  0.00    +0.089 C 
ATOM     10  C   UNL     1      37.233 -26.307 -15.047  0.00  0.00    +0.250 C 
ATOM     11  C   UNL     1      38.582 -26.313 -14.450  0.00  0.00    +0.250 C 
ATOM     12  H   UNL     1      39.702 -24.760 -12.461  0.00  0.00    +0.147 HD
ENDROOT
BRANCH   3  13
ATOM     13  C   UNL     1      34.531 -24.903 -14.600  0.00  0.00    +0.104 C 
BRANCH  13  14
ATOM     14  C   UNL     1      33.675 -23.657 -14.740  0.00  0.00    +0.137 C 
BRANCH  14  15
ATOM     15  P   UNL     1      32.054 -23.821 -13.954  0.00  0.00    +0.339 P 
ATOM     16  O   UNL     1      30.917 -23.593 -14.884  0.00  0.00    -0.258 OA
BRANCH  15  17
ATOM     17  O   UNL     1      32.170 -22.809 -12.708  0.00  0.00    -0.324 OA
ATOM     18  H   UNL     1      31.949 -21.910 -12.999  0.00  0.00    +0.220 HD
ENDBRANCH  15  17
BRANCH  15  19
ATOM     19  O   UNL     1      32.144 -25.280 -13.281  0.00  0.00    -0.324 OA
ATOM     20  H   UNL     1      31.262 -25.551 -12.978  0.00  0.00    +0.220 HD
ENDBRANCH  15  19
ENDBRANCH  14  15
ENDBRANCH  13  14
ENDBRANCH   3  13
TORSDOF 5
ENDMDL
MODEL 7
REMARK VINA RESULT:      -7.4     13.823     15.067
REMARK  Name = 6918236
REMARK  5 active torsions:
REMARK  status: ('A' for Active; 'I' for Inactive)
REMARK    1  A    between atoms: N_3  and  C_13
REMARK    2  A    between atoms: C_13  and  C_14
REMARK    3  A    between atoms: C_14  and  P_15
REMARK    4  A    between atoms: P_15  and  O_17
REMARK    5  A    between atoms: P_15  and  O_19
REMARK                            x       y       z     vdW  Elec       q    Type
REMARK                         _______ _______ _______ _____ _____    ______ ____
ROOT
ATOM      1  O   UNL     1      33.364 -13.893 -21.520  0.00  0.00    -0.282 OA
ATOM      2  O   UNL     1      34.912 -15.849 -19.773  0.00  0.00    -0.282 OA
ATOM      3  N   UNL     1      33.812 -15.781 -24.195  0.00  0.00    -0.303 N 
ATOM      4  N   UNL     1      35.476 -17.834 -22.308  0.00  0.00    -0.329 N 
ATOM      5  C   UNL     1      34.378 -16.747 -25.156  0.00  0.00    +0.093 C 
ATOM      6  C   UNL     1      34.156 -15.831 -22.928  0.00  0.00    +0.107 C 
ATOM      7  C   UNL     1      34.511 -18.183 -24.603  0.00  0.00    +0.043 C 
ATOM      8  C   UNL     1      34.857 -16.700 -22.139  0.00  0.00    +0.104 C 
ATOM      9  C   UNL     1      35.692 -18.400 -23.638  0.00  0.00    +0.089 C 
ATOM     10  C   UNL     1      33.904 -14.934 -21.795  0.00  0.00    +0.250 C 
ATOM     11  C   UNL     1      34.655 -15.879 -20.948  0.00  0.00    +0.250 C 
ATOM     12  H   UNL     1      35.807 -18.322 -21.520  0.00  0.00    +0.147 HD
ENDROOT
BRANCH   3  13
ATOM     13  C   UNL     1      33.137 -14.619 -24.760  0.00  0.00    +0.104 C 
BRANCH  13  14
ATOM     14  C   UNL     1      33.128 -14.709 -26.275  0.00  0.00    +0.137 C 
BRANCH  14  15
ATOM     15  P   UNL     1      33.384 -13.110 -27.081  0.00  0.00    +0.339 P 
ATOM     16  O   UNL     1      33.702 -12.010 -26.132  0.00  0.00    -0.258 OA
BRANCH  15  17
ATOM     17  O   UNL     1      32.038 -12.940 -27.945  0.00  0.00    -0.324 OA
ATOM     18  H   UNL     1      31.969 -12.025 -28.261  0.00  0.00    +0.220 HD
ENDBRANCH  15  17
BRANCH  15  19
ATOM     19  O   UNL     1      34.511 -13.454 -28.177  0.00  0.00    -0.324 OA
ATOM     20  H   UNL     1      34.372 -14.354 -28.512  0.00  0.00    +0.220 HD
ENDBRANCH  15  19
ENDBRANCH  14  15
ENDBRANCH  13  14
ENDBRANCH   3  13
TORSDOF 5
ENDMDL
MODEL 8
REMARK VINA RESULT:      -7.3      4.270      5.478
REMARK  Name = 6918236
REMARK  5 active torsions:
REMARK  status: ('A' for Active; 'I' for Inactive)
REMARK    1  A    between atoms: N_3  and  C_13
REMARK    2  A    between atoms: C_13  and  C_14
REMARK    3  A    between atoms: C_14  and  P_15
REMARK    4  A    between atoms: P_15  and  O_17
REMARK    5  A    between atoms: P_15  and  O_19
REMARK                            x       y       z     vdW  Elec       q    Type
REMARK                         _______ _______ _______ _____ _____    ______ ____
ROOT
ATOM      1  O   UNL     1      32.297 -22.385 -18.117  0.00  0.00    -0.282 OA
ATOM      2  O   UNL     1      29.386 -22.395 -17.222  0.00  0.00    -0.282 OA
ATOM      3  N   UNL     1      33.265 -23.832 -15.310  0.00  0.00    -0.303 N 
ATOM      4  N   UNL     1      30.155 -23.808 -14.376  0.00  0.00    -0.329 N 
ATOM      5  C   UNL     1      33.326 -24.272 -13.903  0.00  0.00    +0.093 C 
ATOM      6  C   UNL     1      32.128 -23.422 -15.824  0.00  0.00    +0.107 C 
ATOM      7  C   UNL     1      32.103 -25.096 -13.445  0.00  0.00    +0.043 C 
ATOM      8  C   UNL     1      30.820 -23.416 -15.426  0.00  0.00    +0.104 C 
ATOM      9  C   UNL     1      30.831 -24.271 -13.167  0.00  0.00    +0.089 C 
ATOM     10  C   UNL     1      31.790 -22.784 -17.101  0.00  0.00    +0.250 C 
ATOM     11  C   UNL     1      30.380 -22.787 -16.668  0.00  0.00    +0.250 C 
ATOM     12  H   UNL     1      29.171 -23.792 -14.399  0.00  0.00    +0.147 HD
ENDROOT
BRANCH   3  13
ATOM     13  C   UNL     1      34.540 -23.578 -15.969  0.00  0.00    +0.104 C 
BRANCH  13  14
ATOM     14  C   UNL     1      35.501 -22.912 -15.001  0.00  0.00    +0.137 C 
BRANCH  14  15
ATOM     15  P   UNL     1      37.158 -23.637 -15.040  0.00  0.00    +0.339 P 
ATOM     16  O   UNL     1      37.891 -23.516 -13.751  0.00  0.00    -0.258 OA
BRANCH  15  17
ATOM     17  O   UNL     1      37.825 -22.907 -16.310  0.00  0.00    -0.324 OA
ATOM     18  H   UNL     1      38.507 -23.481 -16.692  0.00  0.00    +0.220 HD
ENDBRANCH  15  17
BRANCH  15  19
ATOM     19  O   UNL     1      36.868 -25.133 -15.558  0.00  0.00    -0.324 OA
ATOM     20  H   UNL     1      37.593 -25.422 -16.135  0.00  0.00    +0.220 HD
ENDBRANCH  15  19
ENDBRANCH  14  15
ENDBRANCH  13  14
ENDBRANCH   3  13
TORSDOF 5
ENDMDL
MODEL 9
REMARK VINA RESULT:      -7.3      3.965      6.075
REMARK  Name = 6918236
REMARK  5 active torsions:
REMARK  status: ('A' for Active; 'I' for Inactive)
REMARK    1  A    between atoms: N_3  and  C_13
REMARK    2  A    between atoms: C_13  and  C_14
REMARK    3  A    between atoms: C_14  and  P_15
REMARK    4  A    between atoms: P_15  and  O_17
REMARK    5  A    between atoms: P_15  and  O_19
REMARK                            x       y       z     vdW  Elec       q    Type
REMARK                         _______ _______ _______ _____ _____    ______ ____
ROOT
ATOM      1  O   UNL     1      34.975 -25.013 -11.033  0.00  0.00    -0.282 OA
ATOM      2  O   UNL     1      37.941 -24.373 -11.295  0.00  0.00    -0.282 OA
ATOM      3  N   UNL     1      34.356 -23.836 -14.058  0.00  0.00    -0.303 N 
ATOM      4  N   UNL     1      37.521 -23.146 -14.296  0.00  0.00    -0.329 N 
ATOM      5  C   UNL     1      34.445 -23.063 -15.312  0.00  0.00    +0.093 C 
ATOM      6  C   UNL     1      35.411 -23.966 -13.287  0.00  0.00    +0.107 C 
ATOM      7  C   UNL     1      35.763 -23.271 -16.089  0.00  0.00    +0.043 C 
ATOM      8  C   UNL     1      36.743 -23.674 -13.393  0.00  0.00    +0.104 C 
ATOM      9  C   UNL     1      36.984 -22.532 -15.508  0.00  0.00    +0.089 C 
ATOM     10  C   UNL     1      35.593 -24.513 -11.938  0.00  0.00    +0.250 C 
ATOM     11  C   UNL     1      37.029 -24.202 -12.062  0.00  0.00    +0.250 C 
ATOM     12  H   UNL     1      38.495 -23.162 -14.158  0.00  0.00    +0.147 HD
ENDROOT
BRANCH   3  13
ATOM     13  C   UNL     1      33.016 -24.155 -13.582  0.00  0.00    +0.104 C 
BRANCH  13  14
ATOM     14  C   UNL     1      32.086 -24.376 -14.761  0.00  0.00    +0.137 C 
BRANCH  14  15
ATOM     15  P   UNL     1      30.360 -24.599 -14.268  0.00  0.00    +0.339 P 
ATOM     16  O   UNL     1      29.443 -23.573 -14.831  0.00  0.00    -0.258 OA
BRANCH  15  17
ATOM     17  O   UNL     1      30.464 -24.658 -12.663  0.00  0.00    -0.324 OA
ATOM     18  H   UNL     1      30.849 -25.507 -12.395  0.00  0.00    +0.220 HD
ENDBRANCH  15  17
BRANCH  15  19
ATOM     19  O   UNL     1      30.074 -26.124 -14.696  0.00  0.00    -0.324 OA
ATOM     20  H   UNL     1      29.293 -26.157 -15.272  0.00  0.00    +0.220 HD
ENDBRANCH  15  19
ENDBRANCH  14  15
ENDBRANCH  13  14
ENDBRANCH   3  13
TORSDOF 5
ENDMDL
