MODEL 1
REMARK VINA RESULT:      -8.3      0.000      0.000
REMARK  Name = 12901
REMARK  5 active torsions:
REMARK  status: ('A' for Active; 'I' for Inactive)
REMARK    1  A    between atoms: N_3  and  C_12
REMARK    2  A    between atoms: C_12  and  S_13
REMARK    3  A    between atoms: S_13  and  P_15
REMARK    4  A    between atoms: P_15  and  O_16
REMARK    5  A    between atoms: P_15  and  O_18
REMARK                            x       y       z     vdW  Elec       q    Type
REMARK                         _______ _______ _______ _____ _____    ______ ____
ROOT
ATOM      1  O   UNL     1      32.219 -22.432 -18.251  0.00  0.00    -0.269 OA
ATOM      2  O   UNL     1      36.845 -22.171 -18.183  0.00  0.00    -0.269 OA
ATOM      3  N   UNL     1      34.542 -22.574 -17.885  0.00  0.00    -0.212 N 
ATOM      4  C   UNL     1      33.797 -21.216 -19.538  0.00  0.00    +0.058 C 
ATOM      5  C   UNL     1      35.181 -21.139 -19.516  0.00  0.00    +0.058 C 
ATOM      6  C   UNL     1      33.378 -22.145 -18.489  0.00  0.00    +0.256 C 
ATOM      7  C   UNL     1      35.668 -22.017 -18.453  0.00  0.00    +0.256 C 
ATOM      8  C   UNL     1      33.038 -20.497 -20.439  0.00  0.00    +0.005 C 
ATOM      9  C   UNL     1      35.882 -20.338 -20.396  0.00  0.00    +0.005 C 
ATOM     10  C   UNL     1      33.726 -19.679 -21.339  0.00  0.00    +0.000 C 
ATOM     11  C   UNL     1      35.134 -19.601 -21.318  0.00  0.00    +0.000 C 
ENDROOT
BRANCH   3  12
ATOM     12  C   UNL     1      34.577 -23.508 -16.777  0.00  0.00    +0.168 C 
BRANCH  12  13
ATOM     13  S   UNL     1      35.392 -22.770 -15.348  0.00  0.00    -0.041 S 
BRANCH  13  15
ATOM     14  S   UNL     1      36.668 -24.745 -12.732  0.00  0.00    +0.003 S 
ATOM     15  P   UNL     1      36.729 -24.262 -14.632  0.00  0.00    +0.233 P 
BRANCH  15  16
ATOM     16  O   UNL     1      38.230 -23.823 -15.112  0.00  0.00    -0.307 OA
ATOM     17  C   UNL     1      39.331 -24.694 -14.907  0.00  0.00    +0.182 C 
ENDBRANCH  15  16
BRANCH  15  18
ATOM     18  O   UNL     1      36.554 -25.566 -15.604  0.00  0.00    -0.307 OA
ATOM     19  C   UNL     1      36.679 -26.875 -15.077  0.00  0.00    +0.182 C 
ENDBRANCH  15  18
ENDBRANCH  13  15
ENDBRANCH  12  13
ENDBRANCH   3  12
TORSDOF 5
ENDMDL
MODEL 2
REMARK VINA RESULT:      -8.3      0.052      2.020
REMARK  Name = 12901
REMARK  5 active torsions:
REMARK  status: ('A' for Active; 'I' for Inactive)
REMARK    1  A    between atoms: N_3  and  C_12
REMARK    2  A    between atoms: C_12  and  S_13
REMARK    3  A    between atoms: S_13  and  P_15
REMARK    4  A    between atoms: P_15  and  O_16
REMARK    5  A    between atoms: P_15  and  O_18
REMARK                            x       y       z     vdW  Elec       q    Type
REMARK                         _______ _______ _______ _____ _____    ______ ____
ROOT
ATOM      1  O   UNL     1      36.831 -22.183 -18.116  0.00  0.00    -0.269 OA
ATOM      2  O   UNL     1      32.206 -22.424 -18.230  0.00  0.00    -0.269 OA
ATOM      3  N   UNL     1      34.525 -22.585 -17.849  0.00  0.00    -0.212 N 
ATOM      4  C   UNL     1      35.185 -21.161 -19.483  0.00  0.00    +0.058 C 
ATOM      5  C   UNL     1      33.800 -21.235 -19.516  0.00  0.00    +0.058 C 
ATOM      6  C   UNL     1      35.659 -22.030 -18.405  0.00  0.00    +0.256 C 
ATOM      7  C   UNL     1      33.369 -22.150 -18.460  0.00  0.00    +0.256 C 
ATOM      8  C   UNL     1      35.896 -20.372 -20.362  0.00  0.00    +0.005 C 
ATOM      9  C   UNL     1      33.053 -20.521 -20.431  0.00  0.00    +0.005 C 
ATOM     10  C   UNL     1      35.160 -19.640 -21.299  0.00  0.00    +0.000 C 
ATOM     11  C   UNL     1      33.753 -19.713 -21.332  0.00  0.00    +0.000 C 
ENDROOT
BRANCH   3  12
ATOM     12  C   UNL     1      34.549 -23.523 -16.744  0.00  0.00    +0.168 C 
BRANCH  12  13
ATOM     13  S   UNL     1      35.357 -22.795 -15.306  0.00  0.00    -0.041 S 
BRANCH  13  15
ATOM     14  S   UNL     1      36.765 -24.740 -12.736  0.00  0.00    +0.003 S 
ATOM     15  P   UNL     1      36.744 -24.263 -14.639  0.00  0.00    +0.233 P 
BRANCH  15  16
ATOM     16  O   UNL     1      38.218 -23.802 -15.177  0.00  0.00    -0.307 OA
ATOM     17  C   UNL     1      39.348 -24.635 -14.972  0.00  0.00    +0.182 C 
ENDBRANCH  15  16
BRANCH  15  18
ATOM     18  O   UNL     1      36.552 -25.573 -15.599  0.00  0.00    -0.307 OA
ATOM     19  C   UNL     1      36.712 -26.879 -15.071  0.00  0.00    +0.182 C 
ENDBRANCH  15  18
ENDBRANCH  13  15
ENDBRANCH  12  13
ENDBRANCH   3  12
TORSDOF 5
ENDMDL
MODEL 3
REMARK VINA RESULT:      -8.2      1.274      1.580
REMARK  Name = 12901
REMARK  5 active torsions:
REMARK  status: ('A' for Active; 'I' for Inactive)
REMARK    1  A    between atoms: N_3  and  C_12
REMARK    2  A    between atoms: C_12  and  S_13
REMARK    3  A    between atoms: S_13  and  P_15
REMARK    4  A    between atoms: P_15  and  O_16
REMARK    5  A    between atoms: P_15  and  O_18
REMARK                            x       y       z     vdW  Elec       q    Type
REMARK                         _______ _______ _______ _____ _____    ______ ____
ROOT
ATOM      1  O   UNL     1      32.193 -22.461 -18.210  0.00  0.00    -0.269 OA
ATOM      2  O   UNL     1      36.817 -22.175 -18.179  0.00  0.00    -0.269 OA
ATOM      3  N   UNL     1      34.520 -22.590 -17.862  0.00  0.00    -0.212 N 
ATOM      4  C   UNL     1      33.754 -21.240 -19.513  0.00  0.00    +0.058 C 
ATOM      5  C   UNL     1      35.138 -21.155 -19.502  0.00  0.00    +0.058 C 
ATOM      6  C   UNL     1      33.349 -22.168 -18.457  0.00  0.00    +0.256 C 
ATOM      7  C   UNL     1      35.638 -22.028 -18.440  0.00  0.00    +0.256 C 
ATOM      8  C   UNL     1      32.984 -20.527 -20.409  0.00  0.00    +0.005 C 
ATOM      9  C   UNL     1      35.827 -20.352 -20.389  0.00  0.00    +0.005 C 
ATOM     10  C   UNL     1      33.661 -19.707 -21.316  0.00  0.00    +0.000 C 
ATOM     11  C   UNL     1      35.068 -19.621 -21.307  0.00  0.00    +0.000 C 
ENDROOT
BRANCH   3  12
ATOM     12  C   UNL     1      34.568 -23.520 -16.752  0.00  0.00    +0.168 C 
BRANCH  12  13
ATOM     13  S   UNL     1      35.426 -22.789 -15.345  0.00  0.00    -0.041 S 
BRANCH  13  15
ATOM     14  S   UNL     1      36.328 -26.185 -15.180  0.00  0.00    +0.003 S 
ATOM     15  P   UNL     1      36.628 -24.353 -14.546  0.00  0.00    +0.233 P 
BRANCH  15  16
ATOM     16  O   UNL     1      36.535 -24.238 -12.918  0.00  0.00    -0.307 OA
ATOM     17  C   UNL     1      37.103 -23.126 -12.244  0.00  0.00    +0.182 C 
ENDBRANCH  15  16
BRANCH  15  18
ATOM     18  O   UNL     1      38.187 -23.891 -14.717  0.00  0.00    -0.307 OA
ATOM     19  C   UNL     1      39.213 -24.861 -14.841  0.00  0.00    +0.182 C 
ENDBRANCH  15  18
ENDBRANCH  13  15
ENDBRANCH  12  13
ENDBRANCH   3  12
TORSDOF 5
ENDMDL
MODEL 4
REMARK VINA RESULT:      -8.0      1.684      2.949
REMARK  Name = 12901
REMARK  5 active torsions:
REMARK  status: ('A' for Active; 'I' for Inactive)
REMARK    1  A    between atoms: N_3  and  C_12
REMARK    2  A    between atoms: C_12  and  S_13
REMARK    3  A    between atoms: S_13  and  P_15
REMARK    4  A    between atoms: P_15  and  O_16
REMARK    5  A    between atoms: P_15  and  O_18
REMARK                            x       y       z     vdW  Elec       q    Type
REMARK                         _______ _______ _______ _____ _____    ______ ____
ROOT
ATOM      1  O   UNL     1      36.948 -21.875 -18.391  0.00  0.00    -0.269 OA
ATOM      2  O   UNL     1      32.358 -22.472 -18.196  0.00  0.00    -0.269 OA
ATOM      3  N   UNL     1      34.703 -22.446 -17.966  0.00  0.00    -0.212 N 
ATOM      4  C   UNL     1      35.143 -21.013 -19.664  0.00  0.00    +0.058 C 
ATOM      5  C   UNL     1      33.769 -21.193 -19.605  0.00  0.00    +0.058 C 
ATOM      6  C   UNL     1      35.751 -21.818 -18.605  0.00  0.00    +0.256 C 
ATOM      7  C   UNL     1      33.479 -22.115 -18.507  0.00  0.00    +0.256 C 
ATOM      8  C   UNL     1      35.733 -20.192 -20.603  0.00  0.00    +0.005 C 
ATOM      9  C   UNL     1      32.911 -20.560 -20.481  0.00  0.00    +0.005 C 
ATOM     10  C   UNL     1      34.883 -19.540 -21.501  0.00  0.00    +0.000 C 
ATOM     11  C   UNL     1      33.486 -19.722 -21.440  0.00  0.00    +0.000 C 
ENDROOT
BRANCH   3  12
ATOM     12  C   UNL     1      34.870 -23.355 -16.849  0.00  0.00    +0.168 C 
BRANCH  12  13
ATOM     13  S   UNL     1      35.740 -22.544 -15.492  0.00  0.00    -0.041 S 
BRANCH  13  15
ATOM     14  S   UNL     1      36.736 -25.881 -14.993  0.00  0.00    +0.003 S 
ATOM     15  P   UNL     1      36.371 -24.119 -14.209  0.00  0.00    +0.233 P 
BRANCH  15  16
ATOM     16  O   UNL     1      35.287 -24.198 -12.987  0.00  0.00    -0.307 OA
ATOM     17  C   UNL     1      33.897 -24.243 -13.263  0.00  0.00    +0.182 C 
ENDBRANCH  15  16
BRANCH  15  18
ATOM     18  O   UNL     1      37.642 -23.554 -13.349  0.00  0.00    -0.307 OA
ATOM     19  C   UNL     1      37.459 -23.081 -12.025  0.00  0.00    +0.182 C 
ENDBRANCH  15  18
ENDBRANCH  13  15
ENDBRANCH  12  13
ENDBRANCH   3  12
TORSDOF 5
ENDMDL
MODEL 5
REMARK VINA RESULT:      -8.0      3.603      4.894
REMARK  Name = 12901
REMARK  5 active torsions:
REMARK  status: ('A' for Active; 'I' for Inactive)
REMARK    1  A    between atoms: N_3  and  C_12
REMARK    2  A    between atoms: C_12  and  S_13
REMARK    3  A    between atoms: S_13  and  P_15
REMARK    4  A    between atoms: P_15  and  O_16
REMARK    5  A    between atoms: P_15  and  O_18
REMARK                            x       y       z     vdW  Elec       q    Type
REMARK                         _______ _______ _______ _____ _____    ______ ____
ROOT
ATOM      1  O   UNL     1      34.177 -23.507 -17.572  0.00  0.00    -0.269 OA
ATOM      2  O   UNL     1      34.036 -24.426 -13.033  0.00  0.00    -0.269 OA
ATOM      3  N   UNL     1      34.517 -24.090 -15.315  0.00  0.00    -0.212 N 
ATOM      4  C   UNL     1      32.464 -23.363 -15.938  0.00  0.00    +0.058 C 
ATOM      5  C   UNL     1      32.424 -23.639 -14.580  0.00  0.00    +0.058 C 
ATOM      6  C   UNL     1      33.816 -23.650 -16.418  0.00  0.00    +0.256 C 
ATOM      7  C   UNL     1      33.748 -24.105 -14.171  0.00  0.00    +0.256 C 
ATOM      8  C   UNL     1      31.360 -22.900 -16.624  0.00  0.00    +0.005 C 
ATOM      9  C   UNL     1      31.275 -23.465 -13.833  0.00  0.00    +0.005 C 
ATOM     10  C   UNL     1      30.186 -22.718 -15.888  0.00  0.00    +0.000 C 
ATOM     11  C   UNL     1      30.143 -22.997 -14.507  0.00  0.00    +0.000 C 
ENDROOT
BRANCH   3  12
ATOM     12  C   UNL     1      35.909 -24.493 -15.355  0.00  0.00    +0.168 C 
BRANCH  12  13
ATOM     13  S   UNL     1      36.930 -23.355 -14.398  0.00  0.00    -0.041 S 
BRANCH  13  15
ATOM     14  S   UNL     1      37.312 -26.397 -12.673  0.00  0.00    +0.003 S 
ATOM     15  P   UNL     1      37.963 -24.574 -12.993  0.00  0.00    +0.233 P 
BRANCH  15  16
ATOM     16  O   UNL     1      38.082 -23.707 -11.612  0.00  0.00    -0.307 OA
ATOM     17  C   UNL     1      37.038 -22.830 -11.223  0.00  0.00    +0.182 C 
ENDBRANCH  15  16
BRANCH  15  18
ATOM     18  O   UNL     1      39.543 -24.550 -13.412  0.00  0.00    -0.307 OA
ATOM     19  C   UNL     1      40.005 -25.311 -14.516  0.00  0.00    +0.182 C 
ENDBRANCH  15  18
ENDBRANCH  13  15
ENDBRANCH  12  13
ENDBRANCH   3  12
TORSDOF 5
ENDMDL
MODEL 6
REMARK VINA RESULT:      -7.9      3.579      4.858
REMARK  Name = 12901
REMARK  5 active torsions:
REMARK  status: ('A' for Active; 'I' for Inactive)
REMARK    1  A    between atoms: N_3  and  C_12
REMARK    2  A    between atoms: C_12  and  S_13
REMARK    3  A    between atoms: S_13  and  P_15
REMARK    4  A    between atoms: P_15  and  O_16
REMARK    5  A    between atoms: P_15  and  O_18
REMARK                            x       y       z     vdW  Elec       q    Type
REMARK                         _______ _______ _______ _____ _____    ______ ____
ROOT
ATOM      1  O   UNL     1      33.998 -24.390 -13.094  0.00  0.00    -0.269 OA
ATOM      2  O   UNL     1      34.122 -23.471 -17.634  0.00  0.00    -0.269 OA
ATOM      3  N   UNL     1      34.476 -24.037 -15.374  0.00  0.00    -0.212 N 
ATOM      4  C   UNL     1      32.378 -23.607 -14.638  0.00  0.00    +0.058 C 
ATOM      5  C   UNL     1      32.416 -23.332 -15.996  0.00  0.00    +0.058 C 
ATOM      6  C   UNL     1      33.705 -24.066 -14.230  0.00  0.00    +0.256 C 
ATOM      7  C   UNL     1      33.769 -23.612 -16.478  0.00  0.00    +0.256 C 
ATOM      8  C   UNL     1      31.230 -23.441 -13.890  0.00  0.00    +0.005 C 
ATOM      9  C   UNL     1      31.307 -22.877 -16.681  0.00  0.00    +0.005 C 
ATOM     10  C   UNL     1      30.094 -22.980 -14.563  0.00  0.00    +0.000 C 
ATOM     11  C   UNL     1      30.132 -22.702 -15.944  0.00  0.00    +0.000 C 
ENDROOT
BRANCH   3  12
ATOM     12  C   UNL     1      35.876 -24.412 -15.410  0.00  0.00    +0.168 C 
BRANCH  12  13
ATOM     13  S   UNL     1      36.862 -23.293 -14.396  0.00  0.00    -0.041 S 
BRANCH  13  15
ATOM     14  S   UNL     1      37.309 -26.398 -12.805  0.00  0.00    +0.003 S 
ATOM     15  P   UNL     1      37.916 -24.547 -13.039  0.00  0.00    +0.233 P 
BRANCH  15  16
ATOM     16  O   UNL     1      38.004 -23.740 -11.619  0.00  0.00    -0.307 OA
ATOM     17  C   UNL     1      36.948 -22.884 -11.214  0.00  0.00    +0.182 C 
ENDBRANCH  15  16
BRANCH  15  18
ATOM     18  O   UNL     1      39.498 -24.465 -13.443  0.00  0.00    -0.307 OA
ATOM     19  C   UNL     1      40.127 -25.551 -14.104  0.00  0.00    +0.182 C 
ENDBRANCH  15  18
ENDBRANCH  13  15
ENDBRANCH  12  13
ENDBRANCH   3  12
TORSDOF 5
ENDMDL
MODEL 7
REMARK VINA RESULT:      -7.8      6.157      9.065
REMARK  Name = 12901
REMARK  5 active torsions:
REMARK  status: ('A' for Active; 'I' for Inactive)
REMARK    1  A    between atoms: N_3  and  C_12
REMARK    2  A    between atoms: C_12  and  S_13
REMARK    3  A    between atoms: S_13  and  P_15
REMARK    4  A    between atoms: P_15  and  O_16
REMARK    5  A    between atoms: P_15  and  O_18
REMARK                            x       y       z     vdW  Elec       q    Type
REMARK                         _______ _______ _______ _____ _____    ______ ____
ROOT
ATOM      1  O   UNL     1      37.125 -19.086 -21.198  0.00  0.00    -0.269 OA
ATOM      2  O   UNL     1      32.551 -19.800 -21.394  0.00  0.00    -0.269 OA
ATOM      3  N   UNL     1      34.805 -19.144 -21.603  0.00  0.00    -0.212 N 
ATOM      4  C   UNL     1      35.651 -20.513 -20.009  0.00  0.00    +0.058 C 
ATOM      5  C   UNL     1      34.282 -20.725 -20.068  0.00  0.00    +0.058 C 
ATOM      6  C   UNL     1      35.995 -19.494 -21.000  0.00  0.00    +0.256 C 
ATOM      7  C   UNL     1      33.731 -19.846 -21.099  0.00  0.00    +0.256 C 
ATOM      8  C   UNL     1      36.460 -21.200 -19.127  0.00  0.00    +0.005 C 
ATOM      9  C   UNL     1      33.648 -21.638 -19.249  0.00  0.00    +0.005 C 
ATOM     10  C   UNL     1      35.840 -22.129 -18.287  0.00  0.00    +0.000 C 
ATOM     11  C   UNL     1      34.448 -22.346 -18.347  0.00  0.00    +0.000 C 
ENDROOT
BRANCH   3  12
ATOM     12  C   UNL     1      34.696 -18.147 -22.649  0.00  0.00    +0.168 C 
BRANCH  12  13
ATOM     13  S   UNL     1      34.980 -16.494 -21.986  0.00  0.00    -0.041 S 
BRANCH  13  15
ATOM     14  S   UNL     1      33.587 -15.638 -25.100  0.00  0.00    +0.003 S 
ATOM     15  P   UNL     1      33.817 -15.193 -23.203  0.00  0.00    +0.233 P 
BRANCH  15  16
ATOM     16  O   UNL     1      34.410 -13.685 -22.988  0.00  0.00    -0.307 OA
ATOM     17  C   UNL     1      33.827 -12.582 -23.663  0.00  0.00    +0.182 C 
ENDBRANCH  15  16
BRANCH  15  18
ATOM     18  O   UNL     1      32.384 -14.983 -22.443  0.00  0.00    -0.307 OA
ATOM     19  C   UNL     1      32.284 -15.157 -21.040  0.00  0.00    +0.182 C 
ENDBRANCH  15  18
ENDBRANCH  13  15
ENDBRANCH  12  13
ENDBRANCH   3  12
TORSDOF 5
ENDMDL
MODEL 8
REMARK VINA RESULT:      -7.7     10.400     13.157
REMARK  Name = 12901
REMARK  5 active torsions:
REMARK  status: ('A' for Active; 'I' for Inactive)
REMARK    1  A    between atoms: N_3  and  C_12
REMARK    2  A    between atoms: C_12  and  S_13
REMARK    3  A    between atoms: S_13  and  P_15
REMARK    4  A    between atoms: P_15  and  O_16
REMARK    5  A    between atoms: P_15  and  O_18
REMARK                            x       y       z     vdW  Elec       q    Type
REMARK                         _______ _______ _______ _____ _____    ______ ____
ROOT
ATOM      1  O   UNL     1      34.061 -14.131 -21.245  0.00  0.00    -0.269 OA
ATOM      2  O   UNL     1      32.788 -13.933 -25.696  0.00  0.00    -0.269 OA
ATOM      3  N   UNL     1      33.253 -13.644 -23.404  0.00  0.00    -0.212 N 
ATOM      4  C   UNL     1      34.275 -15.637 -23.064  0.00  0.00    +0.058 C 
ATOM      5  C   UNL     1      33.893 -15.576 -24.396  0.00  0.00    +0.058 C 
ATOM      6  C   UNL     1      33.867 -14.390 -22.419  0.00  0.00    +0.256 C 
ATOM      7  C   UNL     1      33.236 -14.290 -24.622  0.00  0.00    +0.256 C 
ATOM      8  C   UNL     1      34.924 -16.735 -22.539  0.00  0.00    +0.005 C 
ATOM      9  C   UNL     1      34.142 -16.612 -25.274  0.00  0.00    +0.005 C 
ATOM     10  C   UNL     1      35.186 -17.796 -23.410  0.00  0.00    +0.000 C 
ATOM     11  C   UNL     1      34.800 -17.735 -24.765  0.00  0.00    +0.000 C 
ENDROOT
BRANCH   3  12
ATOM     12  C   UNL     1      32.688 -12.328 -23.182  0.00  0.00    +0.168 C 
BRANCH  12  13
ATOM     13  S   UNL     1      33.675 -11.063 -24.006  0.00  0.00    -0.041 S 
BRANCH  13  15
ATOM     14  S   UNL     1      34.243  -7.690 -23.186  0.00  0.00    +0.003 S 
ATOM     15  P   UNL     1      33.006  -9.213 -23.197  0.00  0.00    +0.233 P 
BRANCH  15  16
ATOM     16  O   UNL     1      32.406  -9.535 -21.710  0.00  0.00    -0.307 OA
ATOM     17  C   UNL     1      32.398  -8.531 -20.708  0.00  0.00    +0.182 C 
ENDBRANCH  15  16
BRANCH  15  18
ATOM     18  O   UNL     1      31.593  -8.851 -23.937  0.00  0.00    -0.307 OA
ATOM     19  C   UNL     1      31.122  -7.515 -23.970  0.00  0.00    +0.182 C 
ENDBRANCH  15  18
ENDBRANCH  13  15
ENDBRANCH  12  13
ENDBRANCH   3  12
TORSDOF 5
ENDMDL
MODEL 9
REMARK VINA RESULT:      -7.7     10.319     13.031
REMARK  Name = 12901
REMARK  5 active torsions:
REMARK  status: ('A' for Active; 'I' for Inactive)
REMARK    1  A    between atoms: N_3  and  C_12
REMARK    2  A    between atoms: C_12  and  S_13
REMARK    3  A    between atoms: S_13  and  P_15
REMARK    4  A    between atoms: P_15  and  O_16
REMARK    5  A    between atoms: P_15  and  O_18
REMARK                            x       y       z     vdW  Elec       q    Type
REMARK                         _______ _______ _______ _____ _____    ______ ____
ROOT
ATOM      1  O   UNL     1      32.754 -14.059 -25.569  0.00  0.00    -0.269 OA
ATOM      2  O   UNL     1      34.182 -14.175 -21.163  0.00  0.00    -0.269 OA
ATOM      3  N   UNL     1      33.304 -13.725 -23.303  0.00  0.00    -0.212 N 
ATOM      4  C   UNL     1      33.944 -15.661 -24.289  0.00  0.00    +0.058 C 
ATOM      5  C   UNL     1      34.371 -15.694 -22.970  0.00  0.00    +0.058 C 
ATOM      6  C   UNL     1      33.251 -14.392 -24.509  0.00  0.00    +0.256 C 
ATOM      7  C   UNL     1      33.957 -14.448 -22.327  0.00  0.00    +0.256 C 
ATOM      8  C   UNL     1      34.184 -16.703 -25.161  0.00  0.00    +0.005 C 
ATOM      9  C   UNL     1      35.060 -16.773 -22.452  0.00  0.00    +0.005 C 
ATOM     10  C   UNL     1      34.881 -17.805 -24.659  0.00  0.00    +0.000 C 
ATOM     11  C   UNL     1      35.315 -17.840 -23.318  0.00  0.00    +0.000 C 
ENDROOT
BRANCH   3  12
ATOM     12  C   UNL     1      32.737 -12.408 -23.086  0.00  0.00    +0.168 C 
BRANCH  12  13
ATOM     13  S   UNL     1      33.658 -11.158 -24.004  0.00  0.00    -0.041 S 
BRANCH  13  15
ATOM     14  S   UNL     1      34.290  -7.800 -23.170  0.00  0.00    +0.003 S 
ATOM     15  P   UNL     1      33.017  -9.293 -23.208  0.00  0.00    +0.233 P 
BRANCH  15  16
ATOM     16  O   UNL     1      32.378  -9.599 -21.735  0.00  0.00    -0.307 OA
ATOM     17  C   UNL     1      32.427  -8.616 -20.714  0.00  0.00    +0.182 C 
ENDBRANCH  15  16
BRANCH  15  18
ATOM     18  O   UNL     1      31.630  -8.897 -23.979  0.00  0.00    -0.307 OA
ATOM     19  C   UNL     1      31.162  -7.558 -23.973  0.00  0.00    +0.182 C 
ENDBRANCH  15  18
ENDBRANCH  13  15
ENDBRANCH  12  13
ENDBRANCH   3  12
TORSDOF 5
ENDMDL
