MODEL 1
REMARK VINA RESULT:      -8.6      0.000      0.000
REMARK  Name = 442151
REMARK  6 active torsions:
REMARK  status: ('A' for Active; 'I' for Inactive)
REMARK    1  A    between atoms: C_5  and  O_18
REMARK    2  A    between atoms: C_6  and  O_25
REMARK    3  A    between atoms: O_18  and  C_20
REMARK    4  A    between atoms: C_20  and  C_21
REMARK    5  A    between atoms: C_21  and  C_23
REMARK    6  A    between atoms: O_25  and  C_27
REMARK                            x       y       z     vdW  Elec       q    Type
REMARK                         _______ _______ _______ _____ _____    ______ ____
ROOT
ATOM      1  O   UNL     1      32.351 -12.791 -20.784  0.00  0.00    -0.479 OA
ATOM      2  O   UNL     1      34.361 -15.588 -24.222  0.00  0.00    -0.421 OA
ATOM      3  O   UNL     1      35.297 -16.958 -25.801  0.00  0.00    -0.244 OA
ATOM      4  C   UNL     1      32.096 -11.734 -21.730  0.00  0.00    +0.174 C 
ATOM      5  C   UNL     1      33.204 -11.669 -22.804  0.00  0.00    +0.249 C 
ATOM      6  C   UNL     1      33.376 -12.999 -23.538  0.00  0.00    +0.240 C 
ATOM      7  C   UNL     1      33.372 -14.137 -22.557  0.00  0.00    +0.090 C 
ATOM      8  C   UNL     1      32.864 -13.967 -21.265  0.00  0.00    +0.141 C 
ATOM      9  C   UNL     1      32.105 -10.438 -20.898  0.00  0.00    +0.048 C 
ATOM     10  C   UNL     1      30.676 -11.913 -22.291  0.00  0.00    +0.048 C 
ATOM     11  C   UNL     1      33.862 -15.405 -22.910  0.00  0.00    +0.151 C 
ATOM     12  C   UNL     1      32.876 -15.030 -20.354  0.00  0.00    +0.037 C 
ATOM     13  C   UNL     1      33.871 -16.474 -22.016  0.00  0.00    +0.035 C 
ATOM     14  C   UNL     1      33.376 -16.280 -20.726  0.00  0.00    +0.006 C 
ATOM     15  C   UNL     1      34.397 -17.758 -22.450  0.00  0.00    +0.010 C 
ATOM     16  C   UNL     1      34.867 -16.806 -24.662  0.00  0.00    +0.346 C 
ATOM     17  C   UNL     1      34.863 -17.912 -23.690  0.00  0.00    +0.082 C 
ENDROOT
BRANCH   5  18
ATOM     18  O   UNL     1      32.970 -10.642 -23.760  0.00  0.00    -0.444 OA
BRANCH  18  20
ATOM     19  O   UNL     1      35.036 -10.011 -24.570  0.00  0.00    -0.250 OA
ATOM     20  C   UNL     1      34.004  -9.765 -23.960  0.00  0.00    +0.317 C 
BRANCH  20  21
ATOM     21  C   UNL     1      33.696  -8.439 -23.284  0.00  0.00    +0.099 C 
ATOM     22  C   UNL     1      32.295  -8.001 -23.701  0.00  0.00    +0.012 C 
BRANCH  21  23
ATOM     23  C   UNL     1      34.736  -7.369 -23.647  0.00  0.00    +0.011 C 
ATOM     24  C   UNL     1      34.357  -6.586 -24.898  0.00  0.00    +0.001 C 
ENDBRANCH  21  23
ENDBRANCH  20  21
ENDBRANCH  18  20
ENDBRANCH   5  18
BRANCH   6  25
ATOM     25  O   UNL     1      32.328 -13.217 -24.477  0.00  0.00    -0.444 OA
BRANCH  25  27
ATOM     26  O   UNL     1      32.425 -14.685 -26.258  0.00  0.00    -0.250 OA
ATOM     27  C   UNL     1      32.721 -13.626 -25.720  0.00  0.00    +0.318 C 
ATOM     28  C   UNL     1      33.586 -12.577 -26.351  0.00  0.00    +0.121 C 
ENDBRANCH  25  27
ENDBRANCH   6  25
TORSDOF 6
ENDMDL
MODEL 2
REMARK VINA RESULT:      -8.5      0.568      1.019
REMARK  Name = 442151
REMARK  6 active torsions:
REMARK  status: ('A' for Active; 'I' for Inactive)
REMARK    1  A    between atoms: C_5  and  O_18
REMARK    2  A    between atoms: C_6  and  O_25
REMARK    3  A    between atoms: O_18  and  C_20
REMARK    4  A    between atoms: C_20  and  C_21
REMARK    5  A    between atoms: C_21  and  C_23
REMARK    6  A    between atoms: O_25  and  C_27
REMARK                            x       y       z     vdW  Elec       q    Type
REMARK                         _______ _______ _______ _____ _____    ______ ____
ROOT
ATOM      1  O   UNL     1      32.316 -12.686 -20.735  0.00  0.00    -0.479 OA
ATOM      2  O   UNL     1      34.345 -15.473 -24.171  0.00  0.00    -0.421 OA
ATOM      3  O   UNL     1      35.289 -16.838 -25.749  0.00  0.00    -0.244 OA
ATOM      4  C   UNL     1      32.049 -11.634 -21.683  0.00  0.00    +0.174 C 
ATOM      5  C   UNL     1      33.153 -11.561 -22.761  0.00  0.00    +0.249 C 
ATOM      6  C   UNL     1      33.336 -12.892 -23.491  0.00  0.00    +0.240 C 
ATOM      7  C   UNL     1      33.346 -14.026 -22.507  0.00  0.00    +0.090 C 
ATOM      8  C   UNL     1      32.840 -13.858 -21.214  0.00  0.00    +0.141 C 
ATOM      9  C   UNL     1      32.048 -10.335 -20.855  0.00  0.00    +0.048 C 
ATOM     10  C   UNL     1      30.629 -11.828 -22.240  0.00  0.00    +0.048 C 
ATOM     11  C   UNL     1      33.847 -15.290 -22.858  0.00  0.00    +0.151 C 
ATOM     12  C   UNL     1      32.864 -14.918 -20.300  0.00  0.00    +0.037 C 
ATOM     13  C   UNL     1      33.869 -16.357 -21.961  0.00  0.00    +0.035 C 
ATOM     14  C   UNL     1      33.375 -16.164 -20.671  0.00  0.00    +0.006 C 
ATOM     15  C   UNL     1      34.406 -17.637 -22.393  0.00  0.00    +0.010 C 
ATOM     16  C   UNL     1      34.861 -16.687 -24.609  0.00  0.00    +0.346 C 
ATOM     17  C   UNL     1      34.870 -17.790 -23.634  0.00  0.00    +0.082 C 
ENDROOT
BRANCH   5  18
ATOM     18  O   UNL     1      32.906 -10.539 -23.719  0.00  0.00    -0.444 OA
BRANCH  18  20
ATOM     19  O   UNL     1      35.081  -9.805 -23.951  0.00  0.00    -0.250 OA
ATOM     20  C   UNL     1      33.882  -9.584 -23.838  0.00  0.00    +0.317 C 
BRANCH  20  21
ATOM     21  C   UNL     1      33.261  -8.199 -23.780  0.00  0.00    +0.099 C 
ATOM     22  C   UNL     1      33.770  -7.497 -22.525  0.00  0.00    +0.012 C 
BRANCH  21  23
ATOM     23  C   UNL     1      31.728  -8.270 -23.785  0.00  0.00    +0.011 C 
ATOM     24  C   UNL     1      31.083  -7.045 -23.146  0.00  0.00    +0.001 C 
ENDBRANCH  21  23
ENDBRANCH  20  21
ENDBRANCH  18  20
ENDBRANCH   5  18
BRANCH   6  25
ATOM     25  O   UNL     1      32.288 -13.122 -24.427  0.00  0.00    -0.444 OA
BRANCH  25  27
ATOM     26  O   UNL     1      32.347 -14.504 -26.277  0.00  0.00    -0.250 OA
ATOM     27  C   UNL     1      32.684 -13.489 -25.682  0.00  0.00    +0.318 C 
ATOM     28  C   UNL     1      33.609 -12.454 -26.247  0.00  0.00    +0.121 C 
ENDBRANCH  25  27
ENDBRANCH   6  25
TORSDOF 6
ENDMDL
MODEL 3
REMARK VINA RESULT:      -7.9      9.889     14.142
REMARK  Name = 442151
REMARK  6 active torsions:
REMARK  status: ('A' for Active; 'I' for Inactive)
REMARK    1  A    between atoms: C_5  and  O_18
REMARK    2  A    between atoms: C_6  and  O_25
REMARK    3  A    between atoms: O_18  and  C_20
REMARK    4  A    between atoms: C_20  and  C_21
REMARK    5  A    between atoms: C_21  and  C_23
REMARK    6  A    between atoms: O_25  and  C_27
REMARK                            x       y       z     vdW  Elec       q    Type
REMARK                         _______ _______ _______ _____ _____    ______ ____
ROOT
ATOM      1  O   UNL     1      32.507 -23.902 -15.219  0.00  0.00    -0.479 OA
ATOM      2  O   UNL     1      35.604 -22.207 -18.569  0.00  0.00    -0.421 OA
ATOM      3  O   UNL     1      37.011 -21.372 -20.172  0.00  0.00    -0.244 OA
ATOM      4  C   UNL     1      33.589 -24.290 -14.350  0.00  0.00    +0.174 C 
ATOM      5  C   UNL     1      34.818 -24.754 -15.163  0.00  0.00    +0.249 C 
ATOM      6  C   UNL     1      35.293 -23.689 -16.151  0.00  0.00    +0.240 C 
ATOM      7  C   UNL     1      34.121 -23.090 -16.873  0.00  0.00    +0.090 C 
ATOM      8  C   UNL     1      32.823 -23.227 -16.369  0.00  0.00    +0.141 C 
ATOM      9  C   UNL     1      33.040 -25.468 -13.523  0.00  0.00    +0.048 C 
ATOM     10  C   UNL     1      33.872 -23.133 -13.377  0.00  0.00    +0.048 C 
ATOM     11  C   UNL     1      34.291 -22.364 -18.063  0.00  0.00    +0.151 C 
ATOM     12  C   UNL     1      31.735 -22.675 -17.056  0.00  0.00    +0.037 C 
ATOM     13  C   UNL     1      33.217 -21.802 -18.751  0.00  0.00    +0.035 C 
ATOM     14  C   UNL     1      31.929 -21.964 -18.241  0.00  0.00    +0.006 C 
ATOM     15  C   UNL     1      33.468 -21.066 -19.979  0.00  0.00    +0.010 C 
ATOM     16  C   UNL     1      35.871 -21.506 -19.739  0.00  0.00    +0.346 C 
ATOM     17  C   UNL     1      34.712 -20.928 -20.441  0.00  0.00    +0.082 C 
ENDROOT
BRANCH   5  18
ATOM     18  O   UNL     1      35.907 -25.130 -14.329  0.00  0.00    -0.444 OA
BRANCH  18  20
ATOM     19  O   UNL     1      36.366 -26.924 -15.706  0.00  0.00    -0.250 OA
ATOM     20  C   UNL     1      36.648 -26.200 -14.760  0.00  0.00    +0.317 C 
BRANCH  20  21
ATOM     21  C   UNL     1      37.865 -26.379 -13.868  0.00  0.00    +0.099 C 
ATOM     22  C   UNL     1      37.806 -25.333 -12.759  0.00  0.00    +0.012 C 
BRANCH  21  23
ATOM     23  C   UNL     1      39.170 -26.257 -14.668  0.00  0.00    +0.011 C 
ATOM     24  C   UNL     1      40.250 -25.493 -13.912  0.00  0.00    +0.001 C 
ENDBRANCH  21  23
ENDBRANCH  20  21
ENDBRANCH  18  20
ENDBRANCH   5  18
BRANCH   6  25
ATOM     25  O   UNL     1      35.993 -22.640 -15.490  0.00  0.00    -0.444 OA
BRANCH  25  27
ATOM     26  O   UNL     1      38.213 -23.262 -15.635  0.00  0.00    -0.250 OA
ATOM     27  C   UNL     1      37.300 -22.478 -15.854  0.00  0.00    +0.318 C 
ATOM     28  C   UNL     1      37.468 -21.176 -16.578  0.00  0.00    +0.121 C 
ENDBRANCH  25  27
ENDBRANCH   6  25
TORSDOF 6
ENDMDL
MODEL 4
REMARK VINA RESULT:      -7.6     11.412     15.105
REMARK  Name = 442151
REMARK  6 active torsions:
REMARK  status: ('A' for Active; 'I' for Inactive)
REMARK    1  A    between atoms: C_5  and  O_18
REMARK    2  A    between atoms: C_6  and  O_25
REMARK    3  A    between atoms: O_18  and  C_20
REMARK    4  A    between atoms: C_20  and  C_21
REMARK    5  A    between atoms: C_21  and  C_23
REMARK    6  A    between atoms: O_25  and  C_27
REMARK                            x       y       z     vdW  Elec       q    Type
REMARK                         _______ _______ _______ _____ _____    ______ ____
ROOT
ATOM      1  O   UNL     1      34.266 -24.524 -12.403  0.00  0.00    -0.479 OA
ATOM      2  O   UNL     1      33.517 -23.055 -16.982  0.00  0.00    -0.421 OA
ATOM      3  O   UNL     1      33.103 -22.344 -19.119  0.00  0.00    -0.244 OA
ATOM      4  C   UNL     1      35.696 -24.500 -12.582  0.00  0.00    +0.174 C 
ATOM      5  C   UNL     1      36.083 -24.893 -14.025  0.00  0.00    +0.249 C 
ATOM      6  C   UNL     1      35.409 -24.001 -15.067  0.00  0.00    +0.240 C 
ATOM      7  C   UNL     1      33.960 -23.807 -14.725  0.00  0.00    +0.090 C 
ATOM      8  C   UNL     1      33.487 -24.071 -13.435  0.00  0.00    +0.141 C 
ATOM      9  C   UNL     1      36.243 -25.550 -11.595  0.00  0.00    +0.048 C 
ATOM     10  C   UNL     1      36.221 -23.126 -12.134  0.00  0.00    +0.048 C 
ATOM     11  C   UNL     1      33.041 -23.342 -15.680  0.00  0.00    +0.151 C 
ATOM     12  C   UNL     1      32.131 -23.898 -13.129  0.00  0.00    +0.037 C 
ATOM     13  C   UNL     1      31.692 -23.157 -15.385  0.00  0.00    +0.035 C 
ATOM     14  C   UNL     1      31.236 -23.442 -14.098  0.00  0.00    +0.006 C 
ATOM     15  C   UNL     1      30.798 -22.675 -16.426  0.00  0.00    +0.010 C 
ATOM     16  C   UNL     1      32.684 -22.591 -17.993  0.00  0.00    +0.346 C 
ATOM     17  C   UNL     1      31.264 -22.410 -17.647  0.00  0.00    +0.082 C 
ENDROOT
BRANCH   5  18
ATOM     18  O   UNL     1      37.490 -24.864 -14.233  0.00  0.00    -0.444 OA
BRANCH  18  20
ATOM     19  O   UNL     1      37.719 -27.127 -14.623  0.00  0.00    -0.250 OA
ATOM     20  C   UNL     1      38.130 -26.074 -14.153  0.00  0.00    +0.317 C 
BRANCH  20  21
ATOM     21  C   UNL     1      39.421 -25.926 -13.366  0.00  0.00    +0.099 C 
ATOM     22  C   UNL     1      39.460 -24.523 -12.768  0.00  0.00    +0.012 C 
BRANCH  21  23
ATOM     23  C   UNL     1      40.650 -26.178 -14.251  0.00  0.00    +0.011 C 
ATOM     24  C   UNL     1      40.598 -25.401 -15.561  0.00  0.00    +0.001 C 
ENDBRANCH  21  23
ENDBRANCH  20  21
ENDBRANCH  18  20
ENDBRANCH   5  18
BRANCH   6  25
ATOM     25  O   UNL     1      36.027 -22.720 -15.135  0.00  0.00    -0.444 OA
BRANCH  25  27
ATOM     26  O   UNL     1      38.180 -22.846 -15.963  0.00  0.00    -0.250 OA
ATOM     27  C   UNL     1      36.993 -22.577 -16.091  0.00  0.00    +0.318 C 
ATOM     28  C   UNL     1      36.387 -22.034 -17.350  0.00  0.00    +0.121 C 
ENDBRANCH  25  27
ENDBRANCH   6  25
TORSDOF 6
ENDMDL
MODEL 5
REMARK VINA RESULT:      -7.6     11.110     13.579
REMARK  Name = 442151
REMARK  6 active torsions:
REMARK  status: ('A' for Active; 'I' for Inactive)
REMARK    1  A    between atoms: C_5  and  O_18
REMARK    2  A    between atoms: C_6  and  O_25
REMARK    3  A    between atoms: O_18  and  C_20
REMARK    4  A    between atoms: C_20  and  C_21
REMARK    5  A    between atoms: C_21  and  C_23
REMARK    6  A    between atoms: O_25  and  C_27
REMARK                            x       y       z     vdW  Elec       q    Type
REMARK                         _______ _______ _______ _____ _____    ______ ____
ROOT
ATOM      1  O   UNL     1      32.407 -24.333 -13.184  0.00  0.00    -0.479 OA
ATOM      2  O   UNL     1      35.355 -22.425 -16.554  0.00  0.00    -0.421 OA
ATOM      3  O   UNL     1      36.795 -21.553 -18.107  0.00  0.00    -0.244 OA
ATOM      4  C   UNL     1      31.268 -24.240 -14.063  0.00  0.00    +0.174 C 
ATOM      5  C   UNL     1      31.369 -22.997 -14.975  0.00  0.00    +0.249 C 
ATOM      6  C   UNL     1      32.663 -22.980 -15.789  0.00  0.00    +0.240 C 
ATOM      7  C   UNL     1      33.830 -23.345 -14.916  0.00  0.00    +0.090 C 
ATOM      8  C   UNL     1      33.633 -23.992 -13.691  0.00  0.00    +0.141 C 
ATOM      9  C   UNL     1      30.050 -24.100 -13.131  0.00  0.00    +0.048 C 
ATOM     10  C   UNL     1      31.124 -25.572 -14.818  0.00  0.00    +0.048 C 
ATOM     11  C   UNL     1      35.148 -23.063 -15.307  0.00  0.00    +0.151 C 
ATOM     12  C   UNL     1      34.726 -24.316 -12.879  0.00  0.00    +0.037 C 
ATOM     13  C   UNL     1      36.246 -23.390 -14.512  0.00  0.00    +0.035 C 
ATOM     14  C   UNL     1      36.028 -24.019 -13.287  0.00  0.00    +0.006 C 
ATOM     15  C   UNL     1      37.583 -23.065 -14.980  0.00  0.00    +0.010 C 
ATOM     16  C   UNL     1      36.623 -22.105 -17.025  0.00  0.00    +0.346 C 
ATOM     17  C   UNL     1      37.759 -22.463 -16.158  0.00  0.00    +0.082 C 
ENDROOT
BRANCH   5  18
ATOM     18  O   UNL     1      30.264 -22.888 -15.864  0.00  0.00    -0.444 OA
BRANCH  18  20
ATOM     19  O   UNL     1      29.119 -21.377 -14.549  0.00  0.00    -0.250 OA
ATOM     20  C   UNL     1      29.136 -22.306 -15.345  0.00  0.00    +0.317 C 
BRANCH  20  21
ATOM     21  C   UNL     1      27.899 -23.006 -15.883  0.00  0.00    +0.099 C 
ATOM     22  C   UNL     1      28.218 -23.545 -17.274  0.00  0.00    +0.012 C 
BRANCH  21  23
ATOM     23  C   UNL     1      26.692 -22.057 -15.927  0.00  0.00    +0.011 C 
ATOM     24  C   UNL     1      26.370 -21.586 -17.341  0.00  0.00    +0.001 C 
ENDBRANCH  21  23
ENDBRANCH  20  21
ENDBRANCH  18  20
ENDBRANCH   5  18
BRANCH   6  25
ATOM     25  O   UNL     1      32.610 -23.904 -16.872  0.00  0.00    -0.444 OA
BRANCH  25  27
ATOM     26  O   UNL     1      33.809 -24.059 -18.840  0.00  0.00    -0.250 OA
ATOM     27  C   UNL     1      33.087 -23.444 -18.067  0.00  0.00    +0.318 C 
ATOM     28  C   UNL     1      32.593 -22.050 -18.309  0.00  0.00    +0.121 C 
ENDBRANCH  25  27
ENDBRANCH   6  25
TORSDOF 6
ENDMDL
MODEL 6
REMARK VINA RESULT:      -7.0      1.604      6.519
REMARK  Name = 442151
REMARK  6 active torsions:
REMARK  status: ('A' for Active; 'I' for Inactive)
REMARK    1  A    between atoms: C_5  and  O_18
REMARK    2  A    between atoms: C_6  and  O_25
REMARK    3  A    between atoms: O_18  and  C_20
REMARK    4  A    between atoms: C_20  and  C_21
REMARK    5  A    between atoms: C_21  and  C_23
REMARK    6  A    between atoms: O_25  and  C_27
REMARK                            x       y       z     vdW  Elec       q    Type
REMARK                         _______ _______ _______ _____ _____    ______ ____
ROOT
ATOM      1  O   UNL     1      32.362 -13.367 -21.067  0.00  0.00    -0.479 OA
ATOM      2  O   UNL     1      32.606  -9.083 -23.364  0.00  0.00    -0.421 OA
ATOM      3  O   UNL     1      32.705  -7.036 -24.387  0.00  0.00    -0.244 OA
ATOM      4  C   UNL     1      33.159 -14.007 -22.083  0.00  0.00    +0.174 C 
ATOM      5  C   UNL     1      32.882 -13.398 -23.475  0.00  0.00    +0.249 C 
ATOM      6  C   UNL     1      33.114 -11.887 -23.501  0.00  0.00    +0.240 C 
ATOM      7  C   UNL     1      32.504 -11.248 -22.287  0.00  0.00    +0.090 C 
ATOM      8  C   UNL     1      32.176 -12.013 -21.163  0.00  0.00    +0.141 C 
ATOM      9  C   UNL     1      32.720 -15.484 -22.068  0.00  0.00    +0.048 C 
ATOM     10  C   UNL     1      34.633 -13.958 -21.650  0.00  0.00    +0.048 C 
ATOM     11  C   UNL     1      32.260  -9.866 -22.237  0.00  0.00    +0.151 C 
ATOM     12  C   UNL     1      31.597 -11.409 -20.040  0.00  0.00    +0.037 C 
ATOM     13  C   UNL     1      31.692  -9.251 -21.121  0.00  0.00    +0.035 C 
ATOM     14  C   UNL     1      31.357 -10.034 -20.017  0.00  0.00    +0.006 C 
ATOM     15  C   UNL     1      31.465  -7.816 -21.141  0.00  0.00    +0.010 C 
ATOM     16  C   UNL     1      32.402  -7.709 -23.407  0.00  0.00    +0.346 C 
ATOM     17  C   UNL     1      31.798  -7.094 -22.213  0.00  0.00    +0.082 C 
ENDROOT
BRANCH   5  18
ATOM     18  O   UNL     1      33.667 -14.003 -24.495  0.00  0.00    -0.444 OA
BRANCH  18  20
ATOM     19  O   UNL     1      32.034 -13.824 -26.116  0.00  0.00    -0.250 OA
ATOM     20  C   UNL     1      32.984 -14.410 -25.613  0.00  0.00    +0.317 C 
BRANCH  20  21
ATOM     21  C   UNL     1      33.561 -15.718 -26.125  0.00  0.00    +0.099 C 
ATOM     22  C   UNL     1      32.404 -16.625 -26.536  0.00  0.00    +0.012 C 
BRANCH  21  23
ATOM     23  C   UNL     1      34.440 -16.398 -25.065  0.00  0.00    +0.011 C 
ATOM     24  C   UNL     1      34.341 -17.918 -25.110  0.00  0.00    +0.001 C 
ENDBRANCH  21  23
ENDBRANCH  20  21
ENDBRANCH  18  20
ENDBRANCH   5  18
BRANCH   6  25
ATOM     25  O   UNL     1      34.503 -11.573 -23.521  0.00  0.00    -0.444 OA
BRANCH  25  27
ATOM     26  O   UNL     1      35.408  -9.548 -24.167  0.00  0.00    -0.250 OA
ATOM     27  C   UNL     1      34.883 -10.623 -24.426  0.00  0.00    +0.318 C 
ATOM     28  C   UNL     1      34.563 -11.087 -25.815  0.00  0.00    +0.121 C 
ENDBRANCH  25  27
ENDBRANCH   6  25
TORSDOF 6
ENDMDL
MODEL 7
REMARK VINA RESULT:      -7.0      1.662      2.859
REMARK  Name = 442151
REMARK  6 active torsions:
REMARK  status: ('A' for Active; 'I' for Inactive)
REMARK    1  A    between atoms: C_5  and  O_18
REMARK    2  A    between atoms: C_6  and  O_25
REMARK    3  A    between atoms: O_18  and  C_20
REMARK    4  A    between atoms: C_20  and  C_21
REMARK    5  A    between atoms: C_21  and  C_23
REMARK    6  A    between atoms: O_25  and  C_27
REMARK                            x       y       z     vdW  Elec       q    Type
REMARK                         _______ _______ _______ _____ _____    ______ ____
ROOT
ATOM      1  O   UNL     1      31.537  -9.597 -21.459  0.00  0.00    -0.479 OA
ATOM      2  O   UNL     1      34.026 -13.387 -23.230  0.00  0.00    -0.421 OA
ATOM      3  O   UNL     1      35.161 -15.211 -24.024  0.00  0.00    -0.244 OA
ATOM      4  C   UNL     1      31.894  -8.778 -22.590  0.00  0.00    +0.174 C 
ATOM      5  C   UNL     1      33.309  -9.123 -23.105  0.00  0.00    +0.249 C 
ATOM      6  C   UNL     1      33.448 -10.603 -23.464  0.00  0.00    +0.240 C 
ATOM      7  C   UNL     1      32.828 -11.457 -22.395  0.00  0.00    +0.090 C 
ATOM      8  C   UNL     1      31.923 -10.912 -21.478  0.00  0.00    +0.141 C 
ATOM      9  C   UNL     1      31.874  -7.331 -22.062  0.00  0.00    +0.048 C 
ATOM     10  C   UNL     1      30.786  -8.899 -23.650  0.00  0.00    +0.048 C 
ATOM     11  C   UNL     1      33.125 -12.826 -22.294  0.00  0.00    +0.151 C 
ATOM     12  C   UNL     1      31.360 -11.714 -20.478  0.00  0.00    +0.037 C 
ATOM     13  C   UNL     1      32.563 -13.637 -21.309  0.00  0.00    +0.035 C 
ATOM     14  C   UNL     1      31.676 -13.071 -20.393  0.00  0.00    +0.006 C 
ATOM     15  C   UNL     1      32.919 -15.045 -21.262  0.00  0.00    +0.010 C 
ATOM     16  C   UNL     1      34.380 -14.731 -23.209  0.00  0.00    +0.346 C 
ATOM     17  C   UNL     1      33.770 -15.557 -22.153  0.00  0.00    +0.082 C 
ENDROOT
BRANCH   5  18
ATOM     18  O   UNL     1      33.681  -8.338 -24.230  0.00  0.00    -0.444 OA
BRANCH  18  20
ATOM     19  O   UNL     1      35.484  -7.357 -23.177  0.00  0.00    -0.250 OA
ATOM     20  C   UNL     1      34.564  -7.319 -23.982  0.00  0.00    +0.317 C 
BRANCH  20  21
ATOM     21  C   UNL     1      34.215  -6.112 -24.837  0.00  0.00    +0.099 C 
ATOM     22  C   UNL     1      32.717  -6.145 -25.126  0.00  0.00    +0.012 C 
BRANCH  21  23
ATOM     23  C   UNL     1      35.024  -6.094 -26.141  0.00  0.00    +0.011 C 
ATOM     24  C   UNL     1      34.703  -4.886 -27.013  0.00  0.00    +0.001 C 
ENDBRANCH  21  23
ENDBRANCH  20  21
ENDBRANCH  18  20
ENDBRANCH   5  18
BRANCH   6  25
ATOM     25  O   UNL     1      32.809 -10.901 -24.701  0.00  0.00    -0.444 OA
BRANCH  25  27
ATOM     26  O   UNL     1      33.272 -12.444 -26.357  0.00  0.00    -0.250 OA
ATOM     27  C   UNL     1      33.593 -11.503 -25.644  0.00  0.00    +0.318 C 
ATOM     28  C   UNL     1      34.936 -10.838 -25.688  0.00  0.00    +0.121 C 
ENDBRANCH  25  27
ENDBRANCH   6  25
TORSDOF 6
ENDMDL
MODEL 8
REMARK VINA RESULT:      -7.0      1.813      7.213
REMARK  Name = 442151
REMARK  6 active torsions:
REMARK  status: ('A' for Active; 'I' for Inactive)
REMARK    1  A    between atoms: C_5  and  O_18
REMARK    2  A    between atoms: C_6  and  O_25
REMARK    3  A    between atoms: O_18  and  C_20
REMARK    4  A    between atoms: C_20  and  C_21
REMARK    5  A    between atoms: C_21  and  C_23
REMARK    6  A    between atoms: O_25  and  C_27
REMARK                            x       y       z     vdW  Elec       q    Type
REMARK                         _______ _______ _______ _____ _____    ______ ____
ROOT
ATOM      1  O   UNL     1      34.454 -13.003 -25.135  0.00  0.00    -0.479 OA
ATOM      2  O   UNL     1      33.067  -9.477 -22.080  0.00  0.00    -0.421 OA
ATOM      3  O   UNL     1      32.425  -7.773 -20.691  0.00  0.00    -0.244 OA
ATOM      4  C   UNL     1      33.796 -14.010 -24.342  0.00  0.00    +0.174 C 
ATOM      5  C   UNL     1      33.855 -13.662 -22.838  0.00  0.00    +0.249 C 
ATOM      6  C   UNL     1      33.258 -12.286 -22.540  0.00  0.00    +0.240 C 
ATOM      7  C   UNL     1      33.743 -11.281 -23.544  0.00  0.00    +0.090 C 
ATOM      8  C   UNL     1      34.297 -11.694 -24.761  0.00  0.00    +0.141 C 
ATOM      9  C   UNL     1      34.584 -15.308 -24.604  0.00  0.00    +0.048 C 
ATOM     10  C   UNL     1      32.374 -14.213 -24.892  0.00  0.00    +0.048 C 
ATOM     11  C   UNL     1      33.643  -9.902 -23.302  0.00  0.00    +0.151 C 
ATOM     12  C   UNL     1      34.758 -10.749 -25.686  0.00  0.00    +0.037 C 
ATOM     13  C   UNL     1      34.089  -8.951 -24.218  0.00  0.00    +0.035 C 
ATOM     14  C   UNL     1      34.654  -9.383 -25.418  0.00  0.00    +0.006 C 
ATOM     15  C   UNL     1      33.955  -7.540 -23.898  0.00  0.00    +0.010 C 
ATOM     16  C   UNL     1      32.926  -8.134 -21.751  0.00  0.00    +0.346 C 
ATOM     17  C   UNL     1      33.410  -7.158 -22.742  0.00  0.00    +0.082 C 
ENDROOT
BRANCH   5  18
ATOM     18  O   UNL     1      33.200 -14.634 -22.032  0.00  0.00    -0.444 OA
BRANCH  18  20
ATOM     19  O   UNL     1      34.693 -14.869 -20.290  0.00  0.00    -0.250 OA
ATOM     20  C   UNL     1      34.006 -15.347 -21.183  0.00  0.00    +0.317 C 
BRANCH  20  21
ATOM     21  C   UNL     1      33.946 -16.825 -21.530  0.00  0.00    +0.099 C 
ATOM     22  C   UNL     1      32.737 -17.434 -20.827  0.00  0.00    +0.012 C 
BRANCH  21  23
ATOM     23  C   UNL     1      35.237 -17.549 -21.125  0.00  0.00    +0.011 C 
ATOM     24  C   UNL     1      35.864 -18.319 -22.282  0.00  0.00    +0.001 C 
ENDBRANCH  21  23
ENDBRANCH  20  21
ENDBRANCH  18  20
ENDBRANCH   5  18
BRANCH   6  25
ATOM     25  O   UNL     1      31.835 -12.314 -22.588  0.00  0.00    -0.444 OA
BRANCH  25  27
ATOM     26  O   UNL     1      30.209 -11.071 -21.515  0.00  0.00    -0.250 OA
ATOM     27  C   UNL     1      31.195 -11.797 -21.497  0.00  0.00    +0.318 C 
ATOM     28  C   UNL     1      31.880 -12.250 -20.243  0.00  0.00    +0.121 C 
ENDBRANCH  25  27
ENDBRANCH   6  25
TORSDOF 6
ENDMDL
MODEL 9
REMARK VINA RESULT:      -7.0      3.182      6.067
REMARK  Name = 442151
REMARK  6 active torsions:
REMARK  status: ('A' for Active; 'I' for Inactive)
REMARK    1  A    between atoms: C_5  and  O_18
REMARK    2  A    between atoms: C_6  and  O_25
REMARK    3  A    between atoms: O_18  and  C_20
REMARK    4  A    between atoms: C_20  and  C_21
REMARK    5  A    between atoms: C_21  and  C_23
REMARK    6  A    between atoms: O_25  and  C_27
REMARK                            x       y       z     vdW  Elec       q    Type
REMARK                         _______ _______ _______ _____ _____    ______ ____
ROOT
ATOM      1  O   UNL     1      34.471  -8.479 -25.192  0.00  0.00    -0.479 OA
ATOM      2  O   UNL     1      31.963 -10.870 -21.774  0.00  0.00    -0.421 OA
ATOM      3  O   UNL     1      30.813 -12.053 -20.185  0.00  0.00    -0.244 OA
ATOM      4  C   UNL     1      34.263  -7.218 -24.525  0.00  0.00    +0.174 C 
ATOM      5  C   UNL     1      32.885  -7.177 -23.828  0.00  0.00    +0.249 C 
ATOM      6  C   UNL     1      32.703  -8.330 -22.840  0.00  0.00    +0.240 C 
ATOM      7  C   UNL     1      33.177  -9.617 -23.451  0.00  0.00    +0.090 C 
ATOM      8  C   UNL     1      34.021  -9.612 -24.567  0.00  0.00    +0.141 C 
ATOM      9  C   UNL     1      34.309  -6.159 -25.643  0.00  0.00    +0.048 C 
ATOM     10  C   UNL     1      35.456  -6.957 -23.591  0.00  0.00    +0.048 C 
ATOM     11  C   UNL     1      32.802 -10.859 -22.914  0.00  0.00    +0.151 C 
ATOM     12  C   UNL     1      34.448 -10.818 -25.136  0.00  0.00    +0.037 C 
ATOM     13  C   UNL     1      33.228 -12.066 -23.467  0.00  0.00    +0.035 C 
ATOM     14  C   UNL     1      34.055 -12.041 -24.589  0.00  0.00    +0.006 C 
ATOM     15  C   UNL     1      32.797 -13.315 -22.859  0.00  0.00    +0.010 C 
ATOM     16  C   UNL     1      31.540 -12.050 -21.174  0.00  0.00    +0.346 C 
ATOM     17  C   UNL     1      32.006 -13.306 -21.785  0.00  0.00    +0.082 C 
ENDROOT
BRANCH   5  18
ATOM     18  O   UNL     1      32.660  -5.947 -23.150  0.00  0.00    -0.444 OA
BRANCH  18  20
ATOM     19  O   UNL     1      30.363  -5.752 -23.257  0.00  0.00    -0.250 OA
ATOM     20  C   UNL     1      31.487  -5.306 -23.451  0.00  0.00    +0.317 C 
BRANCH  20  21
ATOM     21  C   UNL     1      31.782  -3.961 -24.094  0.00  0.00    +0.099 C 
ATOM     22  C   UNL     1      31.105  -2.874 -23.264  0.00  0.00    +0.012 C 
BRANCH  21  23
ATOM     23  C   UNL     1      31.302  -3.917 -25.551  0.00  0.00    +0.011 C 
ATOM     24  C   UNL     1      32.136  -2.977 -26.414  0.00  0.00    +0.001 C 
ENDBRANCH  21  23
ENDBRANCH  20  21
ENDBRANCH  18  20
ENDBRANCH   5  18
BRANCH   6  25
ATOM     25  O   UNL     1      33.438  -8.108 -21.640  0.00  0.00    -0.444 OA
BRANCH  25  27
ATOM     26  O   UNL     1      32.499  -8.994 -19.724  0.00  0.00    -0.250 OA
ATOM     27  C   UNL     1      32.698  -8.062 -20.492  0.00  0.00    +0.318 C 
ATOM     28  C   UNL     1      32.151  -6.681 -20.295  0.00  0.00    +0.121 C 
ENDBRANCH  25  27
ENDBRANCH   6  25
TORSDOF 6
ENDMDL
