MODEL 1
REMARK VINA RESULT:     -11.6      0.000      0.000
REMARK  Name = 11223423
REMARK  3 active torsions:
REMARK  status: ('A' for Active; 'I' for Inactive)
REMARK    1  A    between atoms: N_1  and  C_23
REMARK    2  A    between atoms: C_7  and  N_12
REMARK    3  A    between atoms: C_29  and  O_30
REMARK                            x       y       z     vdW  Elec       q    Type
REMARK                         _______ _______ _______ _____ _____    ______ ____
ROOT
ATOM      1  N   UNL     1      31.827  -9.505 -22.231  0.00  0.00    -0.263 N 
ATOM      2  N   UNL     1      33.254 -10.323 -24.103  0.00  0.00    -0.395 NA
ATOM      3  C   UNL     1      31.675 -11.648 -21.082  0.00  0.00    +0.053 C 
ATOM      4  C   UNL     1      32.525 -11.725 -22.299  0.00  0.00    +0.035 C 
ATOM      5  C   UNL     1      31.483 -10.130 -20.940  0.00  0.00    +0.103 C 
ATOM      6  C   UNL     1      32.569 -10.496 -22.955  0.00  0.00    +0.183 C 
ATOM      7  C   UNL     1      33.179 -12.827 -22.819  0.00  0.00    +0.058 C 
ATOM      8  C   UNL     1      33.890 -12.665 -24.000  0.00  0.00    +0.097 C 
ATOM      9  C   UNL     1      33.898 -11.410 -24.596  0.00  0.00    +0.094 C 
ATOM     10  C   UNL     1      34.654 -11.213 -25.868  0.00  0.00    +0.062 C 
ENDROOT
BRANCH   7  12
ATOM     11  O   UNL     1      35.333 -17.242 -23.988  0.00  0.00    -0.252 OA
ATOM     12  N   UNL     1      33.131 -14.059 -22.195  0.00  0.00    -0.191 N 
ATOM     13  N   UNL     1      34.028 -17.412 -21.983  0.00  0.00    -0.225 N 
ATOM     14  N   UNL     1      33.806 -15.116 -22.695  0.00  0.00    -0.159 NA
ATOM     15  N   UNL     1      35.165 -19.214 -22.780  0.00  0.00    -0.287 N 
ATOM     16  C   UNL     1      33.522 -16.102 -21.841  0.00  0.00    +0.158 C 
ATOM     17  C   UNL     1      33.682 -18.535 -21.121  0.00  0.00    +0.122 C 
ATOM     18  C   UNL     1      32.436 -14.360 -21.053  0.00  0.00    +0.092 C 
ATOM     19  C   UNL     1      34.594 -19.667 -21.547  0.00  0.00    +0.113 C 
ATOM     20  C   UNL     1      32.672 -15.688 -20.798  0.00  0.00    +0.054 C 
ATOM     21  C   UNL     1      34.889 -17.857 -23.027  0.00  0.00    +0.309 C 
ATOM     22  H   UNL     1      35.691 -19.786 -23.385  0.00  0.00    +0.151 HD
ENDBRANCH   7  12
BRANCH   1  23
ATOM     23  C   UNL     1      31.566  -8.160 -22.509  0.00  0.00    +0.050 C 
ATOM     24  C   UNL     1      31.963  -7.119 -21.634  0.00  0.00    -0.005 C 
ATOM     25  C   UNL     1      30.886  -7.786 -23.692  0.00  0.00    +0.018 C 
ATOM     26  C   UNL     1      31.693  -5.782 -21.927  0.00  0.00    +0.034 C 
ATOM     27  C   UNL     1      32.685  -7.450 -20.369  0.00  0.00    +0.032 C 
ATOM     28  C   UNL     1      30.617  -6.450 -23.985  0.00  0.00    +0.038 C 
ATOM     29  C   UNL     1      31.021  -5.448 -23.102  0.00  0.00    +0.139 C 
BRANCH  29  30
ATOM     30  O   UNL     1      30.758  -4.143 -23.388  0.00  0.00    -0.471 OA
ATOM     31  C   UNL     1      31.202  -3.653 -24.652  0.00  0.00    +0.252 C 
ENDBRANCH  29  30
ENDBRANCH   1  23
TORSDOF 3
ENDMDL
MODEL 2
REMARK VINA RESULT:     -11.6      2.331      4.188
REMARK  Name = 11223423
REMARK  3 active torsions:
REMARK  status: ('A' for Active; 'I' for Inactive)
REMARK    1  A    between atoms: N_1  and  C_23
REMARK    2  A    between atoms: C_7  and  N_12
REMARK    3  A    between atoms: C_29  and  O_30
REMARK                            x       y       z     vdW  Elec       q    Type
REMARK                         _______ _______ _______ _____ _____    ______ ____
ROOT
ATOM      1  N   UNL     1      33.102 -13.114 -22.289  0.00  0.00    -0.263 N 
ATOM      2  N   UNL     1      33.138 -14.279 -24.491  0.00  0.00    -0.395 NA
ATOM      3  C   UNL     1      34.028 -14.970 -21.011  0.00  0.00    +0.053 C 
ATOM      4  C   UNL     1      33.924 -15.285 -22.460  0.00  0.00    +0.035 C 
ATOM      5  C   UNL     1      33.743 -13.460 -21.006  0.00  0.00    +0.103 C 
ATOM      6  C   UNL     1      33.362 -14.220 -23.163  0.00  0.00    +0.183 C 
ATOM      7  C   UNL     1      34.262 -16.459 -23.107  0.00  0.00    +0.058 C 
ATOM      8  C   UNL     1      34.039 -16.536 -24.476  0.00  0.00    +0.097 C 
ATOM      9  C   UNL     1      33.483 -15.434 -25.113  0.00  0.00    +0.094 C 
ATOM     10  C   UNL     1      33.232 -15.494 -26.584  0.00  0.00    +0.062 C 
ENDROOT
BRANCH   7  12
ATOM     11  O   UNL     1      32.113 -19.976 -20.190  0.00  0.00    -0.252 OA
ATOM     12  N   UNL     1      34.801 -17.533 -22.426  0.00  0.00    -0.191 N 
ATOM     13  N   UNL     1      34.480 -20.317 -20.368  0.00  0.00    -0.225 N 
ATOM     14  N   UNL     1      34.016 -18.358 -21.700  0.00  0.00    -0.159 NA
ATOM     15  N   UNL     1      33.193 -21.745 -19.150  0.00  0.00    -0.287 N 
ATOM     16  C   UNL     1      34.877 -19.250 -21.202  0.00  0.00    +0.158 C 
ATOM     17  C   UNL     1      35.392 -21.265 -19.740  0.00  0.00    +0.122 C 
ATOM     18  C   UNL     1      36.125 -17.887 -22.393  0.00  0.00    +0.092 C 
ATOM     19  C   UNL     1      34.506 -22.315 -19.100  0.00  0.00    +0.113 C 
ATOM     20  C   UNL     1      36.204 -19.005 -21.601  0.00  0.00    +0.054 C 
ATOM     21  C   UNL     1      33.145 -20.588 -19.950  0.00  0.00    +0.309 C 
ATOM     22  H   UNL     1      32.414 -22.120 -18.680  0.00  0.00    +0.151 HD
ENDBRANCH   7  12
BRANCH   1  23
ATOM     23  C   UNL     1      32.527 -11.861 -22.528  0.00  0.00    +0.050 C 
ATOM     24  C   UNL     1      33.098 -10.930 -23.430  0.00  0.00    -0.005 C 
ATOM     25  C   UNL     1      31.338 -11.476 -21.867  0.00  0.00    +0.018 C 
ATOM     26  C   UNL     1      32.511  -9.685 -23.656  0.00  0.00    +0.034 C 
ATOM     27  C   UNL     1      34.355 -11.280 -24.159  0.00  0.00    +0.032 C 
ATOM     28  C   UNL     1      30.750 -10.231 -22.094  0.00  0.00    +0.038 C 
ATOM     29  C   UNL     1      31.337  -9.336 -22.989  0.00  0.00    +0.139 C 
BRANCH  29  30
ATOM     30  O   UNL     1      30.764  -8.122 -23.209  0.00  0.00    -0.471 OA
ATOM     31  C   UNL     1      31.454  -7.226 -24.079  0.00  0.00    +0.252 C 
ENDBRANCH  29  30
ENDBRANCH   1  23
TORSDOF 3
ENDMDL
MODEL 3
REMARK VINA RESULT:     -11.4      2.284      9.792
REMARK  Name = 11223423
REMARK  3 active torsions:
REMARK  status: ('A' for Active; 'I' for Inactive)
REMARK    1  A    between atoms: N_1  and  C_23
REMARK    2  A    between atoms: C_7  and  N_12
REMARK    3  A    between atoms: C_29  and  O_30
REMARK                            x       y       z     vdW  Elec       q    Type
REMARK                         _______ _______ _______ _____ _____    ______ ____
ROOT
ATOM      1  N   UNL     1      33.844 -16.281 -21.283  0.00  0.00    -0.263 N 
ATOM      2  N   UNL     1      33.757 -15.923 -23.747  0.00  0.00    -0.395 NA
ATOM      3  C   UNL     1      33.061 -14.054 -20.682  0.00  0.00    +0.053 C 
ATOM      4  C   UNL     1      33.112 -14.250 -22.154  0.00  0.00    +0.035 C 
ATOM      5  C   UNL     1      33.279 -15.487 -20.175  0.00  0.00    +0.103 C 
ATOM      6  C   UNL     1      33.593 -15.519 -22.471  0.00  0.00    +0.183 C 
ATOM      7  C   UNL     1      32.796 -13.344 -23.150  0.00  0.00    +0.058 C 
ATOM      8  C   UNL     1      32.958 -13.745 -24.470  0.00  0.00    +0.097 C 
ATOM      9  C   UNL     1      33.436 -15.027 -24.713  0.00  0.00    +0.094 C 
ATOM     10  C   UNL     1      33.620 -15.479 -26.124  0.00  0.00    +0.062 C 
ENDROOT
BRANCH   7  12
ATOM     11  O   UNL     1      34.640  -8.784 -24.291  0.00  0.00    -0.252 OA
ATOM     12  N   UNL     1      32.336 -12.076 -22.857  0.00  0.00    -0.191 N 
ATOM     13  N   UNL     1      32.609  -8.613 -23.026  0.00  0.00    -0.225 N 
ATOM     14  N   UNL     1      33.004 -10.981 -23.280  0.00  0.00    -0.159 NA
ATOM     15  N   UNL     1      33.692  -6.742 -23.736  0.00  0.00    -0.287 N 
ATOM     16  C   UNL     1      32.272  -9.967 -22.813  0.00  0.00    +0.158 C 
ATOM     17  C   UNL     1      31.884  -7.478 -22.470  0.00  0.00    +0.122 C 
ATOM     18  C   UNL     1      31.209 -11.770 -22.139  0.00  0.00    +0.092 C 
ATOM     19  C   UNL     1      32.500  -6.251 -23.111  0.00  0.00    +0.113 C 
ATOM     20  C   UNL     1      31.141 -10.400 -22.094  0.00  0.00    +0.054 C 
ATOM     21  C   UNL     1      33.746  -8.148 -23.749  0.00  0.00    +0.309 C 
ATOM     22  H   UNL     1      34.392  -6.163 -24.114  0.00  0.00    +0.151 HD
ENDBRANCH   7  12
BRANCH   1  23
ATOM     23  C   UNL     1      34.352 -17.571 -21.101  0.00  0.00    +0.050 C 
ATOM     24  C   UNL     1      33.511 -18.685 -20.861  0.00  0.00    -0.005 C 
ATOM     25  C   UNL     1      35.745 -17.811 -21.151  0.00  0.00    +0.018 C 
ATOM     26  C   UNL     1      34.035 -19.965 -20.681  0.00  0.00    +0.034 C 
ATOM     27  C   UNL     1      32.030 -18.495 -20.797  0.00  0.00    +0.032 C 
ATOM     28  C   UNL     1      36.269 -19.091 -20.972  0.00  0.00    +0.038 C 
ATOM     29  C   UNL     1      35.414 -20.168 -20.738  0.00  0.00    +0.139 C 
BRANCH  29  30
ATOM     30  O   UNL     1      35.926 -21.417 -20.563  0.00  0.00    -0.471 OA
ATOM     31  C   UNL     1      35.807 -21.992 -19.263  0.00  0.00    +0.252 C 
ENDBRANCH  29  30
ENDBRANCH   1  23
TORSDOF 3
ENDMDL
MODEL 4
REMARK VINA RESULT:     -11.4      1.454      1.838
REMARK  Name = 11223423
REMARK  3 active torsions:
REMARK  status: ('A' for Active; 'I' for Inactive)
REMARK    1  A    between atoms: N_1  and  C_23
REMARK    2  A    between atoms: C_7  and  N_12
REMARK    3  A    between atoms: C_29  and  O_30
REMARK                            x       y       z     vdW  Elec       q    Type
REMARK                         _______ _______ _______ _____ _____    ______ ____
ROOT
ATOM      1  N   UNL     1      31.974  -9.652 -22.823  0.00  0.00    -0.263 N 
ATOM      2  N   UNL     1      33.842  -9.594 -24.470  0.00  0.00    -0.395 NA
ATOM      3  C   UNL     1      31.889 -12.079 -22.631  0.00  0.00    +0.053 C 
ATOM      4  C   UNL     1      32.966 -11.628 -23.550  0.00  0.00    +0.035 C 
ATOM      5  C   UNL     1      31.467 -10.752 -21.981  0.00  0.00    +0.103 C 
ATOM      6  C   UNL     1      32.972 -10.240 -23.668  0.00  0.00    +0.183 C 
ATOM      7  C   UNL     1      33.854 -12.403 -24.274  0.00  0.00    +0.058 C 
ATOM      8  C   UNL     1      34.758 -11.754 -25.104  0.00  0.00    +0.097 C 
ATOM      9  C   UNL     1      34.712 -10.367 -25.167  0.00  0.00    +0.094 C 
ATOM     10  C   UNL     1      35.673  -9.647 -26.055  0.00  0.00    +0.062 C 
ENDROOT
BRANCH   7  12
ATOM     11  O   UNL     1      35.121 -15.506 -20.497  0.00  0.00    -0.252 OA
ATOM     12  N   UNL     1      33.851 -13.782 -24.186  0.00  0.00    -0.191 N 
ATOM     13  N   UNL     1      34.395 -16.731 -22.427  0.00  0.00    -0.225 N 
ATOM     14  N   UNL     1      34.233 -14.405 -23.051  0.00  0.00    -0.159 NA
ATOM     15  N   UNL     1      35.010 -17.822 -20.527  0.00  0.00    -0.287 N 
ATOM     16  C   UNL     1      34.099 -15.701 -23.345  0.00  0.00    +0.158 C 
ATOM     17  C   UNL     1      34.339 -18.156 -22.730  0.00  0.00    +0.122 C 
ATOM     18  C   UNL     1      33.484 -14.654 -25.178  0.00  0.00    +0.092 C 
ATOM     19  C   UNL     1      34.560 -18.860 -21.406  0.00  0.00    +0.113 C 
ATOM     20  C   UNL     1      33.636 -15.915 -24.657  0.00  0.00    +0.054 C 
ATOM     21  C   UNL     1      34.864 -16.543 -21.095  0.00  0.00    +0.309 C 
ATOM     22  H   UNL     1      35.379 -17.985 -19.629  0.00  0.00    +0.151 HD
ENDBRANCH   7  12
BRANCH   1  23
ATOM     23  C   UNL     1      31.592  -8.321 -22.630  0.00  0.00    +0.050 C 
ATOM     24  C   UNL     1      31.908  -7.610 -21.447  0.00  0.00    -0.005 C 
ATOM     25  C   UNL     1      30.866  -7.627 -23.626  0.00  0.00    +0.018 C 
ATOM     26  C   UNL     1      31.519  -6.283 -21.271  0.00  0.00    +0.034 C 
ATOM     27  C   UNL     1      32.673  -8.289 -20.357  0.00  0.00    +0.032 C 
ATOM     28  C   UNL     1      30.478  -6.299 -23.451  0.00  0.00    +0.038 C 
ATOM     29  C   UNL     1      30.805  -5.627 -22.273  0.00  0.00    +0.139 C 
BRANCH  29  30
ATOM     30  O   UNL     1      30.425  -4.331 -22.102  0.00  0.00    -0.471 OA
ATOM     31  C   UNL     1      31.002  -3.364 -22.978  0.00  0.00    +0.252 C 
ENDBRANCH  29  30
ENDBRANCH   1  23
TORSDOF 3
ENDMDL
MODEL 5
REMARK VINA RESULT:     -11.4      1.613      2.774
REMARK  Name = 11223423
REMARK  3 active torsions:
REMARK  status: ('A' for Active; 'I' for Inactive)
REMARK    1  A    between atoms: N_1  and  C_23
REMARK    2  A    between atoms: C_7  and  N_12
REMARK    3  A    between atoms: C_29  and  O_30
REMARK                            x       y       z     vdW  Elec       q    Type
REMARK                         _______ _______ _______ _____ _____    ______ ____
ROOT
ATOM      1  N   UNL     1      32.686  -9.775 -23.499  0.00  0.00    -0.263 N 
ATOM      2  N   UNL     1      31.593 -10.165 -21.294  0.00  0.00    -0.395 NA
ATOM      3  C   UNL     1      33.611 -12.017 -23.717  0.00  0.00    +0.053 C 
ATOM      4  C   UNL     1      32.813 -11.860 -22.473  0.00  0.00    +0.035 C 
ATOM      5  C   UNL     1      33.260 -10.725 -24.470  0.00  0.00    +0.103 C 
ATOM      6  C   UNL     1      32.323 -10.561 -22.356  0.00  0.00    +0.183 C 
ATOM      7  C   UNL     1      32.577 -12.796 -21.483  0.00  0.00    +0.058 C 
ATOM      8  C   UNL     1      31.825 -12.405 -20.383  0.00  0.00    +0.097 C 
ATOM      9  C   UNL     1      31.362 -11.096 -20.336  0.00  0.00    +0.094 C 
ATOM     10  C   UNL     1      30.554 -10.653 -19.162  0.00  0.00    +0.062 C 
ENDROOT
BRANCH   7  12
ATOM     11  O   UNL     1      33.805 -15.631 -25.477  0.00  0.00    -0.252 OA
ATOM     12  N   UNL     1      33.070 -14.083 -21.570  0.00  0.00    -0.191 N 
ATOM     13  N   UNL     1      34.186 -16.807 -23.421  0.00  0.00    -0.225 N 
ATOM     14  N   UNL     1      33.335 -14.644 -22.770  0.00  0.00    -0.159 NA
ATOM     15  N   UNL     1      34.666 -17.783 -25.420  0.00  0.00    -0.287 N 
ATOM     16  C   UNL     1      33.784 -15.862 -22.454  0.00  0.00    +0.158 C 
ATOM     17  C   UNL     1      34.606 -18.171 -23.126  0.00  0.00    +0.122 C 
ATOM     18  C   UNL     1      33.342 -14.918 -20.518  0.00  0.00    +0.092 C 
ATOM     19  C   UNL     1      35.104 -18.735 -24.442  0.00  0.00    +0.113 C 
ATOM     20  C   UNL     1      33.809 -16.087 -21.065  0.00  0.00    +0.054 C 
ATOM     21  C   UNL     1      34.171 -16.605 -24.832  0.00  0.00    +0.309 C 
ATOM     22  H   UNL     1      34.706 -17.937 -26.392  0.00  0.00    +0.151 HD
ENDBRANCH   7  12
BRANCH   1  23
ATOM     23  C   UNL     1      32.450  -8.432 -23.811  0.00  0.00    +0.050 C 
ATOM     24  C   UNL     1      33.498  -7.485 -23.907  0.00  0.00    -0.005 C 
ATOM     25  C   UNL     1      31.134  -7.966 -24.045  0.00  0.00    +0.018 C 
ATOM     26  C   UNL     1      33.244  -6.149 -24.218  0.00  0.00    +0.034 C 
ATOM     27  C   UNL     1      34.909  -7.916 -23.670  0.00  0.00    +0.032 C 
ATOM     28  C   UNL     1      30.880  -6.631 -24.357  0.00  0.00    +0.038 C 
ATOM     29  C   UNL     1      31.936  -5.723 -24.444  0.00  0.00    +0.139 C 
BRANCH  29  30
ATOM     30  O   UNL     1      31.687  -4.419 -24.748  0.00  0.00    -0.471 OA
ATOM     31  C   UNL     1      31.313  -3.561 -23.673  0.00  0.00    +0.252 C 
ENDBRANCH  29  30
ENDBRANCH   1  23
TORSDOF 3
ENDMDL
MODEL 6
REMARK VINA RESULT:     -11.2      2.231      9.657
REMARK  Name = 11223423
REMARK  3 active torsions:
REMARK  status: ('A' for Active; 'I' for Inactive)
REMARK    1  A    between atoms: N_1  and  C_23
REMARK    2  A    between atoms: C_7  and  N_12
REMARK    3  A    between atoms: C_29  and  O_30
REMARK                            x       y       z     vdW  Elec       q    Type
REMARK                         _______ _______ _______ _____ _____    ______ ____
ROOT
ATOM      1  N   UNL     1      33.302 -13.118 -23.537  0.00  0.00    -0.263 N 
ATOM      2  N   UNL     1      34.688 -11.615 -24.961  0.00  0.00    -0.395 NA
ATOM      3  C   UNL     1      32.165 -11.335 -22.328  0.00  0.00    +0.053 C 
ATOM      4  C   UNL     1      33.103 -10.807 -23.353  0.00  0.00    +0.035 C 
ATOM      5  C   UNL     1      32.132 -12.829 -22.686  0.00  0.00    +0.103 C 
ATOM      6  C   UNL     1      33.763 -11.845 -24.007  0.00  0.00    +0.183 C 
ATOM      7  C   UNL     1      33.388  -9.487 -23.654  0.00  0.00    +0.058 C 
ATOM      8  C   UNL     1      34.337  -9.233 -24.635  0.00  0.00    +0.097 C 
ATOM      9  C   UNL     1      34.951 -10.316 -25.251  0.00  0.00    +0.094 C 
ATOM     10  C   UNL     1      35.976 -10.068 -26.307  0.00  0.00    +0.062 C 
ENDROOT
BRANCH   7  12
ATOM     11  O   UNL     1      31.857  -4.969 -25.308  0.00  0.00    -0.252 OA
ATOM     12  N   UNL     1      32.758  -8.443 -23.004  0.00  0.00    -0.191 N 
ATOM     13  N   UNL     1      31.353  -5.262 -22.981  0.00  0.00    -0.225 N 
ATOM     14  N   UNL     1      32.433  -7.311 -23.664  0.00  0.00    -0.159 NA
ATOM     15  N   UNL     1      30.769  -3.346 -24.059  0.00  0.00    -0.287 N 
ATOM     16  C   UNL     1      31.856  -6.556 -22.725  0.00  0.00    +0.158 C 
ATOM     17  C   UNL     1      30.789  -4.375 -21.972  0.00  0.00    +0.122 C 
ATOM     18  C   UNL     1      32.400  -8.414 -21.681  0.00  0.00    +0.092 C 
ATOM     19  C   UNL     1      30.231  -3.193 -22.740  0.00  0.00    +0.113 C 
ATOM     20  C   UNL     1      31.808  -7.192 -21.470  0.00  0.00    +0.054 C 
ATOM     21  C   UNL     1      31.389  -4.596 -24.240  0.00  0.00    +0.309 C 
ATOM     22  H   UNL     1      30.711  -2.655 -24.758  0.00  0.00    +0.151 HD
ENDBRANCH   7  12
BRANCH   1  23
ATOM     23  C   UNL     1      33.686 -14.421 -23.869  0.00  0.00    +0.050 C 
ATOM     24  C   UNL     1      33.387 -14.997 -25.128  0.00  0.00    -0.005 C 
ATOM     25  C   UNL     1      34.396 -15.222 -22.944  0.00  0.00    +0.018 C 
ATOM     26  C   UNL     1      33.777 -16.298 -25.443  0.00  0.00    +0.034 C 
ATOM     27  C   UNL     1      32.639 -14.200 -26.148  0.00  0.00    +0.032 C 
ATOM     28  C   UNL     1      34.787 -16.523 -23.259  0.00  0.00    +0.038 C 
ATOM     29  C   UNL     1      34.477 -17.061 -24.509  0.00  0.00    +0.139 C 
BRANCH  29  30
ATOM     30  O   UNL     1      34.859 -18.331 -24.815  0.00  0.00    -0.471 OA
ATOM     31  C   UNL     1      34.922 -19.268 -23.741  0.00  0.00    +0.252 C 
ENDBRANCH  29  30
ENDBRANCH   1  23
TORSDOF 3
ENDMDL
MODEL 7
REMARK VINA RESULT:     -11.2      2.471     10.032
REMARK  Name = 11223423
REMARK  3 active torsions:
REMARK  status: ('A' for Active; 'I' for Inactive)
REMARK    1  A    between atoms: N_1  and  C_23
REMARK    2  A    between atoms: C_7  and  N_12
REMARK    3  A    between atoms: C_29  and  O_30
REMARK                            x       y       z     vdW  Elec       q    Type
REMARK                         _______ _______ _______ _____ _____    ______ ____
ROOT
ATOM      1  N   UNL     1      33.722 -12.448 -24.259  0.00  0.00    -0.263 N 
ATOM      2  N   UNL     1      32.253 -11.958 -22.306  0.00  0.00    -0.395 NA
ATOM      3  C   UNL     1      33.893 -10.142 -25.024  0.00  0.00    +0.053 C 
ATOM      4  C   UNL     1      33.079 -10.262 -23.787  0.00  0.00    +0.035 C 
ATOM      5  C   UNL     1      34.509 -11.547 -25.122  0.00  0.00    +0.103 C 
ATOM      6  C   UNL     1      32.970 -11.592 -23.388  0.00  0.00    +0.183 C 
ATOM      7  C   UNL     1      32.436  -9.258 -23.085  0.00  0.00    +0.058 C 
ATOM      8  C   UNL     1      31.695  -9.618 -21.967  0.00  0.00    +0.097 C 
ATOM      9  C   UNL     1      31.636 -10.963 -21.623  0.00  0.00    +0.094 C 
ATOM     10  C   UNL     1      30.843 -11.373 -20.426  0.00  0.00    +0.062 C 
ENDROOT
BRANCH   7  12
ATOM     11  O   UNL     1      29.866  -5.180 -21.582  0.00  0.00    -0.252 OA
ATOM     12  N   UNL     1      32.516  -7.936 -23.474  0.00  0.00    -0.191 N 
ATOM     13  N   UNL     1      31.487  -4.621 -23.258  0.00  0.00    -0.225 N 
ATOM     14  N   UNL     1      31.716  -7.000 -22.919  0.00  0.00    -0.159 NA
ATOM     15  N   UNL     1      30.174  -3.009 -22.334  0.00  0.00    -0.287 N 
ATOM     16  C   UNL     1      32.077  -5.872 -23.536  0.00  0.00    +0.158 C 
ATOM     17  C   UNL     1      31.794  -3.382 -23.962  0.00  0.00    +0.122 C 
ATOM     18  C   UNL     1      33.364  -7.421 -24.420  0.00  0.00    +0.092 C 
ATOM     19  C   UNL     1      31.059  -2.294 -23.205  0.00  0.00    +0.113 C 
ATOM     20  C   UNL     1      33.100  -6.075 -24.482  0.00  0.00    +0.054 C 
ATOM     21  C   UNL     1      30.452  -4.388 -22.307  0.00  0.00    +0.309 C 
ATOM     22  H   UNL     1      29.454  -2.584 -21.815  0.00  0.00    +0.151 HD
ENDBRANCH   7  12
BRANCH   1  23
ATOM     23  C   UNL     1      33.886 -13.837 -24.275  0.00  0.00    +0.050 C 
ATOM     24  C   UNL     1      33.461 -14.633 -25.367  0.00  0.00    -0.005 C 
ATOM     25  C   UNL     1      34.491 -14.505 -23.185  0.00  0.00    +0.018 C 
ATOM     26  C   UNL     1      33.632 -16.017 -25.366  0.00  0.00    +0.034 C 
ATOM     27  C   UNL     1      32.814 -13.986 -26.548  0.00  0.00    +0.032 C 
ATOM     28  C   UNL     1      34.662 -15.889 -23.184  0.00  0.00    +0.038 C 
ATOM     29  C   UNL     1      34.233 -16.645 -24.275  0.00  0.00    +0.139 C 
BRANCH  29  30
ATOM     30  O   UNL     1      34.400 -17.996 -24.274  0.00  0.00    -0.471 OA
ATOM     31  C   UNL     1      35.334 -18.534 -23.340  0.00  0.00    +0.252 C 
ENDBRANCH  29  30
ENDBRANCH   1  23
TORSDOF 3
ENDMDL
MODEL 8
REMARK VINA RESULT:     -11.2      1.532      2.679
REMARK  Name = 11223423
REMARK  3 active torsions:
REMARK  status: ('A' for Active; 'I' for Inactive)
REMARK    1  A    between atoms: N_1  and  C_23
REMARK    2  A    between atoms: C_7  and  N_12
REMARK    3  A    between atoms: C_29  and  O_30
REMARK                            x       y       z     vdW  Elec       q    Type
REMARK                         _______ _______ _______ _____ _____    ______ ____
ROOT
ATOM      1  N   UNL     1      32.238  -8.826 -23.339  0.00  0.00    -0.263 N 
ATOM      2  N   UNL     1      31.381  -9.870 -21.245  0.00  0.00    -0.395 NA
ATOM      3  C   UNL     1      33.220 -10.862 -24.247  0.00  0.00    +0.053 C 
ATOM      4  C   UNL     1      32.542 -11.100 -22.946  0.00  0.00    +0.035 C 
ATOM      5  C   UNL     1      32.749  -9.438 -24.580  0.00  0.00    +0.103 C 
ATOM      6  C   UNL     1      32.018  -9.915 -22.433  0.00  0.00    +0.183 C 
ATOM      7  C   UNL     1      32.439 -12.284 -22.238  0.00  0.00    +0.058 C 
ATOM      8  C   UNL     1      31.784 -12.255 -21.014  0.00  0.00    +0.097 C 
ATOM      9  C   UNL     1      31.280 -11.040 -20.567  0.00  0.00    +0.094 C 
ATOM     10  C   UNL     1      30.574 -10.985 -19.252  0.00  0.00    +0.062 C 
ENDROOT
BRANCH   7  12
ATOM     11  O   UNL     1      34.908 -16.023 -19.911  0.00  0.00    -0.252 OA
ATOM     12  N   UNL     1      32.969 -13.465 -22.720  0.00  0.00    -0.191 N 
ATOM     13  N   UNL     1      34.655 -16.470 -22.254  0.00  0.00    -0.225 N 
ATOM     14  N   UNL     1      33.593 -14.332 -21.894  0.00  0.00    -0.159 NA
ATOM     15  N   UNL     1      35.696 -17.969 -20.895  0.00  0.00    -0.287 N 
ATOM     16  C   UNL     1      33.960 -15.328 -22.706  0.00  0.00    +0.158 C 
ATOM     17  C   UNL     1      35.142 -17.540 -23.115  0.00  0.00    +0.122 C 
ATOM     18  C   UNL     1      32.937 -13.893 -24.022  0.00  0.00    +0.092 C 
ATOM     19  C   UNL     1      35.655 -18.613 -22.175  0.00  0.00    +0.113 C 
ATOM     20  C   UNL     1      33.578 -15.107 -24.043  0.00  0.00    +0.054 C 
ATOM     21  C   UNL     1      35.053 -16.718 -20.909  0.00  0.00    +0.309 C 
ATOM     22  H   UNL     1      36.124 -18.358 -20.099  0.00  0.00    +0.151 HD
ENDBRANCH   7  12
BRANCH   1  23
ATOM     23  C   UNL     1      31.923  -7.467 -23.245  0.00  0.00    +0.050 C 
ATOM     24  C   UNL     1      32.293  -6.683 -22.125  0.00  0.00    -0.005 C 
ATOM     25  C   UNL     1      31.212  -6.818 -24.282  0.00  0.00    +0.018 C 
ATOM     26  C   UNL     1      31.970  -5.328 -22.048  0.00  0.00    +0.034 C 
ATOM     27  C   UNL     1      33.045  -7.311 -20.997  0.00  0.00    +0.032 C 
ATOM     28  C   UNL     1      30.890  -5.463 -24.205  0.00  0.00    +0.038 C 
ATOM     29  C   UNL     1      31.269  -4.719 -23.088  0.00  0.00    +0.139 C 
BRANCH  29  30
ATOM     30  O   UNL     1      30.954  -3.396 -23.014  0.00  0.00    -0.471 OA
ATOM     31  C   UNL     1      31.519  -2.537 -24.002  0.00  0.00    +0.252 C 
ENDBRANCH  29  30
ENDBRANCH   1  23
TORSDOF 3
ENDMDL
MODEL 9
REMARK VINA RESULT:     -11.1      2.774      5.417
REMARK  Name = 11223423
REMARK  3 active torsions:
REMARK  status: ('A' for Active; 'I' for Inactive)
REMARK    1  A    between atoms: N_1  and  C_23
REMARK    2  A    between atoms: C_7  and  N_12
REMARK    3  A    between atoms: C_29  and  O_30
REMARK                            x       y       z     vdW  Elec       q    Type
REMARK                         _______ _______ _______ _____ _____    ______ ____
ROOT
ATOM      1  N   UNL     1      33.948 -14.242 -22.085  0.00  0.00    -0.263 N 
ATOM      2  N   UNL     1      34.119 -15.695 -24.101  0.00  0.00    -0.395 NA
ATOM      3  C   UNL     1      34.637 -15.950 -20.490  0.00  0.00    +0.053 C 
ATOM      4  C   UNL     1      34.650 -16.452 -21.888  0.00  0.00    +0.035 C 
ATOM      5  C   UNL     1      34.444 -14.441 -20.710  0.00  0.00    +0.103 C 
ATOM      6  C   UNL     1      34.221 -15.468 -22.776  0.00  0.00    +0.183 C 
ATOM      7  C   UNL     1      34.976 -17.719 -22.340  0.00  0.00    +0.058 C 
ATOM      8  C   UNL     1      34.878 -17.969 -23.702  0.00  0.00    +0.097 C 
ATOM      9  C   UNL     1      34.451 -16.939 -24.530  0.00  0.00    +0.094 C 
ATOM     10  C   UNL     1      34.335 -17.186 -25.998  0.00  0.00    +0.062 C 
ENDROOT
BRANCH   7  12
ATOM     11  O   UNL     1      32.341 -21.068 -19.632  0.00  0.00    -0.252 OA
ATOM     12  N   UNL     1      35.384 -18.714 -21.474  0.00  0.00    -0.191 N 
ATOM     13  N   UNL     1      34.700 -21.336 -19.294  0.00  0.00    -0.225 N 
ATOM     14  N   UNL     1      34.483 -19.507 -20.855  0.00  0.00    -0.159 NA
ATOM     15  N   UNL     1      33.218 -22.708 -18.247  0.00  0.00    -0.287 N 
ATOM     16  C   UNL     1      35.240 -20.325 -20.118  0.00  0.00    +0.158 C 
ATOM     17  C   UNL     1      35.482 -22.197 -18.416  0.00  0.00    +0.122 C 
ATOM     18  C   UNL     1      36.680 -19.016 -21.142  0.00  0.00    +0.092 C 
ATOM     19  C   UNL     1      34.504 -23.224 -17.881  0.00  0.00    +0.113 C 
ATOM     20  C   UNL     1      36.616 -20.064 -20.258  0.00  0.00    +0.054 C 
ATOM     21  C   UNL     1      33.313 -21.621 -19.135  0.00  0.00    +0.309 C 
ATOM     22  H   UNL     1      32.366 -23.073 -17.915  0.00  0.00    +0.151 HD
ENDBRANCH   7  12
BRANCH   1  23
ATOM     23  C   UNL     1      33.473 -13.008 -22.541  0.00  0.00    +0.050 C 
ATOM     24  C   UNL     1      32.422 -12.318 -21.892  0.00  0.00    -0.005 C 
ATOM     25  C   UNL     1      34.037 -12.398 -23.687  0.00  0.00    +0.018 C 
ATOM     26  C   UNL     1      31.961 -11.088 -22.362  0.00  0.00    +0.034 C 
ATOM     27  C   UNL     1      31.785 -12.911 -20.677  0.00  0.00    +0.032 C 
ATOM     28  C   UNL     1      33.577 -11.168 -24.156  0.00  0.00    +0.038 C 
ATOM     29  C   UNL     1      32.539 -10.513 -23.493  0.00  0.00    +0.139 C 
BRANCH  29  30
ATOM     30  O   UNL     1      32.090  -9.313 -23.952  0.00  0.00    -0.471 OA
ATOM     31  C   UNL     1      31.586  -8.395 -22.984  0.00  0.00    +0.252 C 
ENDBRANCH  29  30
ENDBRANCH   1  23
TORSDOF 3
ENDMDL
