MODEL 1
REMARK VINA RESULT:      -5.6      0.000      0.000
REMARK  Name = 5853
REMARK  5 active torsions:
REMARK  status: ('A' for Active; 'I' for Inactive)
REMARK    1  A    between atoms: C_1  and  C_5
REMARK    2  A    between atoms: C_1  and  P_6
REMARK    3  A    between atoms: C_1  and  O_12
REMARK    4  A    between atoms: P_6  and  O_8
REMARK    5  A    between atoms: P_6  and  O_10
REMARK                            x       y       z     vdW  Elec       q    Type
REMARK                         _______ _______ _______ _____ _____    ______ ____
ROOT
ATOM      1  C   UNL     1      37.384 -25.345 -12.778  0.00  0.00    +0.258 C 
ENDROOT
BRANCH   1   5
ATOM      2 CL   UNL     1      35.662 -24.682 -10.746  0.00  0.00    -0.079 Cl
ATOM      3 CL   UNL     1      37.455 -22.747 -11.946  0.00  0.00    -0.079 Cl
ATOM      4 CL   UNL     1      35.215 -23.785 -13.471  0.00  0.00    -0.079 Cl
ATOM      5  C   UNL     1      36.472 -24.218 -12.271  0.00  0.00    +0.234 C 
ENDBRANCH   1   5
BRANCH   1   6
ATOM      6  P   UNL     1      37.773 -25.424 -14.530  0.00  0.00    +0.373 P 
ATOM      7  O   UNL     1      36.613 -25.794 -15.410  0.00  0.00    -0.255 OA
BRANCH   6   8
ATOM      8  O   UNL     1      39.040 -26.421 -14.671  0.00  0.00    -0.290 OA
ATOM      9  C   UNL     1      40.370 -25.948 -14.546  0.00  0.00    +0.184 C 
ENDBRANCH   6   8
BRANCH   6  10
ATOM     10  O   UNL     1      38.392 -23.959 -14.848  0.00  0.00    -0.290 OA
ATOM     11  C   UNL     1      37.698 -23.110 -15.745  0.00  0.00    +0.184 C 
ENDBRANCH   6  10
ENDBRANCH   1   6
BRANCH   1  12
ATOM     12  O   UNL     1      36.771 -26.613 -12.531  0.00  0.00    -0.371 OA
ATOM     13  H   UNL     1      36.818 -26.815 -11.583  0.00  0.00    +0.211 HD
ENDBRANCH   1  12
TORSDOF 5
ENDMDL
MODEL 2
REMARK VINA RESULT:      -5.2      1.744      3.285
REMARK  Name = 5853
REMARK  5 active torsions:
REMARK  status: ('A' for Active; 'I' for Inactive)
REMARK    1  A    between atoms: C_1  and  C_5
REMARK    2  A    between atoms: C_1  and  P_6
REMARK    3  A    between atoms: C_1  and  O_12
REMARK    4  A    between atoms: P_6  and  O_8
REMARK    5  A    between atoms: P_6  and  O_10
REMARK                            x       y       z     vdW  Elec       q    Type
REMARK                         _______ _______ _______ _____ _____    ______ ____
ROOT
ATOM      1  C   UNL     1      36.167 -25.362 -14.364  0.00  0.00    +0.258 C 
ENDROOT
BRANCH   1   5
ATOM      2 CL   UNL     1      35.939 -22.663 -14.812  0.00  0.00    -0.079 Cl
ATOM      3 CL   UNL     1      33.651 -24.440 -14.876  0.00  0.00    -0.079 Cl
ATOM      4 CL   UNL     1      34.981 -23.884 -12.358  0.00  0.00    -0.079 Cl
ATOM      5  C   UNL     1      35.252 -24.156 -14.107  0.00  0.00    +0.234 C 
ENDBRANCH   1   5
BRANCH   1   6
ATOM      6  P   UNL     1      37.559 -25.645 -13.265  0.00  0.00    +0.373 P 
ATOM      7  O   UNL     1      37.207 -26.330 -11.976  0.00  0.00    -0.255 OA
BRANCH   6   8
ATOM      8  O   UNL     1      38.279 -24.209 -13.063  0.00  0.00    -0.290 OA
ATOM      9  C   UNL     1      38.305 -23.567 -11.801  0.00  0.00    +0.184 C 
ENDBRANCH   6   8
BRANCH   6  10
ATOM     10  O   UNL     1      38.604 -26.479 -14.183  0.00  0.00    -0.290 OA
ATOM     11  C   UNL     1      39.898 -25.940 -14.398  0.00  0.00    +0.184 C 
ENDBRANCH   6  10
ENDBRANCH   1   6
BRANCH   1  12
ATOM     12  O   UNL     1      36.792 -25.233 -15.643  0.00  0.00    -0.371 OA
ATOM     13  H   UNL     1      36.128 -25.345 -16.341  0.00  0.00    +0.211 HD
ENDBRANCH   1  12
TORSDOF 5
ENDMDL
MODEL 3
REMARK VINA RESULT:      -5.1     10.532     11.998
REMARK  Name = 5853
REMARK  5 active torsions:
REMARK  status: ('A' for Active; 'I' for Inactive)
REMARK    1  A    between atoms: C_1  and  C_5
REMARK    2  A    between atoms: C_1  and  P_6
REMARK    3  A    between atoms: C_1  and  O_12
REMARK    4  A    between atoms: P_6  and  O_8
REMARK    5  A    between atoms: P_6  and  O_10
REMARK                            x       y       z     vdW  Elec       q    Type
REMARK                         _______ _______ _______ _____ _____    ______ ____
ROOT
ATOM      1  C   UNL     1      34.492 -16.741 -22.541  0.00  0.00    +0.258 C 
ENDROOT
BRANCH   1   5
ATOM      2 CL   UNL     1      34.886 -15.439 -20.156  0.00  0.00    -0.079 Cl
ATOM      3 CL   UNL     1      34.312 -14.020 -22.617  0.00  0.00    -0.079 Cl
ATOM      4 CL   UNL     1      32.253 -15.636 -21.364  0.00  0.00    -0.079 Cl
ATOM      5  C   UNL     1      34.008 -15.543 -21.710  0.00  0.00    +0.234 C 
ENDBRANCH   1   5
BRANCH   1   6
ATOM      6  P   UNL     1      34.805 -18.302 -21.710  0.00  0.00    +0.373 P 
ATOM      7  O   UNL     1      36.006 -18.298 -20.808  0.00  0.00    -0.255 OA
BRANCH   6   8
ATOM      8  O   UNL     1      34.867 -19.431 -22.869  0.00  0.00    -0.290 OA
ATOM      9  C   UNL     1      34.592 -19.115 -24.223  0.00  0.00    +0.184 C 
ENDBRANCH   6   8
BRANCH   6  10
ATOM     10  O   UNL     1      33.411 -18.610 -20.940  0.00  0.00    -0.290 OA
ATOM     11  C   UNL     1      33.061 -19.960 -20.686  0.00  0.00    +0.184 C 
ENDBRANCH   6  10
ENDBRANCH   1   6
BRANCH   1  12
ATOM     12  O   UNL     1      35.756 -16.439 -23.137  0.00  0.00    -0.371 OA
ATOM     13  H   UNL     1      35.785 -16.804 -24.035  0.00  0.00    +0.211 HD
ENDBRANCH   1  12
TORSDOF 5
ENDMDL
MODEL 4
REMARK VINA RESULT:      -5.1      2.551      3.645
REMARK  Name = 5853
REMARK  5 active torsions:
REMARK  status: ('A' for Active; 'I' for Inactive)
REMARK    1  A    between atoms: C_1  and  C_5
REMARK    2  A    between atoms: C_1  and  P_6
REMARK    3  A    between atoms: C_1  and  O_12
REMARK    4  A    between atoms: P_6  and  O_8
REMARK    5  A    between atoms: P_6  and  O_10
REMARK                            x       y       z     vdW  Elec       q    Type
REMARK                         _______ _______ _______ _____ _____    ______ ____
ROOT
ATOM      1  C   UNL     1      35.919 -24.361 -13.324  0.00  0.00    +0.258 C 
ENDROOT
BRANCH   1   5
ATOM      2 CL   UNL     1      36.231 -26.212 -15.328  0.00  0.00    -0.079 Cl
ATOM      3 CL   UNL     1      34.177 -24.170 -15.415  0.00  0.00    -0.079 Cl
ATOM      4 CL   UNL     1      36.968 -23.428 -15.700  0.00  0.00    -0.079 Cl
ATOM      5  C   UNL     1      35.845 -24.533 -14.848  0.00  0.00    +0.234 C 
ENDBRANCH   1   5
BRANCH   1   6
ATOM      6  P   UNL     1      37.331 -25.035 -12.442  0.00  0.00    +0.373 P 
ATOM      7  O   UNL     1      37.233 -26.503 -12.138  0.00  0.00    -0.255 OA
BRANCH   6   8
ATOM      8  O   UNL     1      37.531 -24.111 -11.128  0.00  0.00    -0.290 OA
ATOM      9  C   UNL     1      37.066 -22.774 -11.088  0.00  0.00    +0.184 C 
ENDBRANCH   6   8
BRANCH   6  10
ATOM     10  O   UNL     1      38.590 -24.647 -13.388  0.00  0.00    -0.290 OA
ATOM     11  C   UNL     1      39.511 -25.664 -13.742  0.00  0.00    +0.184 C 
ENDBRANCH   6  10
ENDBRANCH   1   6
BRANCH   1  12
ATOM     12  O   UNL     1      34.812 -25.025 -12.707  0.00  0.00    -0.371 OA
ATOM     13  H   UNL     1      34.517 -25.755 -13.274  0.00  0.00    +0.211 HD
ENDBRANCH   1  12
TORSDOF 5
ENDMDL
MODEL 5
REMARK VINA RESULT:      -5.1      2.567      3.617
REMARK  Name = 5853
REMARK  5 active torsions:
REMARK  status: ('A' for Active; 'I' for Inactive)
REMARK    1  A    between atoms: C_1  and  C_5
REMARK    2  A    between atoms: C_1  and  P_6
REMARK    3  A    between atoms: C_1  and  O_12
REMARK    4  A    between atoms: P_6  and  O_8
REMARK    5  A    between atoms: P_6  and  O_10
REMARK                            x       y       z     vdW  Elec       q    Type
REMARK                         _______ _______ _______ _____ _____    ______ ____
ROOT
ATOM      1  C   UNL     1      37.259 -24.694 -14.927  0.00  0.00    +0.258 C 
ENDROOT
BRANCH   1   5
ATOM      2 CL   UNL     1      37.171 -26.427 -12.799  0.00  0.00    -0.079 Cl
ATOM      3 CL   UNL     1      39.669 -25.441 -13.889  0.00  0.00    -0.079 Cl
ATOM      4 CL   UNL     1      37.902 -23.637 -12.461  0.00  0.00    -0.079 Cl
ATOM      5  C   UNL     1      37.945 -25.024 -13.593  0.00  0.00    +0.234 C 
ENDBRANCH   1   5
BRANCH   1   6
ATOM      6  P   UNL     1      35.726 -23.760 -14.907  0.00  0.00    +0.373 P 
ATOM      7  O   UNL     1      34.971 -23.827 -13.610  0.00  0.00    -0.255 OA
BRANCH   6   8
ATOM      8  O   UNL     1      34.869 -24.262 -16.186  0.00  0.00    -0.290 OA
ATOM      9  C   UNL     1      33.901 -23.428 -16.799  0.00  0.00    +0.184 C 
ENDBRANCH   6   8
BRANCH   6  10
ATOM     10  O   UNL     1      36.190 -22.260 -15.314  0.00  0.00    -0.290 OA
ATOM     11  C   UNL     1      37.351 -22.102 -16.112  0.00  0.00    +0.184 C 
ENDBRANCH   6  10
ENDBRANCH   1   6
BRANCH   1  12
ATOM     12  O   UNL     1      36.884 -25.905 -15.591  0.00  0.00    -0.371 OA
ATOM     13  H   UNL     1      37.682 -26.401 -15.834  0.00  0.00    +0.211 HD
ENDBRANCH   1  12
TORSDOF 5
ENDMDL
MODEL 6
REMARK VINA RESULT:      -5.1     11.494     12.809
REMARK  Name = 5853
REMARK  5 active torsions:
REMARK  status: ('A' for Active; 'I' for Inactive)
REMARK    1  A    between atoms: C_1  and  C_5
REMARK    2  A    between atoms: C_1  and  P_6
REMARK    3  A    between atoms: C_1  and  O_12
REMARK    4  A    between atoms: P_6  and  O_8
REMARK    5  A    between atoms: P_6  and  O_10
REMARK                            x       y       z     vdW  Elec       q    Type
REMARK                         _______ _______ _______ _____ _____    ______ ____
ROOT
ATOM      1  C   UNL     1      35.071 -16.889 -22.838  0.00  0.00    +0.258 C 
ENDROOT
BRANCH   1   5
ATOM      2 CL   UNL     1      34.979 -19.467 -23.779  0.00  0.00    -0.079 Cl
ATOM      3 CL   UNL     1      36.701 -18.682 -21.584  0.00  0.00    -0.079 Cl
ATOM      4 CL   UNL     1      33.823 -18.741 -21.216  0.00  0.00    -0.079 Cl
ATOM      5  C   UNL     1      35.124 -18.356 -22.385  0.00  0.00    +0.234 C 
ENDBRANCH   1   5
BRANCH   1   6
ATOM      6  P   UNL     1      34.472 -15.647 -21.687  0.00  0.00    +0.373 P 
ATOM      7  O   UNL     1      35.026 -15.767 -20.296  0.00  0.00    -0.255 OA
BRANCH   6   8
ATOM      8  O   UNL     1      32.855 -15.709 -21.750  0.00  0.00    -0.290 OA
ATOM      9  C   UNL     1      32.069 -15.687 -20.572  0.00  0.00    +0.184 C 
ENDBRANCH   6   8
BRANCH   6  10
ATOM     10  O   UNL     1      34.837 -14.245 -22.417  0.00  0.00    -0.290 OA
ATOM     11  C   UNL     1      33.806 -13.542 -23.088  0.00  0.00    +0.184 C 
ENDBRANCH   6  10
ENDBRANCH   1   6
BRANCH   1  12
ATOM     12  O   UNL     1      34.175 -16.756 -23.945  0.00  0.00    -0.371 OA
ATOM     13  H   UNL     1      34.650 -16.379 -24.702  0.00  0.00    +0.211 HD
ENDBRANCH   1  12
TORSDOF 5
ENDMDL
MODEL 7
REMARK VINA RESULT:      -5.1      1.613      2.083
REMARK  Name = 5853
REMARK  5 active torsions:
REMARK  status: ('A' for Active; 'I' for Inactive)
REMARK    1  A    between atoms: C_1  and  C_5
REMARK    2  A    between atoms: C_1  and  P_6
REMARK    3  A    between atoms: C_1  and  O_12
REMARK    4  A    between atoms: P_6  and  O_8
REMARK    5  A    between atoms: P_6  and  O_10
REMARK                            x       y       z     vdW  Elec       q    Type
REMARK                         _______ _______ _______ _____ _____    ______ ____
ROOT
ATOM      1  C   UNL     1      35.944 -24.310 -13.477  0.00  0.00    +0.258 C 
ENDROOT
BRANCH   1   5
ATOM      2 CL   UNL     1      37.651 -25.987 -12.129  0.00  0.00    -0.079 Cl
ATOM      3 CL   UNL     1      37.762 -23.106 -11.836  0.00  0.00    -0.079 Cl
ATOM      4 CL   UNL     1      35.506 -24.584 -10.766  0.00  0.00    -0.079 Cl
ATOM      5  C   UNL     1      36.661 -24.498 -12.131  0.00  0.00    +0.234 C 
ENDBRANCH   1   5
BRANCH   1   6
ATOM      6  P   UNL     1      36.857 -24.604 -14.994  0.00  0.00    +0.373 P 
ATOM      7  O   UNL     1      36.733 -25.999 -15.537  0.00  0.00    -0.255 OA
BRANCH   6   8
ATOM      8  O   UNL     1      38.385 -24.154 -14.703  0.00  0.00    -0.290 OA
ATOM      9  C   UNL     1      39.472 -25.028 -14.948  0.00  0.00    +0.184 C 
ENDBRANCH   6   8
BRANCH   6  10
ATOM     10  O   UNL     1      36.300 -23.461 -16.001  0.00  0.00    -0.290 OA
ATOM     11  C   UNL     1      37.194 -22.457 -16.450  0.00  0.00    +0.184 C 
ENDBRANCH   6  10
ENDBRANCH   1   6
BRANCH   1  12
ATOM     12  O   UNL     1      35.524 -22.950 -13.616  0.00  0.00    -0.371 OA
ATOM     13  H   UNL     1      34.590 -22.925 -13.875  0.00  0.00    +0.211 HD
ENDBRANCH   1  12
TORSDOF 5
ENDMDL
MODEL 8
REMARK VINA RESULT:      -4.9     10.356     11.839
REMARK  Name = 5853
REMARK  5 active torsions:
REMARK  status: ('A' for Active; 'I' for Inactive)
REMARK    1  A    between atoms: C_1  and  C_5
REMARK    2  A    between atoms: C_1  and  P_6
REMARK    3  A    between atoms: C_1  and  O_12
REMARK    4  A    between atoms: P_6  and  O_8
REMARK    5  A    between atoms: P_6  and  O_10
REMARK                            x       y       z     vdW  Elec       q    Type
REMARK                         _______ _______ _______ _____ _____    ______ ____
ROOT
ATOM      1  C   UNL     1      34.467 -16.718 -22.787  0.00  0.00    +0.258 C 
ENDROOT
BRANCH   1   5
ATOM      2 CL   UNL     1      34.985 -15.769 -20.263  0.00  0.00    -0.079 Cl
ATOM      3 CL   UNL     1      34.314 -14.013 -22.469  0.00  0.00    -0.079 Cl
ATOM      4 CL   UNL     1      32.297 -15.782 -21.362  0.00  0.00    -0.079 Cl
ATOM      5  C   UNL     1      34.035 -15.648 -21.774  0.00  0.00    +0.234 C 
ENDBRANCH   1   5
BRANCH   1   6
ATOM      6  P   UNL     1      34.771 -18.390 -22.207  0.00  0.00    +0.373 P 
ATOM      7  O   UNL     1      34.666 -19.447 -23.269  0.00  0.00    -0.255 OA
BRANCH   6   8
ATOM      8  O   UNL     1      33.775 -18.626 -20.953  0.00  0.00    -0.290 OA
ATOM      9  C   UNL     1      33.030 -19.823 -20.818  0.00  0.00    +0.184 C 
ENDBRANCH   6   8
BRANCH   6  10
ATOM     10  O   UNL     1      36.240 -18.295 -21.525  0.00  0.00    -0.290 OA
ATOM     11  C   UNL     1      36.681 -19.370 -20.713  0.00  0.00    +0.184 C 
ENDBRANCH   6  10
ENDBRANCH   1   6
BRANCH   1  12
ATOM     12  O   UNL     1      35.720 -16.353 -23.373  0.00  0.00    -0.371 OA
ATOM     13  H   UNL     1      35.621 -16.294 -24.337  0.00  0.00    +0.211 HD
ENDBRANCH   1  12
TORSDOF 5
ENDMDL
MODEL 9
REMARK VINA RESULT:      -4.9      1.529      2.675
REMARK  Name = 5853
REMARK  5 active torsions:
REMARK  status: ('A' for Active; 'I' for Inactive)
REMARK    1  A    between atoms: C_1  and  C_5
REMARK    2  A    between atoms: C_1  and  P_6
REMARK    3  A    between atoms: C_1  and  O_12
REMARK    4  A    between atoms: P_6  and  O_8
REMARK    5  A    between atoms: P_6  and  O_10
REMARK                            x       y       z     vdW  Elec       q    Type
REMARK                         _______ _______ _______ _____ _____    ______ ____
ROOT
ATOM      1  C   UNL     1      37.259 -24.510 -14.397  0.00  0.00    +0.258 C 
ENDROOT
BRANCH   1   5
ATOM      2 CL   UNL     1      36.991 -22.769 -12.291  0.00  0.00    -0.079 Cl
ATOM      3 CL   UNL     1      35.511 -22.447 -14.761  0.00  0.00    -0.079 Cl
ATOM      4 CL   UNL     1      34.894 -24.655 -12.983  0.00  0.00    -0.079 Cl
ATOM      5  C   UNL     1      36.228 -23.658 -13.642  0.00  0.00    +0.234 C 
ENDBRANCH   1   5
BRANCH   1   6
ATOM      6  P   UNL     1      38.162 -25.777 -13.500  0.00  0.00    +0.373 P 
ATOM      7  O   UNL     1      37.727 -25.961 -12.074  0.00  0.00    -0.255 OA
BRANCH   6   8
ATOM      8  O   UNL     1      39.732 -25.417 -13.659  0.00  0.00    -0.290 OA
ATOM      9  C   UNL     1      40.582 -26.176 -14.501  0.00  0.00    +0.184 C 
ENDBRANCH   6   8
BRANCH   6  10
ATOM     10  O   UNL     1      37.971 -27.101 -14.417  0.00  0.00    -0.290 OA
ATOM     11  C   UNL     1      36.989 -27.083 -15.439  0.00  0.00    +0.184 C 
ENDBRANCH   6  10
ENDBRANCH   1   6
BRANCH   1  12
ATOM     12  O   UNL     1      38.303 -23.673 -14.902  0.00  0.00    -0.371 OA
ATOM     13  H   UNL     1      39.071 -24.218 -15.133  0.00  0.00    +0.211 HD
ENDBRANCH   1  12
TORSDOF 5
ENDMDL
