MODEL 1
REMARK VINA RESULT:      -9.6      0.000      0.000
REMARK  Name = 1329
REMARK  5 active torsions:
REMARK  status: ('A' for Active; 'I' for Inactive)
REMARK    1  A    between atoms: N_5  and  C_19
REMARK    2  A    between atoms: N_6  and  C_22
REMARK    3  A    between atoms: C_7  and  C_14
REMARK    4  A    between atoms: C_19  and  C_20
REMARK    5  A    between atoms: C_22  and  C_23
REMARK                            x       y       z     vdW  Elec       q    Type
REMARK                         _______ _______ _______ _____ _____    ______ ____
ROOT
ATOM      1  O   UNL     1      34.791 -15.908 -20.343  0.00  0.00    -0.265 OA
ATOM      2  O   UNL     1      34.649 -16.703 -24.969  0.00  0.00    -0.246 OA
ATOM      3  N   UNL     1      32.861 -13.696 -20.885  0.00  0.00    -0.313 N 
ATOM      4  N   UNL     1      32.106 -13.211 -22.926  0.00  0.00    -0.304 N 
ATOM      5  N   UNL     1      33.358 -14.967 -24.110  0.00  0.00    -0.269 N 
ATOM      6  N   UNL     1      34.739 -16.327 -22.659  0.00  0.00    -0.248 N 
ATOM      7  C   UNL     1      32.060 -12.888 -21.649  0.00  0.00    +0.145 C 
ATOM      8  C   UNL     1      33.454 -14.587 -21.733  0.00  0.00    +0.133 A 
ATOM      9  C   UNL     1      32.975 -14.268 -22.974  0.00  0.00    +0.132 A 
ATOM     10  C   UNL     1      34.377 -15.643 -21.468  0.00  0.00    +0.280 A 
ATOM     11  C   UNL     1      34.272 -16.044 -23.993  0.00  0.00    +0.335 A 
ATOM     12  H   UNL     1      32.987 -13.643 -19.910  0.00  0.00    +0.148 HD
ATOM     13  H   UNL     1      31.626 -12.788 -23.673  0.00  0.00    +0.150 HD
ENDROOT
BRANCH   7  14
ATOM     14  C   UNL     1      31.244 -11.774 -21.026  0.00  0.00    +0.037 C 
ATOM     15  C   UNL     1      31.373 -10.425 -21.761  0.00  0.00    +0.003 C 
ATOM     16  C   UNL     1      31.632 -11.496 -19.564  0.00  0.00    +0.003 C 
ATOM     17  C   UNL     1      31.984  -9.461 -20.750  0.00  0.00    +0.000 C 
ATOM     18  C   UNL     1      31.499  -9.987 -19.411  0.00  0.00    +0.000 C 
ENDBRANCH   7  14
BRANCH   5  19
ATOM     19  C   UNL     1      32.821 -14.589 -25.412  0.00  0.00    +0.112 C 
BRANCH  19  20
ATOM     20  C   UNL     1      33.476 -13.301 -25.902  0.00  0.00    +0.025 C 
ATOM     21  C   UNL     1      33.455 -13.211 -27.420  0.00  0.00    +0.002 C 
ENDBRANCH  19  20
ENDBRANCH   5  19
BRANCH   6  22
ATOM     22  C   UNL     1      35.681 -17.432 -22.516  0.00  0.00    +0.114 C 
BRANCH  22  23
ATOM     23  C   UNL     1      34.930 -18.747 -22.327  0.00  0.00    +0.025 C 
ATOM     24  C   UNL     1      35.329 -19.430 -21.027  0.00  0.00    +0.002 C 
ENDBRANCH  22  23
ENDBRANCH   6  22
TORSDOF 5
ENDMDL
MODEL 2
REMARK VINA RESULT:      -9.4      8.335     11.870
REMARK  Name = 1329
REMARK  5 active torsions:
REMARK  status: ('A' for Active; 'I' for Inactive)
REMARK    1  A    between atoms: N_5  and  C_19
REMARK    2  A    between atoms: N_6  and  C_22
REMARK    3  A    between atoms: C_7  and  C_14
REMARK    4  A    between atoms: C_19  and  C_20
REMARK    5  A    between atoms: C_22  and  C_23
REMARK                            x       y       z     vdW  Elec       q    Type
REMARK                         _______ _______ _______ _____ _____    ______ ____
ROOT
ATOM      1  O   UNL     1      37.566 -22.779 -15.023  0.00  0.00    -0.265 OA
ATOM      2  O   UNL     1      33.819 -24.353 -12.671  0.00  0.00    -0.246 OA
ATOM      3  N   UNL     1      35.708 -22.467 -17.339  0.00  0.00    -0.313 N 
ATOM      4  N   UNL     1      33.541 -22.982 -17.240  0.00  0.00    -0.304 N 
ATOM      5  N   UNL     1      33.537 -23.720 -14.892  0.00  0.00    -0.269 N 
ATOM      6  N   UNL     1      35.704 -23.573 -13.821  0.00  0.00    -0.248 N 
ATOM      7  C   UNL     1      34.511 -22.526 -18.006  0.00  0.00    +0.145 C 
ATOM      8  C   UNL     1      35.480 -22.916 -16.069  0.00  0.00    +0.133 A 
ATOM      9  C   UNL     1      34.147 -23.225 -16.037  0.00  0.00    +0.132 A 
ATOM     10  C   UNL     1      36.373 -23.064 -14.966  0.00  0.00    +0.280 A 
ATOM     11  C   UNL     1      34.308 -23.916 -13.719  0.00  0.00    +0.335 A 
ATOM     12  H   UNL     1      36.568 -22.160 -17.705  0.00  0.00    +0.148 HD
ATOM     13  H   UNL     1      32.596 -23.119 -17.480  0.00  0.00    +0.150 HD
ENDROOT
BRANCH   7  14
ATOM     14  C   UNL     1      34.397 -22.098 -19.454  0.00  0.00    +0.037 C 
ATOM     15  C   UNL     1      35.708 -21.539 -20.041  0.00  0.00    +0.003 C 
ATOM     16  C   UNL     1      33.337 -21.005 -19.672  0.00  0.00    +0.003 C 
ATOM     17  C   UNL     1      35.405 -20.095 -20.423  0.00  0.00    +0.000 C 
ATOM     18  C   UNL     1      33.924 -20.111 -20.755  0.00  0.00    +0.000 C 
ENDBRANCH   7  14
BRANCH   5  19
ATOM     19  C   UNL     1      32.114 -24.035 -14.906  0.00  0.00    +0.112 C 
BRANCH  19  20
ATOM     20  C   UNL     1      31.295 -22.800 -14.539  0.00  0.00    +0.025 C 
ATOM     21  C   UNL     1      29.882 -22.886 -15.096  0.00  0.00    +0.002 C 
ENDBRANCH  19  20
ENDBRANCH   5  19
BRANCH   6  22
ATOM     22  C   UNL     1      36.515 -23.768 -12.624  0.00  0.00    +0.114 C 
BRANCH  22  23
ATOM     23  C   UNL     1      37.001 -25.212 -12.543  0.00  0.00    +0.025 C 
ATOM     24  C   UNL     1      38.509 -25.300 -12.719  0.00  0.00    +0.002 C 
ENDBRANCH  22  23
ENDBRANCH   6  22
TORSDOF 5
ENDMDL
MODEL 3
REMARK VINA RESULT:      -9.1      3.159      5.606
REMARK  Name = 1329
REMARK  5 active torsions:
REMARK  status: ('A' for Active; 'I' for Inactive)
REMARK    1  A    between atoms: N_5  and  C_19
REMARK    2  A    between atoms: N_6  and  C_22
REMARK    3  A    between atoms: C_7  and  C_14
REMARK    4  A    between atoms: C_19  and  C_20
REMARK    5  A    between atoms: C_22  and  C_23
REMARK                            x       y       z     vdW  Elec       q    Type
REMARK                         _______ _______ _______ _____ _____    ______ ____
ROOT
ATOM      1  O   UNL     1      34.564 -11.265 -25.180  0.00  0.00    -0.265 OA
ATOM      2  O   UNL     1      31.959 -13.765 -22.178  0.00  0.00    -0.246 OA
ATOM      3  N   UNL     1      33.365  -8.861 -23.878  0.00  0.00    -0.313 N 
ATOM      4  N   UNL     1      31.891  -8.988 -22.210  0.00  0.00    -0.304 N 
ATOM      5  N   UNL     1      31.826 -11.444 -22.081  0.00  0.00    -0.269 N 
ATOM      6  N   UNL     1      33.268 -12.543 -23.687  0.00  0.00    -0.248 N 
ATOM      7  C   UNL     1      32.569  -8.176 -22.996  0.00  0.00    +0.145 C 
ATOM      8  C   UNL     1      33.176 -10.192 -23.635  0.00  0.00    +0.133 A 
ATOM      9  C   UNL     1      32.270 -10.240 -22.611  0.00  0.00    +0.132 A 
ATOM     10  C   UNL     1      33.752 -11.337 -24.262  0.00  0.00    +0.280 A 
ATOM     11  C   UNL     1      32.318 -12.664 -22.610  0.00  0.00    +0.335 A 
ATOM     12  H   UNL     1      33.958  -8.469 -24.558  0.00  0.00    +0.148 HD
ATOM     13  H   UNL     1      31.256  -8.747 -21.498  0.00  0.00    +0.150 HD
ENDROOT
BRANCH   7  14
ATOM     14  C   UNL     1      32.529  -6.663 -22.986  0.00  0.00    +0.037 C 
ATOM     15  C   UNL     1      31.906  -6.067 -21.709  0.00  0.00    +0.003 C 
ATOM     16  C   UNL     1      31.724  -6.079 -24.160  0.00  0.00    +0.003 C 
ATOM     17  C   UNL     1      30.672  -5.300 -22.171  0.00  0.00    +0.000 C 
ATOM     18  C   UNL     1      31.029  -4.857 -23.578  0.00  0.00    +0.000 C 
ENDBRANCH   7  14
BRANCH   5  19
ATOM     19  C   UNL     1      30.859 -11.445 -20.990  0.00  0.00    +0.112 C 
BRANCH  19  20
ATOM     20  C   UNL     1      31.576 -11.558 -19.647  0.00  0.00    +0.025 C 
ATOM     21  C   UNL     1      31.584 -10.228 -18.909  0.00  0.00    +0.002 C 
ENDBRANCH  19  20
ENDBRANCH   5  19
BRANCH   6  22
ATOM     22  C   UNL     1      33.786 -13.787 -24.245  0.00  0.00    +0.114 C 
BRANCH  22  23
ATOM     23  C   UNL     1      32.953 -14.214 -25.451  0.00  0.00    +0.025 C 
ATOM     24  C   UNL     1      33.379 -15.583 -25.961  0.00  0.00    +0.002 C 
ENDBRANCH  22  23
ENDBRANCH   6  22
TORSDOF 5
ENDMDL
MODEL 4
REMARK VINA RESULT:      -9.0      8.034     11.890
REMARK  Name = 1329
REMARK  5 active torsions:
REMARK  status: ('A' for Active; 'I' for Inactive)
REMARK    1  A    between atoms: N_5  and  C_19
REMARK    2  A    between atoms: N_6  and  C_22
REMARK    3  A    between atoms: C_7  and  C_14
REMARK    4  A    between atoms: C_19  and  C_20
REMARK    5  A    between atoms: C_22  and  C_23
REMARK                            x       y       z     vdW  Elec       q    Type
REMARK                         _______ _______ _______ _____ _____    ______ ____
ROOT
ATOM      1  O   UNL     1      30.350 -22.889 -16.770  0.00  0.00    -0.265 OA
ATOM      2  O   UNL     1      33.235 -24.289 -13.340  0.00  0.00    -0.246 OA
ATOM      3  N   UNL     1      32.831 -22.368 -18.347  0.00  0.00    -0.313 N 
ATOM      4  N   UNL     1      34.880 -22.737 -17.549  0.00  0.00    -0.304 N 
ATOM      5  N   UNL     1      34.175 -23.557 -15.338  0.00  0.00    -0.269 N 
ATOM      6  N   UNL     1      31.773 -23.596 -15.034  0.00  0.00    -0.248 N 
ATOM      7  C   UNL     1      34.180 -22.319 -18.585  0.00  0.00    +0.145 C 
ATOM      8  C   UNL     1      32.667 -22.847 -17.078  0.00  0.00    +0.133 A 
ATOM      9  C   UNL     1      33.936 -23.063 -16.614  0.00  0.00    +0.132 A 
ATOM     10  C   UNL     1      31.477 -23.093 -16.329  0.00  0.00    +0.280 A 
ATOM     11  C   UNL     1      33.082 -23.847 -14.485  0.00  0.00    +0.335 A 
ATOM     12  H   UNL     1      32.116 -22.107 -18.970  0.00  0.00    +0.148 HD
ATOM     13  H   UNL     1      35.859 -22.799 -17.468  0.00  0.00    +0.150 HD
ENDROOT
BRANCH   7  14
ATOM     14  C   UNL     1      34.727 -21.831 -19.910  0.00  0.00    +0.037 C 
ATOM     15  C   UNL     1      36.254 -21.620 -19.910  0.00  0.00    +0.003 C 
ATOM     16  C   UNL     1      34.116 -20.490 -20.351  0.00  0.00    +0.003 C 
ATOM     17  C   UNL     1      36.465 -20.135 -20.186  0.00  0.00    +0.000 C 
ATOM     18  C   UNL     1      35.261 -19.750 -21.027  0.00  0.00    +0.000 C 
ENDBRANCH   7  14
BRANCH   5  19
ATOM     19  C   UNL     1      35.545 -23.771 -14.889  0.00  0.00    +0.112 C 
BRANCH  19  20
ATOM     20  C   UNL     1      35.942 -25.233 -15.076  0.00  0.00    +0.025 C 
ATOM     21  C   UNL     1      36.925 -25.681 -14.006  0.00  0.00    +0.002 C 
ENDBRANCH  19  20
ENDBRANCH   5  19
BRANCH   6  22
ATOM     22  C   UNL     1      30.634 -23.888 -14.171  0.00  0.00    +0.114 C 
BRANCH  22  23
ATOM     23  C   UNL     1      30.131 -25.307 -14.419  0.00  0.00    +0.025 C 
ATOM     24  C   UNL     1      28.674 -25.310 -14.856  0.00  0.00    +0.002 C 
ENDBRANCH  22  23
ENDBRANCH   6  22
TORSDOF 5
ENDMDL
MODEL 5
REMARK VINA RESULT:      -8.9      2.326      6.225
REMARK  Name = 1329
REMARK  5 active torsions:
REMARK  status: ('A' for Active; 'I' for Inactive)
REMARK    1  A    between atoms: N_5  and  C_19
REMARK    2  A    between atoms: N_6  and  C_22
REMARK    3  A    between atoms: C_7  and  C_14
REMARK    4  A    between atoms: C_19  and  C_20
REMARK    5  A    between atoms: C_22  and  C_23
REMARK                            x       y       z     vdW  Elec       q    Type
REMARK                         _______ _______ _______ _____ _____    ______ ____
ROOT
ATOM      1  O   UNL     1      32.020 -13.991 -20.139  0.00  0.00    -0.265 OA
ATOM      2  O   UNL     1      31.860 -10.200 -22.905  0.00  0.00    -0.246 OA
ATOM      3  N   UNL     1      33.761 -15.187 -22.249  0.00  0.00    -0.313 N 
ATOM      4  N   UNL     1      34.327 -14.108 -24.117  0.00  0.00    -0.304 N 
ATOM      5  N   UNL     1      33.101 -12.033 -23.622  0.00  0.00    -0.269 N 
ATOM      6  N   UNL     1      31.923 -12.078 -21.507  0.00  0.00    -0.248 N 
ATOM      7  C   UNL     1      34.451 -15.228 -23.433  0.00  0.00    +0.145 C 
ATOM      8  C   UNL     1      33.163 -13.961 -22.179  0.00  0.00    +0.133 A 
ATOM      9  C   UNL     1      33.525 -13.323 -23.333  0.00  0.00    +0.132 A 
ATOM     10  C   UNL     1      32.331 -13.395 -21.167  0.00  0.00    +0.280 A 
ATOM     11  C   UNL     1      32.267 -11.349 -22.701  0.00  0.00    +0.335 A 
ATOM     12  H   UNL     1      33.708 -15.904 -21.577  0.00  0.00    +0.148 HD
ATOM     13  H   UNL     1      34.722 -13.888 -24.991  0.00  0.00    +0.150 HD
ENDROOT
BRANCH   7  14
ATOM     14  C   UNL     1      35.240 -16.455 -23.841  0.00  0.00    +0.037 C 
ATOM     15  C   UNL     1      34.797 -17.058 -25.189  0.00  0.00    +0.003 C 
ATOM     16  C   UNL     1      35.141 -17.597 -22.815  0.00  0.00    +0.003 C 
ATOM     17  C   UNL     1      34.304 -18.465 -24.869  0.00  0.00    +0.000 C 
ATOM     18  C   UNL     1      35.121 -18.867 -23.654  0.00  0.00    +0.000 C 
ENDBRANCH   7  14
BRANCH   5  19
ATOM     19  C   UNL     1      33.513 -11.394 -24.866  0.00  0.00    +0.112 C 
BRANCH  19  20
ATOM     20  C   UNL     1      34.718 -10.490 -24.623  0.00  0.00    +0.025 C 
ATOM     21  C   UNL     1      35.552 -10.327 -25.885  0.00  0.00    +0.002 C 
ENDBRANCH  19  20
ENDBRANCH   5  19
BRANCH   6  22
ATOM     22  C   UNL     1      31.065 -11.392 -20.547  0.00  0.00    +0.114 C 
BRANCH  22  23
ATOM     23  C   UNL     1      31.909 -10.736 -19.457  0.00  0.00    +0.025 C 
ATOM     24  C   UNL     1      31.921  -9.221 -19.602  0.00  0.00    +0.002 C 
ENDBRANCH  22  23
ENDBRANCH   6  22
TORSDOF 5
ENDMDL
MODEL 6
REMARK VINA RESULT:      -8.8      5.693      9.968
REMARK  Name = 1329
REMARK  5 active torsions:
REMARK  status: ('A' for Active; 'I' for Inactive)
REMARK    1  A    between atoms: N_5  and  C_19
REMARK    2  A    between atoms: N_6  and  C_22
REMARK    3  A    between atoms: C_7  and  C_14
REMARK    4  A    between atoms: C_19  and  C_20
REMARK    5  A    between atoms: C_22  and  C_23
REMARK                            x       y       z     vdW  Elec       q    Type
REMARK                         _______ _______ _______ _____ _____    ______ ____
ROOT
ATOM      1  O   UNL     1      32.315 -20.349 -20.773  0.00  0.00    -0.265 OA
ATOM      2  O   UNL     1      36.999 -20.299 -20.456  0.00  0.00    -0.246 OA
ATOM      3  N   UNL     1      32.392 -22.165 -18.405  0.00  0.00    -0.313 N 
ATOM      4  N   UNL     1      34.288 -22.803 -17.421  0.00  0.00    -0.304 N 
ATOM      5  N   UNL     1      35.805 -21.564 -18.910  0.00  0.00    -0.269 N 
ATOM      6  N   UNL     1      34.664 -20.307 -20.637  0.00  0.00    -0.248 N 
ATOM      7  C   UNL     1      32.974 -22.899 -17.404  0.00  0.00    +0.145 C 
ATOM      8  C   UNL     1      33.404 -21.566 -19.101  0.00  0.00    +0.133 A 
ATOM      9  C   UNL     1      34.552 -21.974 -18.478  0.00  0.00    +0.132 A 
ATOM     10  C   UNL     1      33.360 -20.699 -20.233  0.00  0.00    +0.280 A 
ATOM     11  C   UNL     1      35.911 -20.698 -20.028  0.00  0.00    +0.335 A 
ATOM     12  H   UNL     1      31.429 -22.084 -18.588  0.00  0.00    +0.148 HD
ATOM     13  H   UNL     1      34.932 -23.231 -16.813  0.00  0.00    +0.150 HD
ENDROOT
BRANCH   7  14
ATOM     14  C   UNL     1      32.137 -23.701 -16.430  0.00  0.00    +0.037 C 
ATOM     15  C   UNL     1      30.698 -23.175 -16.268  0.00  0.00    +0.003 C 
ATOM     16  C   UNL     1      32.736 -23.733 -15.014  0.00  0.00    +0.003 C 
ATOM     17  C   UNL     1      30.570 -22.768 -14.805  0.00  0.00    +0.000 C 
ATOM     18  C   UNL     1      31.530 -23.698 -14.086  0.00  0.00    +0.000 C 
ENDBRANCH   7  14
BRANCH   5  19
ATOM     19  C   UNL     1      37.000 -22.025 -18.214  0.00  0.00    +0.112 C 
BRANCH  19  20
ATOM     20  C   UNL     1      37.115 -21.348 -16.852  0.00  0.00    +0.025 C 
ATOM     21  C   UNL     1      37.369 -22.363 -15.748  0.00  0.00    +0.002 C 
ENDBRANCH  19  20
ENDBRANCH   5  19
BRANCH   6  22
ATOM     22  C   UNL     1      34.751 -19.416 -21.790  0.00  0.00    +0.114 C 
BRANCH  22  23
ATOM     23  C   UNL     1      34.689 -17.960 -21.339  0.00  0.00    +0.025 C 
ATOM     24  C   UNL     1      35.192 -17.022 -22.426  0.00  0.00    +0.002 C 
ENDBRANCH  22  23
ENDBRANCH   6  22
TORSDOF 5
ENDMDL
MODEL 7
REMARK VINA RESULT:      -8.7      2.939      6.992
REMARK  Name = 1329
REMARK  5 active torsions:
REMARK  status: ('A' for Active; 'I' for Inactive)
REMARK    1  A    between atoms: N_5  and  C_19
REMARK    2  A    between atoms: N_6  and  C_22
REMARK    3  A    between atoms: C_7  and  C_14
REMARK    4  A    between atoms: C_19  and  C_20
REMARK    5  A    between atoms: C_22  and  C_23
REMARK                            x       y       z     vdW  Elec       q    Type
REMARK                         _______ _______ _______ _____ _____    ______ ____
ROOT
ATOM      1  O   UNL     1      34.593 -11.132 -25.177  0.00  0.00    -0.265 OA
ATOM      2  O   UNL     1      31.451  -9.128 -22.321  0.00  0.00    -0.246 OA
ATOM      3  N   UNL     1      33.951 -13.671 -23.744  0.00  0.00    -0.313 N 
ATOM      4  N   UNL     1      32.466 -13.791 -22.085  0.00  0.00    -0.304 N 
ATOM      5  N   UNL     1      31.846 -11.410 -22.093  0.00  0.00    -0.269 N 
ATOM      6  N   UNL     1      33.023 -10.102 -23.757  0.00  0.00    -0.248 N 
ATOM      7  C   UNL     1      33.321 -14.469 -22.824  0.00  0.00    +0.145 C 
ATOM      8  C   UNL     1      33.463 -12.407 -23.576  0.00  0.00    +0.133 A 
ATOM      9  C   UNL     1      32.558 -12.509 -22.555  0.00  0.00    +0.132 A 
ATOM     10  C   UNL     1      33.775 -11.196 -24.264  0.00  0.00    +0.280 A 
ATOM     11  C   UNL     1      32.056 -10.141 -22.689  0.00  0.00    +0.335 A 
ATOM     12  H   UNL     1      34.626 -13.955 -24.401  0.00  0.00    +0.148 HD
ATOM     13  H   UNL     1      31.893 -14.131 -21.360  0.00  0.00    +0.150 HD
ENDROOT
BRANCH   7  14
ATOM     14  C   UNL     1      33.625 -15.950 -22.729  0.00  0.00    +0.037 C 
ATOM     15  C   UNL     1      33.647 -16.486 -21.284  0.00  0.00    +0.003 C 
ATOM     16  C   UNL     1      34.989 -16.319 -23.336  0.00  0.00    +0.003 C 
ATOM     17  C   UNL     1      35.066 -16.995 -21.054  0.00  0.00    +0.000 C 
ATOM     18  C   UNL     1      35.524 -17.424 -22.436  0.00  0.00    +0.000 C 
ENDBRANCH   7  14
BRANCH   5  19
ATOM     19  C   UNL     1      30.892 -11.569 -21.003  0.00  0.00    +0.112 C 
BRANCH  19  20
ATOM     20  C   UNL     1      31.617 -11.559 -19.659  0.00  0.00    +0.025 C 
ATOM     21  C   UNL     1      31.594 -10.175 -19.027  0.00  0.00    +0.002 C 
ENDBRANCH  19  20
ENDBRANCH   5  19
BRANCH   6  22
ATOM     22  C   UNL     1      33.255  -8.805 -24.384  0.00  0.00    +0.114 C 
BRANCH  22  23
ATOM     23  C   UNL     1      34.447  -8.109 -23.734  0.00  0.00    +0.025 C 
ATOM     24  C   UNL     1      34.748  -6.779 -24.411  0.00  0.00    +0.002 C 
ENDBRANCH  22  23
ENDBRANCH   6  22
TORSDOF 5
ENDMDL
MODEL 8
REMARK VINA RESULT:      -8.6      7.650     11.322
REMARK  Name = 1329
REMARK  5 active torsions:
REMARK  status: ('A' for Active; 'I' for Inactive)
REMARK    1  A    between atoms: N_5  and  C_19
REMARK    2  A    between atoms: N_6  and  C_22
REMARK    3  A    between atoms: C_7  and  C_14
REMARK    4  A    between atoms: C_19  and  C_20
REMARK    5  A    between atoms: C_22  and  C_23
REMARK                            x       y       z     vdW  Elec       q    Type
REMARK                         _______ _______ _______ _____ _____    ______ ____
ROOT
ATOM      1  O   UNL     1      33.065 -22.122 -19.959  0.00  0.00    -0.265 OA
ATOM      2  O   UNL     1      37.074 -22.278 -17.521  0.00  0.00    -0.246 OA
ATOM      3  N   UNL     1      31.739 -22.943 -17.414  0.00  0.00    -0.313 N 
ATOM      4  N   UNL     1      32.859 -23.304 -15.519  0.00  0.00    -0.304 N 
ATOM      5  N   UNL     1      35.095 -22.803 -16.417  0.00  0.00    -0.269 N 
ATOM      6  N   UNL     1      35.089 -22.193 -18.761  0.00  0.00    -0.248 N 
ATOM      7  C   UNL     1      31.671 -23.297 -16.091  0.00  0.00    +0.145 C 
ATOM      8  C   UNL     1      33.055 -22.712 -17.697  0.00  0.00    +0.133 A 
ATOM      9  C   UNL     1      33.717 -22.940 -16.522  0.00  0.00    +0.132 A 
ATOM     10  C   UNL     1      33.683 -22.320 -18.918  0.00  0.00    +0.280 A 
ATOM     11  C   UNL     1      35.847 -22.417 -17.555  0.00  0.00    +0.335 A 
ATOM     12  H   UNL     1      30.984 -22.870 -18.040  0.00  0.00    +0.148 HD
ATOM     13  H   UNL     1      33.077 -23.522 -14.585  0.00  0.00    +0.150 HD
ENDROOT
BRANCH   7  14
ATOM     14  C   UNL     1      30.348 -23.628 -15.433  0.00  0.00    +0.037 C 
ATOM     15  C   UNL     1      29.602 -24.802 -16.096  0.00  0.00    +0.003 C 
ATOM     16  C   UNL     1      29.365 -22.445 -15.442  0.00  0.00    +0.003 C 
ATOM     17  C   UNL     1      28.290 -24.220 -16.609  0.00  0.00    +0.000 C 
ATOM     18  C   UNL     1      27.998 -23.083 -15.647  0.00  0.00    +0.000 C 
ENDBRANCH   7  14
BRANCH   5  19
ATOM     19  C   UNL     1      35.755 -23.058 -15.143  0.00  0.00    +0.112 C 
BRANCH  19  20
ATOM     20  C   UNL     1      36.211 -24.512 -15.064  0.00  0.00    +0.025 C 
ATOM     21  C   UNL     1      37.706 -24.610 -14.803  0.00  0.00    +0.002 C 
ENDBRANCH  19  20
ENDBRANCH   5  19
BRANCH   6  22
ATOM     22  C   UNL     1      35.845 -21.795 -19.944  0.00  0.00    +0.114 C 
BRANCH  22  23
ATOM     23  C   UNL     1      35.953 -20.275 -20.016  0.00  0.00    +0.025 C 
ATOM     24  C   UNL     1      35.245 -19.727 -21.247  0.00  0.00    +0.002 C 
ENDBRANCH  22  23
ENDBRANCH   6  22
TORSDOF 5
ENDMDL
MODEL 9
REMARK VINA RESULT:      -8.5      9.773     13.206
REMARK  Name = 1329
REMARK  5 active torsions:
REMARK  status: ('A' for Active; 'I' for Inactive)
REMARK    1  A    between atoms: N_5  and  C_19
REMARK    2  A    between atoms: N_6  and  C_22
REMARK    3  A    between atoms: C_7  and  C_14
REMARK    4  A    between atoms: C_19  and  C_20
REMARK    5  A    between atoms: C_22  and  C_23
REMARK                            x       y       z     vdW  Elec       q    Type
REMARK                         _______ _______ _______ _____ _____    ______ ____
ROOT
ATOM      1  O   UNL     1      31.534 -23.981 -12.995  0.00  0.00    -0.265 OA
ATOM      2  O   UNL     1      31.326 -22.458 -17.431  0.00  0.00    -0.246 OA
ATOM      3  N   UNL     1      34.336 -24.789 -13.634  0.00  0.00    -0.313 N 
ATOM      4  N   UNL     1      35.267 -24.475 -15.635  0.00  0.00    -0.304 N 
ATOM      5  N   UNL     1      33.310 -23.421 -16.691  0.00  0.00    -0.269 N 
ATOM      6  N   UNL     1      31.403 -23.209 -15.215  0.00  0.00    -0.248 N 
ATOM      7  C   UNL     1      35.452 -24.940 -14.416  0.00  0.00    +0.145 C 
ATOM      8  C   UNL     1      33.384 -24.190 -14.409  0.00  0.00    +0.133 A 
ATOM      9  C   UNL     1      33.980 -24.010 -15.627  0.00  0.00    +0.132 A 
ATOM     10  C   UNL     1      32.045 -23.807 -14.097  0.00  0.00    +0.280 A 
ATOM     11  C   UNL     1      31.971 -22.989 -16.521  0.00  0.00    +0.335 A 
ATOM     12  H   UNL     1      34.239 -25.061 -12.693  0.00  0.00    +0.148 HD
ATOM     13  H   UNL     1      35.909 -24.466 -16.381  0.00  0.00    +0.150 HD
ENDROOT
BRANCH   7  14
ATOM     14  C   UNL     1      36.713 -25.577 -13.871  0.00  0.00    +0.037 C 
ATOM     15  C   UNL     1      36.894 -25.393 -12.352  0.00  0.00    +0.003 C 
ATOM     16  C   UNL     1      37.992 -25.019 -14.518  0.00  0.00    +0.003 C 
ATOM     17  C   UNL     1      38.181 -24.594 -12.183  0.00  0.00    +0.000 C 
ATOM     18  C   UNL     1      39.013 -24.990 -13.390  0.00  0.00    +0.000 C 
ENDBRANCH   7  14
BRANCH   5  19
ATOM     19  C   UNL     1      33.988 -23.251 -17.970  0.00  0.00    +0.112 C 
BRANCH  19  20
ATOM     20  C   UNL     1      35.000 -22.112 -17.886  0.00  0.00    +0.025 C 
ATOM     21  C   UNL     1      35.542 -21.750 -19.261  0.00  0.00    +0.002 C 
ENDBRANCH  19  20
ENDBRANCH   5  19
BRANCH   6  22
ATOM     22  C   UNL     1      30.024 -22.773 -15.019  0.00  0.00    +0.114 C 
BRANCH  22  23
ATOM     23  C   UNL     1      29.057 -23.901 -15.368  0.00  0.00    +0.025 C 
ATOM     24  C   UNL     1      28.113 -23.494 -16.490  0.00  0.00    +0.002 C 
ENDBRANCH  22  23
ENDBRANCH   6  22
TORSDOF 5
ENDMDL
