MODEL 1
REMARK VINA RESULT:     -10.9      0.000      0.000
REMARK  Name = 21389
REMARK  4 active torsions:
REMARK  status: ('A' for Active; 'I' for Inactive)
REMARK    1  A    between atoms: N_2  and  C_9
REMARK    2  A    between atoms: N_3  and  C_21
REMARK    3  A    between atoms: C_7  and  C_16
REMARK    4  A    between atoms: C_19  and  C_28
REMARK                            x       y       z     vdW  Elec       q    Type
REMARK                         _______ _______ _______ _____ _____    ______ ____
ROOT
ATOM      1  O   UNL     1      33.292 -20.094 -20.706  0.00  0.00    -0.252 OA
ATOM      2  N   UNL     1      35.287 -20.869 -19.752  0.00  0.00    -0.268 N 
ATOM      3  N   UNL     1      35.367 -19.402 -21.534  0.00  0.00    -0.268 N 
ATOM      4  C   UNL     1      34.519 -20.115 -20.672  0.00  0.00    +0.308 C 
ATOM      5  H   UNL     1      36.264 -20.789 -19.844  0.00  0.00    +0.156 HD
ATOM      6  H   UNL     1      36.333 -19.520 -21.384  0.00  0.00    +0.156 HD
ENDROOT
BRANCH   2   9
ATOM      7  C   UNL     1      35.258 -22.891 -16.665  0.00  0.00    +0.033 C 
ATOM      8  C   UNL     1      35.699 -22.046 -17.682  0.00  0.00    +0.017 C 
ATOM      9  C   UNL     1      34.844 -21.712 -18.732  0.00  0.00    +0.052 C 
ATOM     10  C   UNL     1      33.960 -23.402 -16.695  0.00  0.00    +0.003 C 
ATOM     11  C   UNL     1      33.546 -22.223 -18.763  0.00  0.00    +0.015 C 
ATOM     12  C   UNL     1      33.104 -23.068 -17.745  0.00  0.00    +0.001 C 
BRANCH   7  16
ATOM     13  N   UNL     1      37.405 -23.735 -15.778  0.00  0.00    -0.296 N 
ATOM     14  N   UNL     1      35.799 -23.098 -14.312  0.00  0.00    -0.228 NA
ATOM     15  C   UNL     1      38.064 -23.983 -14.531  0.00  0.00    +0.084 C 
ATOM     16  C   UNL     1      36.149 -23.239 -15.569  0.00  0.00    +0.132 C 
ATOM     17  C   UNL     1      36.981 -23.566 -13.532  0.00  0.00    +0.116 C 
ATOM     18  H   UNL     1      37.802 -23.899 -16.663  0.00  0.00    +0.154 HD
ENDBRANCH   7  16
ENDBRANCH   2   9
BRANCH   3  21
ATOM     19  C   UNL     1      34.175 -16.408 -23.335  0.00  0.00    +0.033 C 
ATOM     20  C   UNL     1      34.534 -17.264 -22.293  0.00  0.00    +0.017 C 
ATOM     21  C   UNL     1      35.005 -18.533 -22.590  0.00  0.00    +0.052 C 
ATOM     22  C   UNL     1      34.293 -16.833 -24.659  0.00  0.00    +0.003 C 
ATOM     23  C   UNL     1      35.128 -18.969 -23.899  0.00  0.00    +0.015 C 
ATOM     24  C   UNL     1      34.769 -18.113 -24.941  0.00  0.00    +0.001 C 
BRANCH  19  28
ATOM     25  N   UNL     1      32.747 -14.838 -22.070  0.00  0.00    -0.296 N 
ATOM     26  N   UNL     1      34.098 -14.014 -23.692  0.00  0.00    -0.228 NA
ATOM     27  C   UNL     1      32.446 -13.440 -21.989  0.00  0.00    +0.084 C 
ATOM     28  C   UNL     1      33.680 -15.073 -23.041  0.00  0.00    +0.132 C 
ATOM     29  C   UNL     1      33.347 -12.875 -23.091  0.00  0.00    +0.116 C 
ATOM     30  H   UNL     1      32.340 -15.532 -21.504  0.00  0.00    +0.154 HD
ENDBRANCH  19  28
ENDBRANCH   3  21
TORSDOF 4
ENDMDL
MODEL 2
REMARK VINA RESULT:     -10.9      0.054      9.806
REMARK  Name = 21389
REMARK  4 active torsions:
REMARK  status: ('A' for Active; 'I' for Inactive)
REMARK    1  A    between atoms: N_2  and  C_9
REMARK    2  A    between atoms: N_3  and  C_21
REMARK    3  A    between atoms: C_7  and  C_16
REMARK    4  A    between atoms: C_19  and  C_28
REMARK                            x       y       z     vdW  Elec       q    Type
REMARK                         _______ _______ _______ _____ _____    ______ ____
ROOT
ATOM      1  O   UNL     1      33.267 -20.102 -20.712  0.00  0.00    -0.252 OA
ATOM      2  N   UNL     1      35.340 -19.410 -21.558  0.00  0.00    -0.268 N 
ATOM      3  N   UNL     1      35.266 -20.867 -19.767  0.00  0.00    -0.268 N 
ATOM      4  C   UNL     1      34.494 -20.128 -20.678  0.00  0.00    +0.308 C 
ATOM      5  H   UNL     1      36.307 -19.526 -21.411  0.00  0.00    +0.156 HD
ATOM      6  H   UNL     1      36.242 -20.785 -19.863  0.00  0.00    +0.156 HD
ENDROOT
BRANCH   2   9
ATOM      7  C   UNL     1      34.164 -16.422 -23.377  0.00  0.00    +0.033 C 
ATOM      8  C   UNL     1      34.520 -17.272 -22.331  0.00  0.00    +0.017 C 
ATOM      9  C   UNL     1      34.986 -18.558 -22.605  0.00  0.00    +0.052 C 
ATOM     10  C   UNL     1      34.274 -16.857 -24.699  0.00  0.00    +0.003 C 
ATOM     11  C   UNL     1      35.096 -18.993 -23.926  0.00  0.00    +0.015 C 
ATOM     12  C   UNL     1      34.740 -18.142 -24.973  0.00  0.00    +0.001 C 
BRANCH   7  16
ATOM     13  N   UNL     1      32.735 -14.833 -22.136  0.00  0.00    -0.296 N 
ATOM     14  N   UNL     1      34.119 -14.027 -23.739  0.00  0.00    -0.228 NA
ATOM     15  C   UNL     1      32.448 -13.431 -22.062  0.00  0.00    +0.084 C 
ATOM     16  C   UNL     1      33.678 -15.081 -23.093  0.00  0.00    +0.132 C 
ATOM     17  C   UNL     1      33.372 -12.878 -23.150  0.00  0.00    +0.116 C 
ATOM     18  H   UNL     1      32.310 -15.522 -21.577  0.00  0.00    +0.154 HD
ENDBRANCH   7  16
ENDBRANCH   2   9
BRANCH   3  21
ATOM     19  C   UNL     1      35.232 -22.884 -16.676  0.00  0.00    +0.033 C 
ATOM     20  C   UNL     1      35.678 -22.048 -17.700  0.00  0.00    +0.017 C 
ATOM     21  C   UNL     1      34.813 -21.713 -18.728  0.00  0.00    +0.052 C 
ATOM     22  C   UNL     1      33.925 -23.373 -16.695  0.00  0.00    +0.003 C 
ATOM     23  C   UNL     1      33.512 -22.191 -18.761  0.00  0.00    +0.015 C 
ATOM     24  C   UNL     1      33.065 -23.026 -17.738  0.00  0.00    +0.001 C 
BRANCH  19  28
ATOM     25  N   UNL     1      37.411 -23.658 -15.807  0.00  0.00    -0.296 N 
ATOM     26  N   UNL     1      35.754 -23.196 -14.332  0.00  0.00    -0.228 NA
ATOM     27  C   UNL     1      38.067 -23.942 -14.566  0.00  0.00    +0.084 C 
ATOM     28  C   UNL     1      36.127 -23.245 -15.589  0.00  0.00    +0.132 C 
ATOM     29  C   UNL     1      36.951 -23.643 -13.562  0.00  0.00    +0.116 C 
ATOM     30  H   UNL     1      37.828 -23.748 -16.694  0.00  0.00    +0.154 HD
ENDBRANCH  19  28
ENDBRANCH   3  21
TORSDOF 4
ENDMDL
MODEL 3
REMARK VINA RESULT:     -10.8      5.766     13.350
REMARK  Name = 21389
REMARK  4 active torsions:
REMARK  status: ('A' for Active; 'I' for Inactive)
REMARK    1  A    between atoms: N_2  and  C_9
REMARK    2  A    between atoms: N_3  and  C_21
REMARK    3  A    between atoms: C_7  and  C_16
REMARK    4  A    between atoms: C_19  and  C_28
REMARK                            x       y       z     vdW  Elec       q    Type
REMARK                         _______ _______ _______ _____ _____    ______ ____
ROOT
ATOM      1  O   UNL     1      32.038 -11.246 -22.705  0.00  0.00    -0.252 OA
ATOM      2  N   UNL     1      33.468  -9.467 -23.234  0.00  0.00    -0.268 N 
ATOM      3  N   UNL     1      33.887 -11.566 -24.102  0.00  0.00    -0.268 N 
ATOM      4  C   UNL     1      33.027 -10.811 -23.288  0.00  0.00    +0.308 C 
ATOM      5  H   UNL     1      34.280  -9.262 -23.752  0.00  0.00    +0.156 HD
ATOM      6  H   UNL     1      34.641 -11.076 -24.502  0.00  0.00    +0.156 HD
ENDROOT
BRANCH   2   9
ATOM      7  C   UNL     1      31.952  -6.173 -22.543  0.00  0.00    +0.033 C 
ATOM      8  C   UNL     1      32.510  -7.248 -23.234  0.00  0.00    +0.017 C 
ATOM      9  C   UNL     1      32.906  -8.392 -22.542  0.00  0.00    +0.052 C 
ATOM     10  C   UNL     1      31.789  -6.242 -21.159  0.00  0.00    +0.003 C 
ATOM     11  C   UNL     1      32.744  -8.462 -21.159  0.00  0.00    +0.015 C 
ATOM     12  C   UNL     1      32.185  -7.387 -20.467  0.00  0.00    +0.001 C 
BRANCH   7  16
ATOM     13  N   UNL     1      31.479  -3.751 -22.670  0.00  0.00    -0.296 N 
ATOM     14  N   UNL     1      31.195  -5.013 -24.530  0.00  0.00    -0.228 NA
ATOM     15  C   UNL     1      31.049  -2.757 -23.607  0.00  0.00    +0.084 C 
ATOM     16  C   UNL     1      31.538  -4.980 -23.264  0.00  0.00    +0.132 C 
ATOM     17  C   UNL     1      30.843  -3.603 -24.867  0.00  0.00    +0.116 C 
ATOM     18  H   UNL     1      31.701  -3.573 -21.728  0.00  0.00    +0.154 HD
ENDBRANCH   7  16
ENDBRANCH   2   9
BRANCH   3  21
ATOM     19  C   UNL     1      34.206 -15.233 -23.829  0.00  0.00    +0.033 C 
ATOM     20  C   UNL     1      34.289 -13.876 -23.517  0.00  0.00    +0.017 C 
ATOM     21  C   UNL     1      33.802 -12.942 -24.417  0.00  0.00    +0.052 C 
ATOM     22  C   UNL     1      33.636 -15.637 -25.037  0.00  0.00    +0.003 C 
ATOM     23  C   UNL     1      33.233 -13.329 -25.620  0.00  0.00    +0.015 C 
ATOM     24  C   UNL     1      33.149 -14.685 -25.932  0.00  0.00    +0.001 C 
BRANCH  19  28
ATOM     25  N   UNL     1      35.553 -17.231 -23.283  0.00  0.00    -0.296 N 
ATOM     26  N   UNL     1      34.392 -16.217 -21.624  0.00  0.00    -0.228 NA
ATOM     27  C   UNL     1      35.900 -18.057 -22.166  0.00  0.00    +0.084 C 
ATOM     28  C   UNL     1      34.713 -16.226 -22.895  0.00  0.00    +0.132 C 
ATOM     29  C   UNL     1      35.110 -17.386 -21.040  0.00  0.00    +0.116 C 
ATOM     30  H   UNL     1      35.876 -17.368 -24.203  0.00  0.00    +0.154 HD
ENDBRANCH  19  28
ENDBRANCH   3  21
TORSDOF 4
ENDMDL
MODEL 4
REMARK VINA RESULT:     -10.8      5.782     10.525
REMARK  Name = 21389
REMARK  4 active torsions:
REMARK  status: ('A' for Active; 'I' for Inactive)
REMARK    1  A    between atoms: N_2  and  C_9
REMARK    2  A    between atoms: N_3  and  C_21
REMARK    3  A    between atoms: C_7  and  C_16
REMARK    4  A    between atoms: C_19  and  C_28
REMARK                            x       y       z     vdW  Elec       q    Type
REMARK                         _______ _______ _______ _____ _____    ______ ____
ROOT
ATOM      1  O   UNL     1      32.027 -11.205 -22.706  0.00  0.00    -0.252 OA
ATOM      2  N   UNL     1      33.872 -11.555 -24.107  0.00  0.00    -0.268 N 
ATOM      3  N   UNL     1      33.474  -9.449 -23.246  0.00  0.00    -0.268 N 
ATOM      4  C   UNL     1      33.019 -10.776 -23.289  0.00  0.00    +0.308 C 
ATOM      5  H   UNL     1      34.630 -11.075 -24.512  0.00  0.00    +0.156 HD
ATOM      6  H   UNL     1      34.286  -9.255 -23.767  0.00  0.00    +0.156 HD
ENDROOT
BRANCH   2   9
ATOM      7  C   UNL     1      34.188 -15.222 -23.840  0.00  0.00    +0.033 C 
ATOM      8  C   UNL     1      34.276 -13.866 -23.528  0.00  0.00    +0.017 C 
ATOM      9  C   UNL     1      33.781 -12.913 -24.418  0.00  0.00    +0.052 C 
ATOM     10  C   UNL     1      33.605 -15.626 -25.042  0.00  0.00    +0.003 C 
ATOM     11  C   UNL     1      33.199 -13.315 -25.619  0.00  0.00    +0.015 C 
ATOM     12  C   UNL     1      33.111 -14.673 -25.931  0.00  0.00    +0.001 C 
BRANCH   7  16
ATOM     13  N   UNL     1      35.506 -17.247 -23.316  0.00  0.00    -0.296 N 
ATOM     14  N   UNL     1      34.425 -16.186 -21.630  0.00  0.00    -0.228 NA
ATOM     15  C   UNL     1      35.871 -18.069 -22.202  0.00  0.00    +0.084 C 
ATOM     16  C   UNL     1      34.703 -16.218 -22.912  0.00  0.00    +0.132 C 
ATOM     17  C   UNL     1      35.135 -17.366 -21.057  0.00  0.00    +0.116 C 
ATOM     18  H   UNL     1      35.793 -17.402 -24.244  0.00  0.00    +0.154 HD
ENDBRANCH   7  16
ENDBRANCH   2   9
BRANCH   3  21
ATOM     19  C   UNL     1      31.967  -6.150 -22.558  0.00  0.00    +0.033 C 
ATOM     20  C   UNL     1      32.522  -7.228 -23.249  0.00  0.00    +0.017 C 
ATOM     21  C   UNL     1      32.910  -8.357 -22.546  0.00  0.00    +0.052 C 
ATOM     22  C   UNL     1      31.808  -6.218 -21.173  0.00  0.00    +0.003 C 
ATOM     23  C   UNL     1      32.758  -8.438 -21.171  0.00  0.00    +0.015 C 
ATOM     24  C   UNL     1      32.203  -7.362 -20.480  0.00  0.00    +0.001 C 
BRANCH  19  28
ATOM     25  N   UNL     1      31.379  -3.753 -22.660  0.00  0.00    -0.296 N 
ATOM     26  N   UNL     1      31.324  -4.968 -24.571  0.00  0.00    -0.228 NA
ATOM     27  C   UNL     1      30.980  -2.754 -23.605  0.00  0.00    +0.084 C 
ATOM     28  C   UNL     1      31.554  -4.958 -23.280  0.00  0.00    +0.132 C 
ATOM     29  C   UNL     1      30.929  -3.569 -24.900  0.00  0.00    +0.116 C 
ATOM     30  H   UNL     1      31.510  -3.593 -21.698  0.00  0.00    +0.154 HD
ENDBRANCH  19  28
ENDBRANCH   3  21
TORSDOF 4
ENDMDL
MODEL 5
REMARK VINA RESULT:     -10.7      2.550      4.747
REMARK  Name = 21389
REMARK  4 active torsions:
REMARK  status: ('A' for Active; 'I' for Inactive)
REMARK    1  A    between atoms: N_2  and  C_9
REMARK    2  A    between atoms: N_3  and  C_21
REMARK    3  A    between atoms: C_7  and  C_16
REMARK    4  A    between atoms: C_19  and  C_28
REMARK                            x       y       z     vdW  Elec       q    Type
REMARK                         _______ _______ _______ _____ _____    ______ ____
ROOT
ATOM      1  O   UNL     1      35.759 -16.585 -23.469  0.00  0.00    -0.252 OA
ATOM      2  N   UNL     1      34.220 -17.617 -22.036  0.00  0.00    -0.268 N 
ATOM      3  N   UNL     1      33.535 -15.866 -23.378  0.00  0.00    -0.268 N 
ATOM      4  C   UNL     1      34.623 -16.675 -23.013  0.00  0.00    +0.308 C 
ATOM      5  H   UNL     1      33.275 -17.571 -21.763  0.00  0.00    +0.156 HD
ATOM      6  H   UNL     1      32.684 -16.058 -22.924  0.00  0.00    +0.156 HD
ENDROOT
BRANCH   2   9
ATOM      7  C   UNL     1      35.126 -20.536 -19.968  0.00  0.00    +0.033 C 
ATOM      8  C   UNL     1      34.363 -19.555 -20.600  0.00  0.00    +0.017 C 
ATOM      9  C   UNL     1      34.983 -18.600 -21.406  0.00  0.00    +0.052 C 
ATOM     10  C   UNL     1      36.510 -20.563 -20.141  0.00  0.00    +0.003 C 
ATOM     11  C   UNL     1      36.367 -18.626 -21.579  0.00  0.00    +0.015 C 
ATOM     12  C   UNL     1      37.131 -19.608 -20.946  0.00  0.00    +0.001 C 
BRANCH   7  16
ATOM     13  N   UNL     1      33.121 -21.655 -19.054  0.00  0.00    -0.296 N 
ATOM     14  N   UNL     1      35.165 -22.377 -18.393  0.00  0.00    -0.228 NA
ATOM     15  C   UNL     1      32.758 -22.717 -18.163  0.00  0.00    +0.084 C 
ATOM     16  C   UNL     1      34.479 -21.533 -19.129  0.00  0.00    +0.132 C 
ATOM     17  C   UNL     1      34.134 -23.204 -17.702  0.00  0.00    +0.116 C 
ATOM     18  H   UNL     1      32.480 -21.091 -19.543  0.00  0.00    +0.154 HD
ENDBRANCH   7  16
ENDBRANCH   2   9
BRANCH   3  21
ATOM     19  C   UNL     1      33.699 -12.468 -24.812  0.00  0.00    +0.033 C 
ATOM     20  C   UNL     1      33.722 -13.510 -23.885  0.00  0.00    +0.017 C 
ATOM     21  C   UNL     1      33.513 -14.809 -24.318  0.00  0.00    +0.052 C 
ATOM     22  C   UNL     1      33.468 -12.741 -26.161  0.00  0.00    +0.003 C 
ATOM     23  C   UNL     1      33.283 -15.095 -25.655  0.00  0.00    +0.015 C 
ATOM     24  C   UNL     1      33.260 -14.054 -26.582  0.00  0.00    +0.001 C 
BRANCH  19  28
ATOM     25  N   UNL     1      35.032 -10.390 -24.719  0.00  0.00    -0.296 N 
ATOM     26  N   UNL     1      33.053 -10.463 -23.618  0.00  0.00    -0.228 NA
ATOM     27  C   UNL     1      34.984  -9.072 -24.160  0.00  0.00    +0.084 C 
ATOM     28  C   UNL     1      33.916 -11.099 -24.373  0.00  0.00    +0.132 C 
ATOM     29  C   UNL     1      33.654  -9.115 -23.403  0.00  0.00    +0.116 C 
ATOM     30  H   UNL     1      35.765 -10.736 -25.277  0.00  0.00    +0.154 HD
ENDBRANCH  19  28
ENDBRANCH   3  21
TORSDOF 4
ENDMDL
MODEL 6
REMARK VINA RESULT:     -10.4      3.479     11.055
REMARK  Name = 21389
REMARK  4 active torsions:
REMARK  status: ('A' for Active; 'I' for Inactive)
REMARK    1  A    between atoms: N_2  and  C_9
REMARK    2  A    between atoms: N_3  and  C_21
REMARK    3  A    between atoms: C_7  and  C_16
REMARK    4  A    between atoms: C_19  and  C_28
REMARK                            x       y       z     vdW  Elec       q    Type
REMARK                         _______ _______ _______ _____ _____    ______ ____
ROOT
ATOM      1  O   UNL     1      34.153 -14.087 -20.977  0.00  0.00    -0.252 OA
ATOM      2  N   UNL     1      32.105 -13.355 -21.846  0.00  0.00    -0.268 N 
ATOM      3  N   UNL     1      32.948 -15.409 -22.484  0.00  0.00    -0.268 N 
ATOM      4  C   UNL     1      33.174 -14.270 -21.694  0.00  0.00    +0.308 C 
ATOM      5  H   UNL     1      31.386 -13.636 -22.458  0.00  0.00    +0.156 HD
ATOM      6  H   UNL     1      32.115 -15.411 -23.008  0.00  0.00    +0.156 HD
ENDROOT
BRANCH   2   9
ATOM      7  C   UNL     1      31.769  -9.704 -21.427  0.00  0.00    +0.033 C 
ATOM      8  C   UNL     1      31.937 -10.951 -22.027  0.00  0.00    +0.017 C 
ATOM      9  C   UNL     1      31.933 -12.107 -21.246  0.00  0.00    +0.052 C 
ATOM     10  C   UNL     1      31.596  -9.611 -20.045  0.00  0.00    +0.003 C 
ATOM     11  C   UNL     1      31.760 -12.015 -19.865  0.00  0.00    +0.015 C 
ATOM     12  C   UNL     1      31.592 -10.767 -19.265  0.00  0.00    +0.001 C 
BRANCH   7  16
ATOM     13  N   UNL     1      32.417  -7.357 -21.854  0.00  0.00    -0.296 N 
ATOM     14  N   UNL     1      31.155  -8.435 -23.397  0.00  0.00    -0.228 NA
ATOM     15  C   UNL     1      32.264  -6.332 -22.842  0.00  0.00    +0.084 C 
ATOM     16  C   UNL     1      31.772  -8.498 -22.240  0.00  0.00    +0.132 C 
ATOM     17  C   UNL     1      31.402  -7.047 -23.885  0.00  0.00    +0.116 C 
ATOM     18  H   UNL     1      32.917  -7.254 -21.012  0.00  0.00    +0.154 HD
ENDBRANCH   7  16
ENDBRANCH   2   9
BRANCH   3  21
ATOM     19  C   UNL     1      34.477 -18.701 -21.817  0.00  0.00    +0.033 C 
ATOM     20  C   UNL     1      33.667 -17.573 -21.686  0.00  0.00    +0.017 C 
ATOM     21  C   UNL     1      33.769 -16.553 -22.618  0.00  0.00    +0.052 C 
ATOM     22  C   UNL     1      35.379 -18.792 -22.878  0.00  0.00    +0.003 C 
ATOM     23  C   UNL     1      34.659 -16.630 -23.677  0.00  0.00    +0.015 C 
ATOM     24  C   UNL     1      35.469 -17.757 -23.808  0.00  0.00    +0.001 C 
BRANCH  19  28
ATOM     25  N   UNL     1      35.484 -20.323 -20.249  0.00  0.00    -0.296 N 
ATOM     26  N   UNL     1      33.232 -20.302 -20.493  0.00  0.00    -0.228 NA
ATOM     27  C   UNL     1      35.103 -21.361 -19.338  0.00  0.00    +0.084 C 
ATOM     28  C   UNL     1      34.383 -19.782 -20.849  0.00  0.00    +0.132 C 
ATOM     29  C   UNL     1      33.582 -21.362 -19.505  0.00  0.00    +0.116 C 
ATOM     30  H   UNL     1      36.411 -20.039 -20.418  0.00  0.00    +0.154 HD
ENDBRANCH  19  28
ENDBRANCH   3  21
TORSDOF 4
ENDMDL
MODEL 7
REMARK VINA RESULT:     -10.4      3.551      7.328
REMARK  Name = 21389
REMARK  4 active torsions:
REMARK  status: ('A' for Active; 'I' for Inactive)
REMARK    1  A    between atoms: N_2  and  C_9
REMARK    2  A    between atoms: N_3  and  C_21
REMARK    3  A    between atoms: C_7  and  C_16
REMARK    4  A    between atoms: C_19  and  C_28
REMARK                            x       y       z     vdW  Elec       q    Type
REMARK                         _______ _______ _______ _____ _____    ______ ____
ROOT
ATOM      1  O   UNL     1      32.362 -14.935 -22.350  0.00  0.00    -0.252 OA
ATOM      2  N   UNL     1      34.293 -15.112 -23.665  0.00  0.00    -0.268 N 
ATOM      3  N   UNL     1      33.458 -13.024 -23.134  0.00  0.00    -0.268 N 
ATOM      4  C   UNL     1      33.273 -14.407 -22.981  0.00  0.00    +0.308 C 
ATOM      5  H   UNL     1      34.958 -14.554 -24.131  0.00  0.00    +0.156 HD
ATOM      6  H   UNL     1      34.236 -12.751 -23.671  0.00  0.00    +0.156 HD
ENDROOT
BRANCH   2   9
ATOM      7  C   UNL     1      35.026 -18.610 -22.746  0.00  0.00    +0.033 C 
ATOM      8  C   UNL     1      34.834 -17.233 -22.642  0.00  0.00    +0.017 C 
ATOM      9  C   UNL     1      34.481 -16.490 -23.769  0.00  0.00    +0.052 C 
ATOM     10  C   UNL     1      34.864 -19.246 -23.978  0.00  0.00    +0.003 C 
ATOM     11  C   UNL     1      34.319 -17.125 -25.000  0.00  0.00    +0.015 C 
ATOM     12  C   UNL     1      34.511 -18.504 -25.104  0.00  0.00    +0.001 C 
BRANCH   7  16
ATOM     13  N   UNL     1      34.523 -20.245 -20.962  0.00  0.00    -0.296 N 
ATOM     14  N   UNL     1      36.584 -19.305 -21.027  0.00  0.00    -0.228 NA
ATOM     15  C   UNL     1      35.145 -20.879 -19.838  0.00  0.00    +0.084 C 
ATOM     16  C   UNL     1      35.393 -19.386 -21.571  0.00  0.00    +0.132 C 
ATOM     17  C   UNL     1      36.537 -20.241 -19.867  0.00  0.00    +0.116 C 
ATOM     18  H   UNL     1      33.597 -20.405 -21.254  0.00  0.00    +0.154 HD
ENDBRANCH   7  16
ENDBRANCH   2   9
BRANCH   3  21
ATOM     19  C   UNL     1      31.924  -9.696 -22.698  0.00  0.00    +0.033 C 
ATOM     20  C   UNL     1      32.705 -10.729 -23.214  0.00  0.00    +0.017 C 
ATOM     21  C   UNL     1      32.665 -11.976 -22.611  0.00  0.00    +0.052 C 
ATOM     22  C   UNL     1      31.113  -9.923 -21.585  0.00  0.00    +0.003 C 
ATOM     23  C   UNL     1      31.864 -12.218 -21.507  0.00  0.00    +0.015 C 
ATOM     24  C   UNL     1      31.083 -11.185 -20.990  0.00  0.00    +0.001 C 
BRANCH  19  28
ATOM     25  N   UNL     1      33.121  -7.711 -23.553  0.00  0.00    -0.296 N 
ATOM     26  N   UNL     1      30.860  -7.759 -23.690  0.00  0.00    -0.228 NA
ATOM     27  C   UNL     1      32.860  -6.448 -24.178  0.00  0.00    +0.084 C 
ATOM     28  C   UNL     1      31.954  -8.381 -23.319  0.00  0.00    +0.132 C 
ATOM     29  C   UNL     1      31.332  -6.467 -24.265  0.00  0.00    +0.116 C 
ATOM     30  H   UNL     1      34.017  -8.049 -23.326  0.00  0.00    +0.154 HD
ENDBRANCH  19  28
ENDBRANCH   3  21
TORSDOF 4
ENDMDL
MODEL 8
REMARK VINA RESULT:     -10.4      2.428      3.898
REMARK  Name = 21389
REMARK  4 active torsions:
REMARK  status: ('A' for Active; 'I' for Inactive)
REMARK    1  A    between atoms: N_2  and  C_9
REMARK    2  A    between atoms: N_3  and  C_21
REMARK    3  A    between atoms: C_7  and  C_16
REMARK    4  A    between atoms: C_19  and  C_28
REMARK                            x       y       z     vdW  Elec       q    Type
REMARK                         _______ _______ _______ _____ _____    ______ ____
ROOT
ATOM      1  O   UNL     1      35.136 -16.880 -20.776  0.00  0.00    -0.252 OA
ATOM      2  N   UNL     1      34.368 -18.931 -21.609  0.00  0.00    -0.268 N 
ATOM      3  N   UNL     1      33.700 -16.965 -22.621  0.00  0.00    -0.268 N 
ATOM      4  C   UNL     1      34.470 -17.519 -21.586  0.00  0.00    +0.308 C 
ATOM      5  H   UNL     1      33.796 -19.307 -22.316  0.00  0.00    +0.156 HD
ATOM      6  H   UNL     1      33.219 -17.607 -23.191  0.00  0.00    +0.156 HD
ENDROOT
BRANCH   2   9
ATOM      7  C   UNL     1      34.787 -21.554 -19.046  0.00  0.00    +0.033 C 
ATOM      8  C   UNL     1      34.186 -20.625 -19.895  0.00  0.00    +0.017 C 
ATOM      9  C   UNL     1      34.969 -19.862 -20.761  0.00  0.00    +0.052 C 
ATOM     10  C   UNL     1      36.172 -21.720 -19.061  0.00  0.00    +0.003 C 
ATOM     11  C   UNL     1      36.354 -20.028 -20.777  0.00  0.00    +0.015 C 
ATOM     12  C   UNL     1      36.955 -20.957 -19.927  0.00  0.00    +0.001 C 
BRANCH   7  16
ATOM     13  N   UNL     1      32.605 -22.352 -18.203  0.00  0.00    -0.296 N 
ATOM     14  N   UNL     1      34.497 -23.116 -17.217  0.00  0.00    -0.228 NA
ATOM     15  C   UNL     1      32.058 -23.226 -17.208  0.00  0.00    +0.084 C 
ATOM     16  C   UNL     1      33.970 -22.350 -18.143  0.00  0.00    +0.132 C 
ATOM     17  C   UNL     1      33.330 -23.739 -16.528  0.00  0.00    +0.116 C 
ATOM     18  H   UNL     1      32.071 -21.826 -18.840  0.00  0.00    +0.154 HD
ENDBRANCH   7  16
ENDBRANCH   2   9
BRANCH   3  21
ATOM     19  C   UNL     1      32.693 -13.422 -22.380  0.00  0.00    +0.033 C 
ATOM     20  C   UNL     1      32.860 -14.770 -22.060  0.00  0.00    +0.017 C 
ATOM     21  C   UNL     1      33.531 -15.599 -22.944  0.00  0.00    +0.052 C 
ATOM     22  C   UNL     1      33.199 -12.923 -23.580  0.00  0.00    +0.003 C 
ATOM     23  C   UNL     1      34.040 -15.117 -24.140  0.00  0.00    +0.015 C 
ATOM     24  C   UNL     1      33.873 -13.770 -24.460  0.00  0.00    +0.001 C 
BRANCH  19  28
ATOM     25  N   UNL     1      31.005 -11.689 -21.878  0.00  0.00    -0.296 N 
ATOM     26  N   UNL     1      32.264 -12.504 -20.181  0.00  0.00    -0.228 NA
ATOM     27  C   UNL     1      30.483 -10.944 -20.772  0.00  0.00    +0.084 C 
ATOM     28  C   UNL     1      31.991 -12.539 -21.463  0.00  0.00    +0.132 C 
ATOM     29  C   UNL     1      31.336 -11.480 -19.620  0.00  0.00    +0.116 C 
ATOM     30  H   UNL     1      30.695 -11.602 -22.809  0.00  0.00    +0.154 HD
ENDBRANCH  19  28
ENDBRANCH   3  21
TORSDOF 4
ENDMDL
MODEL 9
REMARK VINA RESULT:     -10.4      2.459      4.605
REMARK  Name = 21389
REMARK  4 active torsions:
REMARK  status: ('A' for Active; 'I' for Inactive)
REMARK    1  A    between atoms: N_2  and  C_9
REMARK    2  A    between atoms: N_3  and  C_21
REMARK    3  A    between atoms: C_7  and  C_16
REMARK    4  A    between atoms: C_19  and  C_28
REMARK                            x       y       z     vdW  Elec       q    Type
REMARK                         _______ _______ _______ _____ _____    ______ ____
ROOT
ATOM      1  O   UNL     1      34.970 -16.097 -20.595  0.00  0.00    -0.252 OA
ATOM      2  N   UNL     1      34.303 -18.055 -21.696  0.00  0.00    -0.268 N 
ATOM      3  N   UNL     1      33.426 -16.021 -22.350  0.00  0.00    -0.268 N 
ATOM      4  C   UNL     1      34.302 -16.659 -21.458  0.00  0.00    +0.308 C 
ATOM      5  H   UNL     1      33.714 -18.365 -22.422  0.00  0.00    +0.156 HD
ATOM      6  H   UNL     1      32.957 -16.606 -22.987  0.00  0.00    +0.156 HD
ENDROOT
BRANCH   2   9
ATOM      7  C   UNL     1      35.086 -20.969 -19.571  0.00  0.00    +0.033 C 
ATOM      8  C   UNL     1      34.363 -19.976 -20.231  0.00  0.00    +0.017 C 
ATOM      9  C   UNL     1      35.026 -19.051 -21.038  0.00  0.00    +0.052 C 
ATOM     10  C   UNL     1      36.472 -21.039 -19.718  0.00  0.00    +0.003 C 
ATOM     11  C   UNL     1      36.411 -19.120 -21.186  0.00  0.00    +0.015 C 
ATOM     12  C   UNL     1      37.134 -20.114 -20.525  0.00  0.00    +0.001 C 
BRANCH   7  16
ATOM     13  N   UNL     1      34.969 -22.471 -17.611  0.00  0.00    -0.296 N 
ATOM     14  N   UNL     1      33.179 -22.349 -18.996  0.00  0.00    -0.228 NA
ATOM     15  C   UNL     1      34.069 -23.383 -16.972  0.00  0.00    +0.084 C 
ATOM     16  C   UNL     1      34.396 -21.935 -18.730  0.00  0.00    +0.132 C 
ATOM     17  C   UNL     1      32.859 -23.317 -17.907  0.00  0.00    +0.116 C 
ATOM     18  H   UNL     1      35.874 -22.260 -17.290  0.00  0.00    +0.154 HD
ENDBRANCH   7  16
ENDBRANCH   2   9
BRANCH   3  21
ATOM     19  C   UNL     1      33.497 -12.514 -23.499  0.00  0.00    +0.033 C 
ATOM     20  C   UNL     1      33.783 -13.876 -23.404  0.00  0.00    +0.017 C 
ATOM     21  C   UNL     1      33.136 -14.640 -22.447  0.00  0.00    +0.052 C 
ATOM     22  C   UNL     1      32.568 -11.934 -22.633  0.00  0.00    +0.003 C 
ATOM     23  C   UNL     1      32.210 -14.079 -21.581  0.00  0.00    +0.015 C 
ATOM     24  C   UNL     1      31.925 -12.717 -21.675  0.00  0.00    +0.001 C 
BRANCH  19  28
ATOM     25  N   UNL     1      34.848 -10.558 -24.174  0.00  0.00    -0.296 N 
ATOM     26  N   UNL     1      34.158 -12.007 -25.773  0.00  0.00    -0.228 NA
ATOM     27  C   UNL     1      35.414  -9.958 -25.345  0.00  0.00    +0.084 C 
ATOM     28  C   UNL     1      34.168 -11.698 -24.498  0.00  0.00    +0.132 C 
ATOM     29  C   UNL     1      34.943 -10.925 -26.434  0.00  0.00    +0.116 C 
ATOM     30  H   UNL     1      34.938 -10.200 -23.262  0.00  0.00    +0.154 HD
ENDBRANCH  19  28
ENDBRANCH   3  21
TORSDOF 4
ENDMDL
