MODEL 1
REMARK VINA RESULT:     -10.9      0.000      0.000
REMARK  Name = 15953860
REMARK  2 active torsions:
REMARK  status: ('A' for Active; 'I' for Inactive)
REMARK    1  A    between atoms: C_4  and  C_17
REMARK    2  A    between atoms: C_5  and  N_23
REMARK                            x       y       z     vdW  Elec       q    Type
REMARK                         _______ _______ _______ _____ _____    ______ ____
ROOT
ATOM      1  N   UNL     1      34.096 -15.306 -23.653  0.00  0.00    -0.281 N 
ATOM      2  N   UNL     1      33.905 -16.441 -25.549  0.00  0.00    -0.392 NA
ATOM      3  N   UNL     1      33.228 -13.087 -26.967  0.00  0.00    -0.240 NA
ATOM      4  C   UNL     1      35.065 -17.504 -22.117  0.00  0.00    +0.015 C 
ATOM      5  C   UNL     1      34.314 -16.347 -21.401  0.00  0.00    -0.041 C 
ATOM      6  C   UNL     1      34.415 -17.785 -23.490  0.00  0.00    +0.077 C 
ATOM      7  C   UNL     1      34.378 -15.066 -22.251  0.00  0.00    +0.072 C 
ATOM      8  C   UNL     1      34.152 -16.536 -24.258  0.00  0.00    +0.160 C 
ATOM      9  C   UNL     1      33.807 -14.366 -24.606  0.00  0.00    +0.153 C 
ATOM     10  C   UNL     1      33.691 -15.102 -25.782  0.00  0.00    +0.151 C 
ATOM     11  C   UNL     1      33.647 -12.985 -24.568  0.00  0.00    +0.021 C 
ATOM     12  C   UNL     1      33.395 -14.432 -26.970  0.00  0.00    +0.128 C 
ATOM     13  C   UNL     1      33.356 -12.414 -25.798  0.00  0.00    +0.096 C 
ENDROOT
BRANCH   4  17
ATOM     14  F   UNL     1      37.517 -18.740 -21.398  0.00  0.00    -0.204 F 
ATOM     15  F   UNL     1      32.919 -21.198 -19.746  0.00  0.00    -0.202 F 
ATOM     16  F   UNL     1      35.353 -22.279 -19.124  0.00  0.00    -0.202 F 
ATOM     17  C   UNL     1      35.145 -18.791 -21.311  0.00  0.00    +0.006 C 
ATOM     18  C   UNL     1      36.386 -19.337 -20.998  0.00  0.00    +0.138 C 
ATOM     19  C   UNL     1      33.974 -19.415 -20.892  0.00  0.00    +0.030 C 
ATOM     20  C   UNL     1      34.044 -20.595 -20.151  0.00  0.00    +0.167 C 
ATOM     21  C   UNL     1      36.456 -20.517 -20.258  0.00  0.00    +0.061 C 
ATOM     22  C   UNL     1      35.285 -21.147 -19.835  0.00  0.00    +0.170 C 
ENDBRANCH   4  17
BRANCH   5  23
ATOM     23  N   UNL     1      34.873 -16.041 -20.081  0.00  0.00    +0.383 N 
ATOM     24  H   UNL     1      34.457 -15.180 -19.727  0.00  0.00    -0.089 HD
ATOM     25  H   UNL     1      35.883 -15.926 -20.159  0.00  0.00    -0.089 HD
ATOM     26  H   UNL     1      34.667 -16.807 -19.439  0.00  0.00    -0.089 HD
ENDBRANCH   5  23
TORSDOF 2
ENDMDL
MODEL 2
REMARK VINA RESULT:     -10.5      1.122      2.143
REMARK  Name = 15953860
REMARK  2 active torsions:
REMARK  status: ('A' for Active; 'I' for Inactive)
REMARK    1  A    between atoms: C_4  and  C_17
REMARK    2  A    between atoms: C_5  and  N_23
REMARK                            x       y       z     vdW  Elec       q    Type
REMARK                         _______ _______ _______ _____ _____    ______ ____
ROOT
ATOM      1  N   UNL     1      34.209 -15.850 -24.070  0.00  0.00    -0.281 N 
ATOM      2  N   UNL     1      34.204 -14.320 -22.464  0.00  0.00    -0.392 NA
ATOM      3  N   UNL     1      33.448 -12.024 -25.270  0.00  0.00    -0.240 NA
ATOM      4  C   UNL     1      34.389 -18.088 -22.312  0.00  0.00    +0.015 C 
ATOM      5  C   UNL     1      34.930 -18.215 -23.764  0.00  0.00    -0.041 C 
ATOM      6  C   UNL     1      34.693 -16.679 -21.756  0.00  0.00    +0.077 C 
ATOM      7  C   UNL     1      34.262 -17.168 -24.672  0.00  0.00    +0.072 C 
ATOM      8  C   UNL     1      34.357 -15.601 -22.728  0.00  0.00    +0.160 C 
ATOM      9  C   UNL     1      33.937 -14.667 -24.704  0.00  0.00    +0.153 C 
ATOM     10  C   UNL     1      33.941 -13.726 -23.677  0.00  0.00    +0.151 C 
ATOM     11  C   UNL     1      33.687 -14.328 -26.029  0.00  0.00    +0.021 C 
ATOM     12  C   UNL     1      33.691 -12.389 -23.988  0.00  0.00    +0.128 C 
ATOM     13  C   UNL     1      33.451 -12.977 -26.234  0.00  0.00    +0.096 C 
ENDROOT
BRANCH   4  17
ATOM     14  F   UNL     1      37.147 -18.443 -21.746  0.00  0.00    -0.204 F 
ATOM     15  F   UNL     1      33.641 -21.782 -19.204  0.00  0.00    -0.202 F 
ATOM     16  F   UNL     1      36.327 -22.013 -18.751  0.00  0.00    -0.202 F 
ATOM     17  C   UNL     1      34.914 -19.145 -21.354  0.00  0.00    +0.006 C 
ATOM     18  C   UNL     1      36.282 -19.259 -21.128  0.00  0.00    +0.138 C 
ATOM     19  C   UNL     1      34.019 -19.994 -20.708  0.00  0.00    +0.030 C 
ATOM     20  C   UNL     1      34.498 -20.964 -19.827  0.00  0.00    +0.167 C 
ATOM     21  C   UNL     1      36.761 -20.229 -20.247  0.00  0.00    +0.061 C 
ATOM     22  C   UNL     1      35.869 -21.082 -19.597  0.00  0.00    +0.170 C 
ENDBRANCH   4  17
BRANCH   5  23
ATOM     23  N   UNL     1      34.686 -19.538 -24.344  0.00  0.00    +0.383 N 
ATOM     24  H   UNL     1      35.354 -19.708 -25.096  0.00  0.00    -0.089 HD
ATOM     25  H   UNL     1      33.738 -19.576 -24.716  0.00  0.00    -0.089 HD
ATOM     26  H   UNL     1      34.797 -20.251 -23.623  0.00  0.00    -0.089 HD
ENDBRANCH   5  23
TORSDOF 2
ENDMDL
MODEL 3
REMARK VINA RESULT:     -10.4      1.938      3.109
REMARK  Name = 15953860
REMARK  2 active torsions:
REMARK  status: ('A' for Active; 'I' for Inactive)
REMARK    1  A    between atoms: C_4  and  C_17
REMARK    2  A    between atoms: C_5  and  N_23
REMARK                            x       y       z     vdW  Elec       q    Type
REMARK                         _______ _______ _______ _____ _____    ______ ____
ROOT
ATOM      1  N   UNL     1      33.947 -15.113 -22.624  0.00  0.00    -0.281 N 
ATOM      2  N   UNL     1      32.508 -14.490 -21.055  0.00  0.00    -0.392 NA
ATOM      3  N   UNL     1      32.471 -11.324 -22.975  0.00  0.00    -0.240 NA
ATOM      4  C   UNL     1      34.064 -17.845 -21.817  0.00  0.00    +0.015 C 
ATOM      5  C   UNL     1      35.273 -17.220 -22.566  0.00  0.00    -0.041 C 
ATOM      6  C   UNL     1      33.449 -16.809 -20.849  0.00  0.00    +0.077 C 
ATOM      7  C   UNL     1      34.820 -15.994 -23.376  0.00  0.00    +0.072 C 
ATOM      8  C   UNL     1      33.268 -15.476 -21.487  0.00  0.00    +0.160 C 
ATOM      9  C   UNL     1      33.598 -13.829 -22.947  0.00  0.00    +0.153 C 
ATOM     10  C   UNL     1      32.698 -13.462 -21.949  0.00  0.00    +0.151 C 
ATOM     11  C   UNL     1      33.957 -12.973 -23.983  0.00  0.00    +0.021 C 
ATOM     12  C   UNL     1      32.139 -12.184 -21.983  0.00  0.00    +0.128 C 
ATOM     13  C   UNL     1      33.348 -11.728 -23.927  0.00  0.00    +0.096 C 
ENDROOT
BRANCH   4  17
ATOM     14  F   UNL     1      32.076 -19.564 -20.743  0.00  0.00    -0.204 F 
ATOM     15  F   UNL     1      37.293 -21.035 -20.009  0.00  0.00    -0.202 F 
ATOM     16  F   UNL     1      35.276 -22.598 -19.026  0.00  0.00    -0.202 F 
ATOM     17  C   UNL     1      34.387 -19.126 -21.064  0.00  0.00    +0.006 C 
ATOM     18  C   UNL     1      33.357 -19.917 -20.565  0.00  0.00    +0.138 C 
ATOM     19  C   UNL     1      35.716 -19.498 -20.878  0.00  0.00    +0.030 C 
ATOM     20  C   UNL     1      36.016 -20.673 -20.189  0.00  0.00    +0.167 C 
ATOM     21  C   UNL     1      33.658 -21.092 -19.876  0.00  0.00    +0.061 C 
ATOM     22  C   UNL     1      34.987 -21.470 -19.687  0.00  0.00    +0.170 C 
ENDBRANCH   4  17
BRANCH   5  23
ATOM     23  N   UNL     1      35.913 -18.160 -23.491  0.00  0.00    +0.383 N 
ATOM     24  H   UNL     1      36.561 -18.755 -22.976  0.00  0.00    -0.089 HD
ATOM     25  H   UNL     1      36.420 -17.641 -24.206  0.00  0.00    -0.089 HD
ATOM     26  H   UNL     1      35.199 -18.739 -23.934  0.00  0.00    -0.089 HD
ENDBRANCH   5  23
TORSDOF 2
ENDMDL
MODEL 4
REMARK VINA RESULT:     -10.2      4.058      8.324
REMARK  Name = 15953860
REMARK  2 active torsions:
REMARK  status: ('A' for Active; 'I' for Inactive)
REMARK    1  A    between atoms: C_4  and  C_17
REMARK    2  A    between atoms: C_5  and  N_23
REMARK                            x       y       z     vdW  Elec       q    Type
REMARK                         _______ _______ _______ _____ _____    ______ ____
ROOT
ATOM      1  N   UNL     1      34.829 -21.669 -18.664  0.00  0.00    -0.281 N 
ATOM      2  N   UNL     1      32.633 -21.966 -18.748  0.00  0.00    -0.392 NA
ATOM      3  N   UNL     1      33.263 -24.131 -15.810  0.00  0.00    -0.240 NA
ATOM      4  C   UNL     1      34.901 -19.613 -20.638  0.00  0.00    +0.015 C 
ATOM      5  C   UNL     1      36.162 -20.492 -20.408  0.00  0.00    -0.041 C 
ATOM      6  C   UNL     1      33.625 -20.474 -20.507  0.00  0.00    +0.077 C 
ATOM      7  C   UNL     1      36.126 -21.114 -19.002  0.00  0.00    +0.072 C 
ATOM      8  C   UNL     1      33.658 -21.356 -19.307  0.00  0.00    +0.160 C 
ATOM      9  C   UNL     1      34.543 -22.517 -17.628  0.00  0.00    +0.153 C 
ATOM     10  C   UNL     1      33.162 -22.688 -17.704  0.00  0.00    +0.151 C 
ATOM     11  C   UNL     1      35.321 -23.132 -16.653  0.00  0.00    +0.021 C 
ATOM     12  C   UNL     1      32.534 -23.513 -16.770  0.00  0.00    +0.128 C 
ATOM     13  C   UNL     1      34.604 -23.930 -15.774  0.00  0.00    +0.096 C 
ENDROOT
BRANCH   4  17
ATOM     14  F   UNL     1      35.259 -16.805 -20.855  0.00  0.00    -0.204 F 
ATOM     15  F   UNL     1      34.499 -19.578 -25.507  0.00  0.00    -0.202 F 
ATOM     16  F   UNL     1      34.857 -16.868 -25.569  0.00  0.00    -0.202 F 
ATOM     17  C   UNL     1      34.889 -18.870 -21.965  0.00  0.00    +0.006 C 
ATOM     18  C   UNL     1      35.071 -17.491 -21.990  0.00  0.00    +0.138 C 
ATOM     19  C   UNL     1      34.696 -19.579 -23.148  0.00  0.00    +0.030 C 
ATOM     20  C   UNL     1      34.685 -18.901 -24.367  0.00  0.00    +0.167 C 
ATOM     21  C   UNL     1      35.060 -16.814 -23.210  0.00  0.00    +0.061 C 
ATOM     22  C   UNL     1      34.867 -17.518 -24.398  0.00  0.00    +0.170 C 
ENDBRANCH   4  17
BRANCH   5  23
ATOM     23  N   UNL     1      37.410 -19.735 -20.535  0.00  0.00    +0.383 N 
ATOM     24  H   UNL     1      37.541 -19.153 -19.708  0.00  0.00    -0.089 HD
ATOM     25  H   UNL     1      37.366 -19.144 -21.365  0.00  0.00    -0.089 HD
ATOM     26  H   UNL     1      38.193 -20.383 -20.622  0.00  0.00    -0.089 HD
ENDBRANCH   5  23
TORSDOF 2
ENDMDL
MODEL 5
REMARK VINA RESULT:      -9.9      3.563      8.044
REMARK  Name = 15953860
REMARK  2 active torsions:
REMARK  status: ('A' for Active; 'I' for Inactive)
REMARK    1  A    between atoms: C_4  and  C_17
REMARK    2  A    between atoms: C_5  and  N_23
REMARK                            x       y       z     vdW  Elec       q    Type
REMARK                         _______ _______ _______ _____ _____    ______ ____
ROOT
ATOM      1  N   UNL     1      34.935 -21.122 -19.341  0.00  0.00    -0.281 N 
ATOM      2  N   UNL     1      32.750 -21.502 -19.346  0.00  0.00    -0.392 NA
ATOM      3  N   UNL     1      33.591 -23.781 -16.551  0.00  0.00    -0.240 NA
ATOM      4  C   UNL     1      34.842 -18.970 -21.209  0.00  0.00    +0.015 C 
ATOM      5  C   UNL     1      36.144 -19.808 -21.078  0.00  0.00    -0.041 C 
ATOM      6  C   UNL     1      33.606 -19.888 -21.068  0.00  0.00    +0.077 C 
ATOM      7  C   UNL     1      36.194 -20.500 -19.704  0.00  0.00    +0.072 C 
ATOM      8  C   UNL     1      33.725 -20.826 -19.917  0.00  0.00    +0.160 C 
ATOM      9  C   UNL     1      34.727 -22.031 -18.337  0.00  0.00    +0.153 C 
ATOM     10  C   UNL     1      33.352 -22.253 -18.363  0.00  0.00    +0.151 C 
ATOM     11  C   UNL     1      35.571 -22.661 -17.428  0.00  0.00    +0.021 C 
ATOM     12  C   UNL     1      32.797 -23.147 -17.447  0.00  0.00    +0.128 C 
ATOM     13  C   UNL     1      34.923 -23.529 -16.562  0.00  0.00    +0.096 C 
ENDROOT
BRANCH   4  17
ATOM     14  F   UNL     1      34.856 -20.152 -23.790  0.00  0.00    -0.204 F 
ATOM     15  F   UNL     1      34.443 -14.703 -23.555  0.00  0.00    -0.202 F 
ATOM     16  F   UNL     1      34.470 -15.973 -25.976  0.00  0.00    -0.202 F 
ATOM     17  C   UNL     1      34.742 -18.165 -22.495  0.00  0.00    +0.006 C 
ATOM     18  C   UNL     1      34.757 -18.817 -23.725  0.00  0.00    +0.138 C 
ATOM     19  C   UNL     1      34.637 -16.779 -22.433  0.00  0.00    +0.030 C 
ATOM     20  C   UNL     1      34.545 -16.037 -23.610  0.00  0.00    +0.167 C 
ATOM     21  C   UNL     1      34.664 -18.075 -24.902  0.00  0.00    +0.061 C 
ATOM     22  C   UNL     1      34.559 -16.685 -24.846  0.00  0.00    +0.170 C 
ENDBRANCH   4  17
BRANCH   5  23
ATOM     23  N   UNL     1      37.355 -18.997 -21.219  0.00  0.00    +0.383 N 
ATOM     24  H   UNL     1      38.107 -19.570 -21.601  0.00  0.00    -0.089 HD
ATOM     25  H   UNL     1      37.632 -18.637 -20.305  0.00  0.00    -0.089 HD
ATOM     26  H   UNL     1      37.170 -18.216 -21.849  0.00  0.00    -0.089 HD
ENDBRANCH   5  23
TORSDOF 2
ENDMDL
MODEL 6
REMARK VINA RESULT:      -9.8      3.160      4.526
REMARK  Name = 15953860
REMARK  2 active torsions:
REMARK  status: ('A' for Active; 'I' for Inactive)
REMARK    1  A    between atoms: C_4  and  C_17
REMARK    2  A    between atoms: C_5  and  N_23
REMARK                            x       y       z     vdW  Elec       q    Type
REMARK                         _______ _______ _______ _____ _____    ______ ____
ROOT
ATOM      1  N   UNL     1      32.693 -12.079 -22.558  0.00  0.00    -0.281 N 
ATOM      2  N   UNL     1      33.904 -11.256 -24.225  0.00  0.00    -0.392 NA
ATOM      3  N   UNL     1      32.199  -8.098 -23.312  0.00  0.00    -0.240 NA
ATOM      4  C   UNL     1      33.963 -14.632 -22.533  0.00  0.00    +0.015 C 
ATOM      5  C   UNL     1      32.504 -14.502 -22.012  0.00  0.00    -0.041 C 
ATOM      6  C   UNL     1      34.172 -13.708 -23.755  0.00  0.00    +0.077 C 
ATOM      7  C   UNL     1      32.219 -13.050 -21.591  0.00  0.00    +0.072 C 
ATOM      8  C   UNL     1      33.624 -12.341 -23.532  0.00  0.00    +0.160 C 
ATOM      9  C   UNL     1      32.363 -10.751 -22.620  0.00  0.00    +0.153 C 
ATOM     10  C   UNL     1      33.132 -10.261 -23.672  0.00  0.00    +0.151 C 
ATOM     11  C   UNL     1      31.500  -9.946 -21.883  0.00  0.00    +0.021 C 
ATOM     12  C   UNL     1      33.032  -8.910 -24.006  0.00  0.00    +0.128 C 
ATOM     13  C   UNL     1      31.473  -8.621 -22.293  0.00  0.00    +0.096 C 
ENDROOT
BRANCH   4  17
ATOM     14  F   UNL     1      35.119 -16.422 -20.659  0.00  0.00    -0.204 F 
ATOM     15  F   UNL     1      34.395 -18.284 -25.750  0.00  0.00    -0.202 F 
ATOM     16  F   UNL     1      35.498 -19.902 -23.842  0.00  0.00    -0.202 F 
ATOM     17  C   UNL     1      34.378 -16.052 -22.883  0.00  0.00    +0.006 C 
ATOM     18  C   UNL     1      34.940 -16.871 -21.909  0.00  0.00    +0.138 C 
ATOM     19  C   UNL     1      34.193 -16.523 -24.180  0.00  0.00    +0.030 C 
ATOM     20  C   UNL     1      34.571 -17.826 -24.504  0.00  0.00    +0.167 C 
ATOM     21  C   UNL     1      35.318 -18.174 -22.233  0.00  0.00    +0.061 C 
ATOM     22  C   UNL     1      35.135 -18.652 -23.531  0.00  0.00    +0.170 C 
ENDBRANCH   4  17
BRANCH   5  23
ATOM     23  N   UNL     1      32.236 -15.367 -20.861  0.00  0.00    +0.383 N 
ATOM     24  H   UNL     1      31.380 -15.063 -20.399  0.00  0.00    -0.089 HD
ATOM     25  H   UNL     1      33.015 -15.312 -20.205  0.00  0.00    -0.089 HD
ATOM     26  H   UNL     1      32.127 -16.331 -21.178  0.00  0.00    -0.089 HD
ENDBRANCH   5  23
TORSDOF 2
ENDMDL
MODEL 7
REMARK VINA RESULT:      -9.8      4.127      6.178
REMARK  Name = 15953860
REMARK  2 active torsions:
REMARK  status: ('A' for Active; 'I' for Inactive)
REMARK    1  A    between atoms: C_4  and  C_17
REMARK    2  A    between atoms: C_5  and  N_23
REMARK                            x       y       z     vdW  Elec       q    Type
REMARK                         _______ _______ _______ _____ _____    ______ ____
ROOT
ATOM      1  N   UNL     1      32.725 -10.534 -22.826  0.00  0.00    -0.281 N 
ATOM      2  N   UNL     1      34.027  -9.559 -24.334  0.00  0.00    -0.392 NA
ATOM      3  N   UNL     1      32.689  -6.452 -22.826  0.00  0.00    -0.240 NA
ATOM      4  C   UNL     1      33.696 -13.173 -23.294  0.00  0.00    +0.015 C 
ATOM      5  C   UNL     1      32.260 -12.979 -22.732  0.00  0.00    -0.041 C 
ATOM      6  C   UNL     1      34.012 -12.070 -24.329  0.00  0.00    +0.077 C 
ATOM      7  C   UNL     1      32.140 -11.607 -22.046  0.00  0.00    +0.072 C 
ATOM      8  C   UNL     1      33.623 -10.715 -23.848  0.00  0.00    +0.160 C 
ATOM      9  C   UNL     1      32.548  -9.189 -22.636  0.00  0.00    +0.153 C 
ATOM     10  C   UNL     1      33.372  -8.602 -23.594  0.00  0.00    +0.151 C 
ATOM     11  C   UNL     1      31.780  -8.442 -21.749  0.00  0.00    +0.021 C 
ATOM     12  C   UNL     1      33.427  -7.210 -23.672  0.00  0.00    +0.128 C 
ATOM     13  C   UNL     1      31.905  -7.070 -21.908  0.00  0.00    +0.096 C 
ENDROOT
BRANCH   4  17
ATOM     14  F   UNL     1      32.583 -13.999 -25.772  0.00  0.00    -0.204 F 
ATOM     15  F   UNL     1      35.779 -17.591 -23.164  0.00  0.00    -0.202 F 
ATOM     16  F   UNL     1      34.641 -18.254 -25.561  0.00  0.00    -0.202 F 
ATOM     17  C   UNL     1      33.948 -14.542 -23.907  0.00  0.00    +0.006 C 
ATOM     18  C   UNL     1      33.366 -14.875 -25.126  0.00  0.00    +0.138 C 
ATOM     19  C   UNL     1      34.762 -15.454 -23.241  0.00  0.00    +0.030 C 
ATOM     20  C   UNL     1      34.997 -16.710 -23.801  0.00  0.00    +0.167 C 
ATOM     21  C   UNL     1      33.601 -16.130 -25.686  0.00  0.00    +0.061 C 
ATOM     22  C   UNL     1      34.416 -17.049 -25.024  0.00  0.00    +0.170 C 
ENDBRANCH   4  17
BRANCH   5  23
ATOM     23  N   UNL     1      31.891 -14.007 -21.755  0.00  0.00    +0.383 N 
ATOM     24  H   UNL     1      31.630 -13.562 -20.875  0.00  0.00    -0.089 HD
ATOM     25  H   UNL     1      32.685 -14.628 -21.600  0.00  0.00    -0.089 HD
ATOM     26  H   UNL     1      31.102 -14.546 -22.111  0.00  0.00    -0.089 HD
ENDBRANCH   5  23
TORSDOF 2
ENDMDL
MODEL 8
REMARK VINA RESULT:      -9.7      4.540      8.114
REMARK  Name = 15953860
REMARK  2 active torsions:
REMARK  status: ('A' for Active; 'I' for Inactive)
REMARK    1  A    between atoms: C_4  and  C_17
REMARK    2  A    between atoms: C_5  and  N_23
REMARK                            x       y       z     vdW  Elec       q    Type
REMARK                         _______ _______ _______ _____ _____    ______ ____
ROOT
ATOM      1  N   UNL     1      34.080 -15.611 -24.361  0.00  0.00    -0.281 N 
ATOM      2  N   UNL     1      34.656 -15.946 -22.246  0.00  0.00    -0.392 NA
ATOM      3  N   UNL     1      34.946 -19.469 -23.350  0.00  0.00    -0.240 NA
ATOM      4  C   UNL     1      34.091 -12.765 -24.199  0.00  0.00    +0.015 C 
ATOM      5  C   UNL     1      33.196 -13.463 -25.260  0.00  0.00    -0.041 C 
ATOM      6  C   UNL     1      34.095 -13.585 -22.889  0.00  0.00    +0.077 C 
ATOM      7  C   UNL     1      33.731 -14.874 -25.561  0.00  0.00    +0.072 C 
ATOM      8  C   UNL     1      34.299 -15.040 -23.133  0.00  0.00    +0.160 C 
ATOM      9  C   UNL     1      34.318 -16.956 -24.264  0.00  0.00    +0.153 C 
ATOM     10  C   UNL     1      34.675 -17.140 -22.930  0.00  0.00    +0.151 C 
ATOM     11  C   UNL     1      34.268 -18.004 -25.177  0.00  0.00    +0.021 C 
ATOM     12  C   UNL     1      34.989 -18.425 -22.488  0.00  0.00    +0.128 C 
ATOM     13  C   UNL     1      34.597 -19.240 -24.640  0.00  0.00    +0.096 C 
ENDROOT
BRANCH   4  17
ATOM     14  F   UNL     1      35.517 -10.531 -25.215  0.00  0.00    -0.204 F 
ATOM     15  F   UNL     1      31.179  -9.479 -22.055  0.00  0.00    -0.202 F 
ATOM     16  F   UNL     1      32.645  -7.422 -23.101  0.00  0.00    -0.202 F 
ATOM     17  C   UNL     1      33.704 -11.324 -23.904  0.00  0.00    +0.006 C 
ATOM     18  C   UNL     1      34.454 -10.281 -24.438  0.00  0.00    +0.138 C 
ATOM     19  C   UNL     1      32.599 -11.059 -23.099  0.00  0.00    +0.030 C 
ATOM     20  C   UNL     1      32.241  -9.739 -22.828  0.00  0.00    +0.167 C 
ATOM     21  C   UNL     1      34.095  -8.960 -24.167  0.00  0.00    +0.061 C 
ATOM     22  C   UNL     1      32.989  -8.689 -23.361  0.00  0.00    +0.170 C 
ENDBRANCH   4  17
BRANCH   5  23
ATOM     23  N   UNL     1      33.136 -12.724 -26.524  0.00  0.00    +0.383 N 
ATOM     24  H   UNL     1      32.296 -12.992 -27.036  0.00  0.00    -0.089 HD
ATOM     25  H   UNL     1      33.960 -12.942 -27.084  0.00  0.00    -0.089 HD
ATOM     26  H   UNL     1      33.112 -11.723 -26.331  0.00  0.00    -0.089 HD
ENDBRANCH   5  23
TORSDOF 2
ENDMDL
MODEL 9
REMARK VINA RESULT:      -9.7      3.760      8.357
REMARK  Name = 15953860
REMARK  2 active torsions:
REMARK  status: ('A' for Active; 'I' for Inactive)
REMARK    1  A    between atoms: C_4  and  C_17
REMARK    2  A    between atoms: C_5  and  N_23
REMARK                            x       y       z     vdW  Elec       q    Type
REMARK                         _______ _______ _______ _____ _____    ______ ____
ROOT
ATOM      1  N   UNL     1      34.779 -21.447 -18.877  0.00  0.00    -0.281 N 
ATOM      2  N   UNL     1      36.935 -21.151 -18.443  0.00  0.00    -0.392 NA
ATOM      3  N   UNL     1      36.268 -23.591 -15.738  0.00  0.00    -0.240 NA
ATOM      4  C   UNL     1      34.787 -19.972 -21.316  0.00  0.00    +0.015 C 
ATOM      5  C   UNL     1      33.467 -20.093 -20.504  0.00  0.00    -0.041 C 
ATOM      6  C   UNL     1      35.988 -19.826 -20.355  0.00  0.00    +0.077 C 
ATOM      7  C   UNL     1      33.520 -21.327 -19.586  0.00  0.00    +0.072 C 
ATOM      8  C   UNL     1      35.939 -20.807 -19.235  0.00  0.00    +0.160 C 
ATOM      9  C   UNL     1      35.043 -22.255 -17.802  0.00  0.00    +0.153 C 
ATOM     10  C   UNL     1      36.398 -22.049 -17.551  0.00  0.00    +0.151 C 
ATOM     11  C   UNL     1      34.265 -23.126 -17.048  0.00  0.00    +0.021 C 
ATOM     12  C   UNL     1      36.999 -22.738 -16.496  0.00  0.00    +0.128 C 
ATOM     13  C   UNL     1      34.954 -23.761 -16.025  0.00  0.00    +0.096 C 
ENDROOT
BRANCH   4  17
ATOM     14  F   UNL     1      34.895 -20.391 -24.121  0.00  0.00    -0.204 F 
ATOM     15  F   UNL     1      34.711 -15.206 -22.391  0.00  0.00    -0.202 F 
ATOM     16  F   UNL     1      34.819 -15.756 -25.067  0.00  0.00    -0.202 F 
ATOM     17  C   UNL     1      34.796 -18.838 -22.329  0.00  0.00    +0.006 C 
ATOM     18  C   UNL     1      34.852 -19.123 -23.690  0.00  0.00    +0.138 C 
ATOM     19  C   UNL     1      34.749 -17.519 -21.886  0.00  0.00    +0.030 C 
ATOM     20  C   UNL     1      34.756 -16.476 -22.812  0.00  0.00    +0.167 C 
ATOM     21  C   UNL     1      34.859 -18.080 -24.616  0.00  0.00    +0.061 C 
ATOM     22  C   UNL     1      34.812 -16.757 -24.178  0.00  0.00    +0.170 C 
ENDBRANCH   4  17
BRANCH   5  23
ATOM     23  N   UNL     1      32.285 -20.218 -21.360  0.00  0.00    +0.383 N 
ATOM     24  H   UNL     1      31.450 -19.982 -20.824  0.00  0.00    -0.089 HD
ATOM     25  H   UNL     1      32.212 -21.176 -21.701  0.00  0.00    -0.089 HD
ATOM     26  H   UNL     1      32.371 -19.581 -22.153  0.00  0.00    -0.089 HD
ENDBRANCH   5  23
TORSDOF 2
ENDMDL
