MODEL 1
REMARK VINA RESULT:      -5.9      0.000      0.000
REMARK  Name = 11073745
REMARK  6 active torsions:
REMARK  status: ('A' for Active; 'I' for Inactive)
REMARK    1  A    between atoms: CA_2  and  C_12
REMARK    2  A    between atoms: CA_3  and  C_15
REMARK    3  A    between atoms: C_4  and  O_8
REMARK    4  A    between atoms: C_5  and  O_10
REMARK    5  A    between atoms: C_12  and  O_13
REMARK    6  A    between atoms: C_15  and  O_16
REMARK                            x       y       z     vdW  Elec       q    Type
REMARK                         _______ _______ _______ _____ _____    ______ ____
ROOT
ATOM      1  N   UNL     1      38.258 -26.113 -13.253  0.00  0.00    +0.393 N 
ATOM      2  CA  UNL     1      36.888 -25.589 -13.373  0.00  0.00    -0.002 C 
ATOM      3  CA  UNL     1      39.143 -25.236 -14.022  0.00  0.00    -0.002 C 
ATOM      4  C   UNL     1      36.934 -24.534 -14.481  0.00  0.00    +0.118 C 
ATOM      5  C   UNL     1      38.262 -24.787 -15.178  0.00  0.00    +0.118 C 
ATOM      6  H1  UNL     1      38.299 -27.062 -13.625  0.00  0.00    -0.084 HD
ATOM      7  H2  UNL     1      38.544 -26.139 -12.274  0.00  0.00    -0.084 HD
ENDROOT
BRANCH   4   8
ATOM      8  O   UNL     1      35.855 -24.713 -15.386  0.00  0.00    -0.384 OA
ATOM      9  H   UNL     1      35.156 -25.230 -14.957  0.00  0.00    +0.210 HD
ENDBRANCH   4   8
BRANCH   5  10
ATOM     10  O   UNL     1      38.735 -23.588 -15.764  0.00  0.00    -0.384 OA
ATOM     11  H   UNL     1      39.441 -23.794 -16.398  0.00  0.00    +0.210 HD
ENDBRANCH   5  10
BRANCH   2  12
ATOM     12  C   UNL     1      36.388 -25.011 -12.053  0.00  0.00    +0.118 C 
BRANCH  12  13
ATOM     13  O   UNL     1      34.973 -25.030 -12.058  0.00  0.00    -0.384 OA
ATOM     14  H   UNL     1      34.649 -25.249 -11.171  0.00  0.00    +0.210 HD
ENDBRANCH  12  13
ENDBRANCH   2  12
BRANCH   3  15
ATOM     15  C   UNL     1      40.393 -25.977 -14.472  0.00  0.00    +0.118 C 
BRANCH  15  16
ATOM     16  O   UNL     1      40.451 -25.957 -15.888  0.00  0.00    -0.384 OA
ATOM     17  H   UNL     1      41.158 -26.547 -16.191  0.00  0.00    +0.210 HD
ENDBRANCH  15  16
ENDBRANCH   3  15
TORSDOF 6
ENDMDL
MODEL 2
REMARK VINA RESULT:      -5.9      2.253      2.883
REMARK  Name = 11073745
REMARK  6 active torsions:
REMARK  status: ('A' for Active; 'I' for Inactive)
REMARK    1  A    between atoms: CA_2  and  C_12
REMARK    2  A    between atoms: CA_3  and  C_15
REMARK    3  A    between atoms: C_4  and  O_8
REMARK    4  A    between atoms: C_5  and  O_10
REMARK    5  A    between atoms: C_12  and  O_13
REMARK    6  A    between atoms: C_15  and  O_16
REMARK                            x       y       z     vdW  Elec       q    Type
REMARK                         _______ _______ _______ _____ _____    ______ ____
ROOT
ATOM      1  N   UNL     1      35.877 -25.007 -13.278  0.00  0.00    +0.393 N 
ATOM      2  CA  UNL     1      36.324 -24.194 -12.136  0.00  0.00    -0.002 C 
ATOM      3  CA  UNL     1      36.947 -25.952 -13.603  0.00  0.00    -0.002 C 
ATOM      4  C   UNL     1      37.819 -24.483 -11.970  0.00  0.00    +0.118 C 
ATOM      5  C   UNL     1      38.208 -25.170 -13.270  0.00  0.00    +0.118 C 
ATOM      6  H1  UNL     1      35.690 -24.405 -14.079  0.00  0.00    -0.084 HD
ATOM      7  H2  UNL     1      35.019 -25.507 -13.044  0.00  0.00    -0.084 HD
ENDROOT
BRANCH   4   8
ATOM      8  O   UNL     1      38.546 -23.275 -11.809  0.00  0.00    -0.384 OA
ATOM      9  H   UNL     1      37.988 -22.619 -11.362  0.00  0.00    +0.210 HD
ENDBRANCH   4   8
BRANCH   5  10
ATOM     10  O   UNL     1      39.315 -26.027 -13.049  0.00  0.00    -0.384 OA
ATOM     11  H   UNL     1      39.937 -25.601 -12.438  0.00  0.00    +0.210 HD
ENDBRANCH   5  10
BRANCH   2  12
ATOM     12  C   UNL     1      35.535 -24.517 -10.871  0.00  0.00    +0.118 C 
BRANCH  12  13
ATOM     13  O   UNL     1      36.290 -24.096  -9.749  0.00  0.00    -0.384 OA
ATOM     14  H   UNL     1      36.511 -23.157  -9.841  0.00  0.00    +0.210 HD
ENDBRANCH  12  13
ENDBRANCH   2  12
BRANCH   3  15
ATOM     15  C   UNL     1      36.874 -26.382 -15.059  0.00  0.00    +0.118 C 
BRANCH  15  16
ATOM     16  O   UNL     1      38.173 -26.311 -15.623  0.00  0.00    -0.384 OA
ATOM     17  H   UNL     1      38.190 -25.628 -16.311  0.00  0.00    +0.210 HD
ENDBRANCH  15  16
ENDBRANCH   3  15
TORSDOF 6
ENDMDL
MODEL 3
REMARK VINA RESULT:      -5.8      2.125      4.236
REMARK  Name = 11073745
REMARK  6 active torsions:
REMARK  status: ('A' for Active; 'I' for Inactive)
REMARK    1  A    between atoms: CA_2  and  C_12
REMARK    2  A    between atoms: CA_3  and  C_15
REMARK    3  A    between atoms: C_4  and  O_8
REMARK    4  A    between atoms: C_5  and  O_10
REMARK    5  A    between atoms: C_12  and  O_13
REMARK    6  A    between atoms: C_15  and  O_16
REMARK                            x       y       z     vdW  Elec       q    Type
REMARK                         _______ _______ _______ _____ _____    ______ ____
ROOT
ATOM      1  N   UNL     1      35.996 -25.381 -12.654  0.00  0.00    +0.393 N 
ATOM      2  CA  UNL     1      37.006 -25.899 -13.591  0.00  0.00    -0.002 C 
ATOM      3  CA  UNL     1      36.543 -24.176 -12.026  0.00  0.00    -0.002 C 
ATOM      4  C   UNL     1      38.296 -25.132 -13.290  0.00  0.00    +0.118 C 
ATOM      5  C   UNL     1      38.031 -24.479 -11.942  0.00  0.00    +0.118 C 
ATOM      6  H1  UNL     1      35.792 -26.082 -11.943  0.00  0.00    -0.084 HD
ATOM      7  H2  UNL     1      35.130 -25.163 -13.149  0.00  0.00    -0.084 HD
ENDROOT
BRANCH   4   8
ATOM      8  O   UNL     1      39.397 -26.023 -13.202  0.00  0.00    -0.384 OA
ATOM      9  H   UNL     1      39.776 -26.157 -14.085  0.00  0.00    +0.210 HD
ENDBRANCH   4   8
BRANCH   5  10
ATOM     10  O   UNL     1      38.801 -23.296 -11.819  0.00  0.00    -0.384 OA
ATOM     11  H   UNL     1      39.264 -23.123 -12.655  0.00  0.00    +0.210 HD
ENDBRANCH   5  10
BRANCH   2  12
ATOM     12  C   UNL     1      36.567 -25.731 -15.042  0.00  0.00    +0.118 C 
BRANCH  12  13
ATOM     13  O   UNL     1      37.385 -26.549 -15.859  0.00  0.00    -0.384 OA
ATOM     14  H   UNL     1      38.235 -26.699 -15.418  0.00  0.00    +0.210 HD
ENDBRANCH  12  13
ENDBRANCH   2  12
BRANCH   3  15
ATOM     15  C   UNL     1      35.902 -23.928 -10.669  0.00  0.00    +0.118 C 
BRANCH  15  16
ATOM     16  O   UNL     1      35.263 -25.120 -10.241  0.00  0.00    -0.384 OA
ATOM     17  H   UNL     1      34.791 -25.519 -10.987  0.00  0.00    +0.210 HD
ENDBRANCH  15  16
ENDBRANCH   3  15
TORSDOF 6
ENDMDL
MODEL 4
REMARK VINA RESULT:      -5.7      1.945      4.251
REMARK  Name = 11073745
REMARK  6 active torsions:
REMARK  status: ('A' for Active; 'I' for Inactive)
REMARK    1  A    between atoms: CA_2  and  C_12
REMARK    2  A    between atoms: CA_3  and  C_15
REMARK    3  A    between atoms: C_4  and  O_8
REMARK    4  A    between atoms: C_5  and  O_10
REMARK    5  A    between atoms: C_12  and  O_13
REMARK    6  A    between atoms: C_15  and  O_16
REMARK                            x       y       z     vdW  Elec       q    Type
REMARK                         _______ _______ _______ _____ _____    ______ ____
ROOT
ATOM      1  N   UNL     1      38.277 -23.916 -13.976  0.00  0.00    +0.393 N 
ATOM      2  CA  UNL     1      38.644 -25.107 -14.758  0.00  0.00    -0.002 C 
ATOM      3  CA  UNL     1      37.710 -24.371 -12.704  0.00  0.00    -0.002 C 
ATOM      4  C   UNL     1      38.010 -26.300 -14.037  0.00  0.00    +0.118 C 
ATOM      5  C   UNL     1      37.007 -25.665 -13.085  0.00  0.00    +0.118 C 
ATOM      6  H1  UNL     1      37.587 -23.366 -14.487  0.00  0.00    -0.084 HD
ATOM      7  H2  UNL     1      39.097 -23.332 -13.812  0.00  0.00    -0.084 HD
ENDROOT
BRANCH   4   8
ATOM      8  O   UNL     1      37.348 -27.149 -14.962  0.00  0.00    -0.384 OA
ATOM      9  H   UNL     1      37.845 -27.168 -15.795  0.00  0.00    +0.210 HD
ENDBRANCH   4   8
BRANCH   5  10
ATOM     10  O   UNL     1      36.809 -26.505 -11.962  0.00  0.00    -0.384 OA
ATOM     11  H   UNL     1      37.110 -27.403 -12.173  0.00  0.00    +0.210 HD
ENDBRANCH   5  10
BRANCH   2  12
ATOM     12  C   UNL     1      40.157 -25.254 -14.883  0.00  0.00    +0.118 C 
BRANCH  12  13
ATOM     13  O   UNL     1      40.444 -25.967 -16.072  0.00  0.00    -0.384 OA
ATOM     14  H   UNL     1      41.228 -25.586 -16.497  0.00  0.00    +0.210 HD
ENDBRANCH  12  13
ENDBRANCH   2  12
BRANCH   3  15
ATOM     15  C   UNL     1      36.772 -23.327 -12.119  0.00  0.00    +0.118 C 
BRANCH  15  16
ATOM     16  O   UNL     1      37.488 -22.546 -11.177  0.00  0.00    -0.384 OA
ATOM     17  H   UNL     1      37.045 -21.692 -11.061  0.00  0.00    +0.210 HD
ENDBRANCH  15  16
ENDBRANCH   3  15
TORSDOF 6
ENDMDL
MODEL 5
REMARK VINA RESULT:      -5.6      1.972      4.002
REMARK  Name = 11073745
REMARK  6 active torsions:
REMARK  status: ('A' for Active; 'I' for Inactive)
REMARK    1  A    between atoms: CA_2  and  C_12
REMARK    2  A    between atoms: CA_3  and  C_15
REMARK    3  A    between atoms: C_4  and  O_8
REMARK    4  A    between atoms: C_5  and  O_10
REMARK    5  A    between atoms: C_12  and  O_13
REMARK    6  A    between atoms: C_15  and  O_16
REMARK                            x       y       z     vdW  Elec       q    Type
REMARK                         _______ _______ _______ _____ _____    ______ ____
ROOT
ATOM      1  N   UNL     1      37.056 -25.601 -12.796  0.00  0.00    +0.393 N 
ATOM      2  CA  UNL     1      37.323 -25.690 -14.240  0.00  0.00    -0.002 C 
ATOM      3  CA  UNL     1      35.851 -24.789 -12.611  0.00  0.00    -0.002 C 
ATOM      4  C   UNL     1      36.406 -24.660 -14.905  0.00  0.00    +0.118 C 
ATOM      5  C   UNL     1      35.935 -23.787 -13.752  0.00  0.00    +0.118 C 
ATOM      6  H1  UNL     1      37.846 -25.163 -12.324  0.00  0.00    -0.084 HD
ATOM      7  H2  UNL     1      36.921 -26.532 -12.401  0.00  0.00    -0.084 HD
ENDROOT
BRANCH   4   8
ATOM      8  O   UNL     1      37.127 -23.888 -15.852  0.00  0.00    -0.384 OA
ATOM      9  H   UNL     1      36.848 -22.961 -15.793  0.00  0.00    +0.210 HD
ENDBRANCH   4   8
BRANCH   5  10
ATOM     10  O   UNL     1      34.669 -23.229 -14.056  0.00  0.00    -0.384 OA
ATOM     11  H   UNL     1      34.658 -22.935 -14.981  0.00  0.00    +0.210 HD
ENDBRANCH   5  10
BRANCH   2  12
ATOM     12  C   UNL     1      37.081 -27.100 -14.772  0.00  0.00    +0.118 C 
BRANCH  12  13
ATOM     13  O   UNL     1      36.777 -27.015 -16.152  0.00  0.00    -0.384 OA
ATOM     14  H   UNL     1      36.943 -27.873 -16.573  0.00  0.00    +0.210 HD
ENDBRANCH  12  13
ENDBRANCH   2  12
BRANCH   3  15
ATOM     15  C   UNL     1      35.836 -24.136 -11.238  0.00  0.00    +0.118 C 
BRANCH  15  16
ATOM     16  O   UNL     1      35.310 -25.060 -10.299  0.00  0.00    -0.384 OA
ATOM     17  H   UNL     1      35.423 -25.962 -10.636  0.00  0.00    +0.210 HD
ENDBRANCH  15  16
ENDBRANCH   3  15
TORSDOF 6
ENDMDL
MODEL 6
REMARK VINA RESULT:      -5.5      2.014      2.749
REMARK  Name = 11073745
REMARK  6 active torsions:
REMARK  status: ('A' for Active; 'I' for Inactive)
REMARK    1  A    between atoms: CA_2  and  C_12
REMARK    2  A    between atoms: CA_3  and  C_15
REMARK    3  A    between atoms: C_4  and  O_8
REMARK    4  A    between atoms: C_5  and  O_10
REMARK    5  A    between atoms: C_12  and  O_13
REMARK    6  A    between atoms: C_15  and  O_16
REMARK                            x       y       z     vdW  Elec       q    Type
REMARK                         _______ _______ _______ _____ _____    ______ ____
ROOT
ATOM      1  N   UNL     1      37.181 -23.245 -13.126  0.00  0.00    +0.393 N 
ATOM      2  CA  UNL     1      36.821 -24.377 -12.257  0.00  0.00    -0.002 C 
ATOM      3  CA  UNL     1      36.687 -23.539 -14.473  0.00  0.00    -0.002 C 
ATOM      4  C   UNL     1      36.349 -25.495 -13.190  0.00  0.00    +0.118 C 
ATOM      5  C   UNL     1      36.822 -25.051 -14.566  0.00  0.00    +0.118 C 
ATOM      6  H1  UNL     1      38.194 -23.133 -13.144  0.00  0.00    -0.084 HD
ATOM      7  H2  UNL     1      36.767 -22.381 -12.775  0.00  0.00    -0.084 HD
ENDROOT
BRANCH   4   8
ATOM      8  O   UNL     1      36.950 -26.730 -12.832  0.00  0.00    -0.384 OA
ATOM      9  H   UNL     1      36.261 -27.403 -12.715  0.00  0.00    +0.210 HD
ENDBRANCH   4   8
BRANCH   5  10
ATOM     10  O   UNL     1      35.977 -25.594 -15.565  0.00  0.00    -0.384 OA
ATOM     11  H   UNL     1      35.049 -25.439 -15.323  0.00  0.00    +0.210 HD
ENDBRANCH   5  10
BRANCH   2  12
ATOM     12  C   UNL     1      35.749 -23.989 -11.242  0.00  0.00    +0.118 C 
BRANCH  12  13
ATOM     13  O   UNL     1      35.306 -25.161 -10.584  0.00  0.00    -0.384 OA
ATOM     14  H   UNL     1      34.636 -25.604 -11.127  0.00  0.00    +0.210 HD
ENDBRANCH  12  13
ENDBRANCH   2  12
BRANCH   3  15
ATOM     15  C   UNL     1      37.495 -22.798 -15.526  0.00  0.00    +0.118 C 
BRANCH  15  16
ATOM     16  O   UNL     1      38.614 -23.591 -15.886  0.00  0.00    -0.384 OA
ATOM     17  H   UNL     1      39.333 -23.016 -16.191  0.00  0.00    +0.210 HD
ENDBRANCH  15  16
ENDBRANCH   3  15
TORSDOF 6
ENDMDL
MODEL 7
REMARK VINA RESULT:      -5.5      1.862      4.146
REMARK  Name = 11073745
REMARK  6 active torsions:
REMARK  status: ('A' for Active; 'I' for Inactive)
REMARK    1  A    between atoms: CA_2  and  C_12
REMARK    2  A    between atoms: CA_3  and  C_15
REMARK    3  A    between atoms: C_4  and  O_8
REMARK    4  A    between atoms: C_5  and  O_10
REMARK    5  A    between atoms: C_12  and  O_13
REMARK    6  A    between atoms: C_15  and  O_16
REMARK                            x       y       z     vdW  Elec       q    Type
REMARK                         _______ _______ _______ _____ _____    ______ ____
ROOT
ATOM      1  N   UNL     1      37.969 -24.917 -15.367  0.00  0.00    +0.393 N 
ATOM      2  CA  UNL     1      38.690 -25.664 -14.325  0.00  0.00    -0.002 C 
ATOM      3  CA  UNL     1      37.452 -23.687 -14.762  0.00  0.00    -0.002 C 
ATOM      4  C   UNL     1      38.341 -24.985 -12.998  0.00  0.00    +0.118 C 
ATOM      5  C   UNL     1      37.142 -24.112 -13.335  0.00  0.00    +0.118 C 
ATOM      6  H1  UNL     1      37.197 -25.479 -15.725  0.00  0.00    -0.084 HD
ATOM      7  H2  UNL     1      38.593 -24.696 -16.144  0.00  0.00    -0.084 HD
ENDROOT
BRANCH   4   8
ATOM      8  O   UNL     1      37.992 -25.952 -12.019  0.00  0.00    -0.384 OA
ATOM      9  H   UNL     1      38.793 -26.405 -11.713  0.00  0.00    +0.210 HD
ENDBRANCH   4   8
BRANCH   5  10
ATOM     10  O   UNL     1      37.092 -23.002 -12.455  0.00  0.00    -0.384 OA
ATOM     11  H   UNL     1      37.533 -23.230 -11.621  0.00  0.00    +0.210 HD
ENDBRANCH   5  10
BRANCH   2  12
ATOM     12  C   UNL     1      40.193 -25.679 -14.581  0.00  0.00    +0.118 C 
BRANCH  12  13
ATOM     13  O   UNL     1      40.414 -25.904 -15.962  0.00  0.00    -0.384 OA
ATOM     14  H   UNL     1      39.561 -25.998 -16.415  0.00  0.00    +0.210 HD
ENDBRANCH  12  13
ENDBRANCH   2  12
BRANCH   3  15
ATOM     15  C   UNL     1      36.234 -23.176 -15.515  0.00  0.00    +0.118 C 
BRANCH  15  16
ATOM     16  O   UNL     1      35.283 -22.701 -14.576  0.00  0.00    -0.384 OA
ATOM     17  H   UNL     1      34.532 -22.309 -15.047  0.00  0.00    +0.210 HD
ENDBRANCH  15  16
ENDBRANCH   3  15
TORSDOF 6
ENDMDL
MODEL 8
REMARK VINA RESULT:      -5.5      2.172      4.208
REMARK  Name = 11073745
REMARK  6 active torsions:
REMARK  status: ('A' for Active; 'I' for Inactive)
REMARK    1  A    between atoms: CA_2  and  C_12
REMARK    2  A    between atoms: CA_3  and  C_15
REMARK    3  A    between atoms: C_4  and  O_8
REMARK    4  A    between atoms: C_5  and  O_10
REMARK    5  A    between atoms: C_12  and  O_13
REMARK    6  A    between atoms: C_15  and  O_16
REMARK                            x       y       z     vdW  Elec       q    Type
REMARK                         _______ _______ _______ _____ _____    ______ ____
ROOT
ATOM      1  N   UNL     1      36.146 -23.101 -13.460  0.00  0.00    +0.393 N 
ATOM      2  CA  UNL     1      36.339 -23.641 -14.815  0.00  0.00    -0.002 C 
ATOM      3  CA  UNL     1      36.579 -24.122 -12.504  0.00  0.00    -0.002 C 
ATOM      4  C   UNL     1      36.628 -25.134 -14.639  0.00  0.00    +0.118 C 
ATOM      5  C   UNL     1      36.216 -25.423 -13.204  0.00  0.00    +0.118 C 
ATOM      6  H1  UNL     1      35.161 -22.881 -13.312  0.00  0.00    -0.084 HD
ATOM      7  H2  UNL     1      36.689 -22.245 -13.338  0.00  0.00    -0.084 HD
ENDROOT
BRANCH   4   8
ATOM      8  O   UNL     1      35.851 -25.903 -15.544  0.00  0.00    -0.384 OA
ATOM      9  H   UNL     1      36.348 -26.694 -15.806  0.00  0.00    +0.210 HD
ENDBRANCH   4   8
BRANCH   5  10
ATOM     10  O   UNL     1      36.962 -26.517 -12.699  0.00  0.00    -0.384 OA
ATOM     11  H   UNL     1      36.576 -27.347 -13.020  0.00  0.00    +0.210 HD
ENDBRANCH   5  10
BRANCH   2  12
ATOM     12  C   UNL     1      37.465 -22.923 -15.553  0.00  0.00    +0.118 C 
BRANCH  12  13
ATOM     13  O   UNL     1      38.601 -23.768 -15.574  0.00  0.00    -0.384 OA
ATOM     14  H   UNL     1      38.878 -23.962 -14.666  0.00  0.00    +0.210 HD
ENDBRANCH  12  13
ENDBRANCH   2  12
BRANCH   3  15
ATOM     15  C   UNL     1      35.883 -23.947 -11.163  0.00  0.00    +0.118 C 
BRANCH  15  16
ATOM     16  O   UNL     1      35.313 -25.187 -10.779  0.00  0.00    -0.384 OA
ATOM     17  H   UNL     1      35.515 -25.361  -9.846  0.00  0.00    +0.210 HD
ENDBRANCH  15  16
ENDBRANCH   3  15
TORSDOF 6
ENDMDL
MODEL 9
REMARK VINA RESULT:      -5.5      1.793      2.288
REMARK  Name = 11073745
REMARK  6 active torsions:
REMARK  status: ('A' for Active; 'I' for Inactive)
REMARK    1  A    between atoms: CA_2  and  C_12
REMARK    2  A    between atoms: CA_3  and  C_15
REMARK    3  A    between atoms: C_4  and  O_8
REMARK    4  A    between atoms: C_5  and  O_10
REMARK    5  A    between atoms: C_12  and  O_13
REMARK    6  A    between atoms: C_15  and  O_16
REMARK                            x       y       z     vdW  Elec       q    Type
REMARK                         _______ _______ _______ _____ _____    ______ ____
ROOT
ATOM      1  N   UNL     1      37.792 -23.849 -13.971  0.00  0.00    +0.393 N 
ATOM      2  CA  UNL     1      36.740 -24.394 -13.098  0.00  0.00    -0.002 C 
ATOM      3  CA  UNL     1      38.314 -24.948 -14.786  0.00  0.00    -0.002 C 
ATOM      4  C   UNL     1      36.848 -25.917 -13.206  0.00  0.00    +0.118 C 
ATOM      5  C   UNL     1      38.204 -26.146 -13.856  0.00  0.00    +0.118 C 
ATOM      6  H1  UNL     1      38.541 -23.451 -13.404  0.00  0.00    -0.084 HD
ATOM      7  H2  UNL     1      37.413 -23.112 -14.568  0.00  0.00    -0.084 HD
ENDROOT
BRANCH   4   8
ATOM      8  O   UNL     1      36.807 -26.513 -11.918  0.00  0.00    -0.384 OA
ATOM      9  H   UNL     1      37.285 -27.356 -11.937  0.00  0.00    +0.210 HD
ENDBRANCH   4   8
BRANCH   5  10
ATOM     10  O   UNL     1      38.194 -27.368 -14.573  0.00  0.00    -0.384 OA
ATOM     11  H   UNL     1      39.081 -27.763 -14.552  0.00  0.00    +0.210 HD
ENDBRANCH   5  10
BRANCH   2  12
ATOM     12  C   UNL     1      35.358 -23.888 -13.499  0.00  0.00    +0.118 C 
BRANCH  12  13
ATOM     13  O   UNL     1      34.628 -23.590 -12.323  0.00  0.00    -0.384 OA
ATOM     14  H   UNL     1      34.032 -24.327 -12.117  0.00  0.00    +0.210 HD
ENDBRANCH  12  13
ENDBRANCH   2  12
BRANCH   3  15
ATOM     15  C   UNL     1      39.738 -24.667 -15.238  0.00  0.00    +0.118 C 
BRANCH  15  16
ATOM     16  O   UNL     1      40.212 -25.781 -15.976  0.00  0.00    -0.384 OA
ATOM     17  H   UNL     1      40.989 -26.156 -15.533  0.00  0.00    +0.210 HD
ENDBRANCH  15  16
ENDBRANCH   3  15
TORSDOF 6
ENDMDL
