MODEL 1
REMARK VINA RESULT:      -8.7      0.000      0.000
REMARK  Name = 13023332
REMARK  7 active torsions:
REMARK  status: ('A' for Active; 'I' for Inactive)
REMARK    1  A    between atoms: C_6  and  O_15
REMARK    2  A    between atoms: O_15  and  C_16
REMARK    3  A    between atoms: C_16  and  C_17
REMARK    4  A    between atoms: C_17  and  O_18
REMARK    5  A    between atoms: C_17  and  C_20
REMARK    6  A    between atoms: C_20  and  N_21
REMARK    7  A    between atoms: N_21  and  C_24
REMARK                            x       y       z     vdW  Elec       q    Type
REMARK                         _______ _______ _______ _____ _____    ______ ____
ROOT
ATOM      1  N   UNL     1      32.866 -22.963 -17.714  0.00  0.00    -0.353 N 
ATOM      2  C   UNL     1      33.883 -23.351 -15.767  0.00  0.00    +0.051 A 
ATOM      3  C   UNL     1      34.834 -22.792 -16.679  0.00  0.00    +0.020 A 
ATOM      4  C   UNL     1      32.665 -23.445 -16.442  0.00  0.00    +0.060 A 
ATOM      5  C   UNL     1      34.170 -22.561 -17.884  0.00  0.00    +0.057 A 
ATOM      6  C   UNL     1      33.947 -23.785 -14.426  0.00  0.00    +0.140 C 
ATOM      7  C   UNL     1      31.507 -23.953 -15.844  0.00  0.00    +0.017 C 
ATOM      8  C   UNL     1      32.797 -24.295 -13.816  0.00  0.00    +0.037 C 
ATOM      9  C   UNL     1      36.202 -22.460 -16.589  0.00  0.00    +0.002 C 
ATOM     10  C   UNL     1      34.804 -22.015 -19.006  0.00  0.00    +0.017 C 
ATOM     11  C   UNL     1      31.596 -24.377 -14.515  0.00  0.00    +0.005 C 
ATOM     12  C   UNL     1      36.850 -21.913 -17.702  0.00  0.00    +0.000 C 
ATOM     13  C   UNL     1      36.159 -21.694 -18.892  0.00  0.00    +0.001 C 
ATOM     14  H   UNL     1      32.170 -22.914 -18.408  0.00  0.00    +0.166 HD
ENDROOT
BRANCH   6  15
ATOM     15  O   UNL     1      35.110 -23.722 -13.704  0.00  0.00    -0.473 OA
BRANCH  15  16
ATOM     16  C   UNL     1      35.044 -24.145 -12.347  0.00  0.00    +0.232 C 
BRANCH  16  17
ATOM     17  C   UNL     1      36.416 -23.956 -11.704  0.00  0.00    +0.133 C 
BRANCH  17  18
ATOM     18  O   UNL     1      36.292 -24.153 -10.293  0.00  0.00    -0.383 OA
ATOM     19  H   UNL     1      36.621 -23.369  -9.827  0.00  0.00    +0.210 HD
ENDBRANCH  17  18
BRANCH  17  20
ATOM     20  C   UNL     1      37.470 -24.934 -12.231  0.00  0.00    -0.048 C 
BRANCH  20  21
ATOM     21  N   UNL     1      36.869 -26.054 -12.944  0.00  0.00    +0.387 N 
ATOM     22  H   UNL     1      35.893 -25.837 -13.145  0.00  0.00    -0.084 HD
ATOM     23  H   UNL     1      36.937 -26.886 -12.358  0.00  0.00    -0.084 HD
BRANCH  21  24
ATOM     24  C   UNL     1      37.568 -26.310 -14.196  0.00  0.00    -0.062 C 
ATOM     25  C   UNL     1      38.469 -25.129 -14.548  0.00  0.00    -0.023 C 
ATOM     26  C   UNL     1      36.551 -26.571 -15.302  0.00  0.00    -0.023 C 
ENDBRANCH  21  24
ENDBRANCH  20  21
ENDBRANCH  17  20
ENDBRANCH  16  17
ENDBRANCH  15  16
ENDBRANCH   6  15
TORSDOF 7
ENDMDL
MODEL 2
REMARK VINA RESULT:      -8.4      6.599      9.521
REMARK  Name = 13023332
REMARK  7 active torsions:
REMARK  status: ('A' for Active; 'I' for Inactive)
REMARK    1  A    between atoms: C_6  and  O_15
REMARK    2  A    between atoms: O_15  and  C_16
REMARK    3  A    between atoms: C_16  and  C_17
REMARK    4  A    between atoms: C_17  and  O_18
REMARK    5  A    between atoms: C_17  and  C_20
REMARK    6  A    between atoms: C_20  and  N_21
REMARK    7  A    between atoms: N_21  and  C_24
REMARK                            x       y       z     vdW  Elec       q    Type
REMARK                         _______ _______ _______ _____ _____    ______ ____
ROOT
ATOM      1  N   UNL     1      33.623 -15.088 -24.175  0.00  0.00    -0.353 N 
ATOM      2  C   UNL     1      34.085 -16.738 -22.746  0.00  0.00    +0.051 A 
ATOM      3  C   UNL     1      33.507 -15.649 -22.019  0.00  0.00    +0.020 A 
ATOM      4  C   UNL     1      34.144 -16.358 -24.088  0.00  0.00    +0.060 A 
ATOM      5  C   UNL     1      33.230 -14.635 -22.938  0.00  0.00    +0.057 A 
ATOM      6  C   UNL     1      34.563 -18.015 -22.385  0.00  0.00    +0.140 C 
ATOM      7  C   UNL     1      34.658 -17.191 -25.087  0.00  0.00    +0.017 C 
ATOM      8  C   UNL     1      35.080 -18.858 -23.374  0.00  0.00    +0.037 C 
ATOM      9  C   UNL     1      33.194 -15.432 -20.661  0.00  0.00    +0.002 C 
ATOM     10  C   UNL     1      32.655 -13.414 -22.567  0.00  0.00    +0.017 C 
ATOM     11  C   UNL     1      35.126 -18.450 -24.705  0.00  0.00    +0.005 C 
ATOM     12  C   UNL     1      32.618 -14.216 -20.275  0.00  0.00    +0.000 C 
ATOM     13  C   UNL     1      32.353 -13.223 -21.216  0.00  0.00    +0.001 C 
ATOM     14  H   UNL     1      33.543 -14.574 -25.010  0.00  0.00    +0.166 HD
ENDROOT
BRANCH   6  15
ATOM     15  O   UNL     1      34.537 -18.452 -21.086  0.00  0.00    -0.473 OA
BRANCH  15  16
ATOM     16  C   UNL     1      34.709 -19.849 -20.879  0.00  0.00    +0.232 C 
BRANCH  16  17
ATOM     17  C   UNL     1      33.522 -20.379 -20.078  0.00  0.00    +0.133 C 
BRANCH  17  18
ATOM     18  O   UNL     1      32.374 -20.421 -20.931  0.00  0.00    -0.383 OA
ATOM     19  H   UNL     1      32.529 -21.054 -21.650  0.00  0.00    +0.210 HD
ENDBRANCH  17  18
BRANCH  17  20
ATOM     20  C   UNL     1      33.750 -21.785 -19.517  0.00  0.00    -0.048 C 
BRANCH  20  21
ATOM     21  N   UNL     1      32.682 -22.194 -18.613  0.00  0.00    +0.387 N 
ATOM     22  H   UNL     1      31.916 -22.585 -19.159  0.00  0.00    -0.084 HD
ATOM     23  H   UNL     1      32.368 -21.377 -18.090  0.00  0.00    -0.084 HD
BRANCH  21  24
ATOM     24  C   UNL     1      33.155 -23.197 -17.669  0.00  0.00    -0.062 C 
ATOM     25  C   UNL     1      32.176 -23.330 -16.505  0.00  0.00    -0.023 C 
ATOM     26  C   UNL     1      34.546 -22.813 -17.174  0.00  0.00    -0.023 C 
ENDBRANCH  21  24
ENDBRANCH  20  21
ENDBRANCH  17  20
ENDBRANCH  16  17
ENDBRANCH  15  16
ENDBRANCH   6  15
TORSDOF 7
ENDMDL
MODEL 3
REMARK VINA RESULT:      -8.4      2.305      5.643
REMARK  Name = 13023332
REMARK  7 active torsions:
REMARK  status: ('A' for Active; 'I' for Inactive)
REMARK    1  A    between atoms: C_6  and  O_15
REMARK    2  A    between atoms: O_15  and  C_16
REMARK    3  A    between atoms: C_16  and  C_17
REMARK    4  A    between atoms: C_17  and  O_18
REMARK    5  A    between atoms: C_17  and  C_20
REMARK    6  A    between atoms: C_20  and  N_21
REMARK    7  A    between atoms: N_21  and  C_24
REMARK                            x       y       z     vdW  Elec       q    Type
REMARK                         _______ _______ _______ _____ _____    ______ ____
ROOT
ATOM      1  N   UNL     1      33.093 -23.688 -13.178  0.00  0.00    -0.353 N 
ATOM      2  C   UNL     1      34.879 -23.679 -14.514  0.00  0.00    +0.051 A 
ATOM      3  C   UNL     1      33.712 -23.440 -15.307  0.00  0.00    +0.020 A 
ATOM      4  C   UNL     1      34.460 -23.829 -13.191  0.00  0.00    +0.060 A 
ATOM      5  C   UNL     1      32.614 -23.452 -14.446  0.00  0.00    +0.057 A 
ATOM      6  C   UNL     1      36.257 -23.779 -14.801  0.00  0.00    +0.140 C 
ATOM      7  C   UNL     1      35.350 -24.077 -12.140  0.00  0.00    +0.017 C 
ATOM      8  C   UNL     1      37.157 -24.027 -13.760  0.00  0.00    +0.037 C 
ATOM      9  C   UNL     1      33.488 -23.214 -16.681  0.00  0.00    +0.002 C 
ATOM     10  C   UNL     1      31.302 -23.250 -14.889  0.00  0.00    +0.017 C 
ATOM     11  C   UNL     1      36.709 -24.173 -12.450  0.00  0.00    +0.005 C 
ATOM     12  C   UNL     1      32.182 -23.009 -17.139  0.00  0.00    +0.000 C 
ATOM     13  C   UNL     1      31.105 -23.027 -16.254  0.00  0.00    +0.001 C 
ATOM     14  H   UNL     1      32.532 -23.750 -12.372  0.00  0.00    +0.166 HD
ENDROOT
BRANCH   6  15
ATOM     15  O   UNL     1      36.738 -23.642 -16.077  0.00  0.00    -0.473 OA
BRANCH  15  16
ATOM     16  C   UNL     1      37.595 -22.534 -16.322  0.00  0.00    +0.232 C 
BRANCH  16  17
ATOM     17  C   UNL     1      36.795 -21.435 -17.017  0.00  0.00    +0.133 C 
BRANCH  17  18
ATOM     18  O   UNL     1      37.600 -20.255 -17.086  0.00  0.00    -0.383 OA
ATOM     19  H   UNL     1      37.186 -19.549 -16.566  0.00  0.00    +0.210 HD
ENDBRANCH  17  18
BRANCH  17  20
ATOM     20  C   UNL     1      36.369 -21.805 -18.440  0.00  0.00    -0.048 C 
BRANCH  20  21
ATOM     21  N   UNL     1      36.501 -20.683 -19.360  0.00  0.00    +0.387 N 
ATOM     22  H   UNL     1      37.412 -20.731 -19.816  0.00  0.00    -0.084 HD
ATOM     23  H   UNL     1      36.412 -19.816 -18.831  0.00  0.00    -0.084 HD
BRANCH  21  24
ATOM     24  C   UNL     1      35.458 -20.717 -20.376  0.00  0.00    -0.062 C 
ATOM     25  C   UNL     1      35.298 -19.341 -21.016  0.00  0.00    -0.023 C 
ATOM     26  C   UNL     1      34.150 -21.184 -19.745  0.00  0.00    -0.023 C 
ENDBRANCH  21  24
ENDBRANCH  20  21
ENDBRANCH  17  20
ENDBRANCH  16  17
ENDBRANCH  15  16
ENDBRANCH   6  15
TORSDOF 7
ENDMDL
MODEL 4
REMARK VINA RESULT:      -8.3      2.398      5.295
REMARK  Name = 13023332
REMARK  7 active torsions:
REMARK  status: ('A' for Active; 'I' for Inactive)
REMARK    1  A    between atoms: C_6  and  O_15
REMARK    2  A    between atoms: O_15  and  C_16
REMARK    3  A    between atoms: C_16  and  C_17
REMARK    4  A    between atoms: C_17  and  O_18
REMARK    5  A    between atoms: C_17  and  C_20
REMARK    6  A    between atoms: C_20  and  N_21
REMARK    7  A    between atoms: N_21  and  C_24
REMARK                            x       y       z     vdW  Elec       q    Type
REMARK                         _______ _______ _______ _____ _____    ______ ____
ROOT
ATOM      1  N   UNL     1      37.030 -22.277 -16.390  0.00  0.00    -0.353 N 
ATOM      2  C   UNL     1      35.137 -23.219 -15.680  0.00  0.00    +0.051 A 
ATOM      3  C   UNL     1      34.944 -22.756 -17.020  0.00  0.00    +0.020 A 
ATOM      4  C   UNL     1      36.447 -22.906 -15.315  0.00  0.00    +0.060 A 
ATOM      5  C   UNL     1      36.143 -22.173 -17.435  0.00  0.00    +0.057 A 
ATOM      6  C   UNL     1      34.314 -23.879 -14.742  0.00  0.00    +0.140 C 
ATOM      7  C   UNL     1      36.977 -23.218 -14.058  0.00  0.00    +0.017 C 
ATOM      8  C   UNL     1      34.831 -24.197 -13.482  0.00  0.00    +0.037 C 
ATOM      9  C   UNL     1      33.859 -22.780 -17.921  0.00  0.00    +0.002 C 
ATOM     10  C   UNL     1      36.311 -21.612 -18.706  0.00  0.00    +0.017 C 
ATOM     11  C   UNL     1      36.143 -23.871 -13.147  0.00  0.00    +0.005 C 
ATOM     12  C   UNL     1      34.012 -22.222 -19.195  0.00  0.00    +0.000 C 
ATOM     13  C   UNL     1      35.221 -21.647 -19.581  0.00  0.00    +0.001 C 
ATOM     14  H   UNL     1      37.956 -21.945 -16.408  0.00  0.00    +0.166 HD
ENDROOT
BRANCH   6  15
ATOM     15  O   UNL     1      33.018 -24.216 -15.033  0.00  0.00    -0.473 OA
BRANCH  15  16
ATOM     16  C   UNL     1      32.028 -23.816 -14.093  0.00  0.00    +0.232 C 
BRANCH  16  17
ATOM     17  C   UNL     1      31.148 -25.020 -13.762  0.00  0.00    +0.133 C 
BRANCH  17  18
ATOM     18  O   UNL     1      30.406 -24.733 -12.573  0.00  0.00    -0.383 OA
ATOM     19  H   UNL     1      29.676 -25.366 -12.487  0.00  0.00    +0.210 HD
ENDBRANCH  17  18
BRANCH  17  20
ATOM     20  C   UNL     1      30.153 -25.364 -14.873  0.00  0.00    -0.048 C 
BRANCH  20  21
ATOM     21  N   UNL     1      30.038 -24.295 -15.856  0.00  0.00    +0.387 N 
ATOM     22  H   UNL     1      30.175 -24.683 -16.789  0.00  0.00    -0.084 HD
ATOM     23  H   UNL     1      30.747 -23.590 -15.655  0.00  0.00    -0.084 HD
BRANCH  21  24
ATOM     24  C   UNL     1      28.726 -23.665 -15.790  0.00  0.00    -0.062 C 
ATOM     25  C   UNL     1      28.121 -23.557 -17.187  0.00  0.00    -0.023 C 
ATOM     26  C   UNL     1      28.854 -22.291 -15.140  0.00  0.00    -0.023 C 
ENDBRANCH  21  24
ENDBRANCH  20  21
ENDBRANCH  17  20
ENDBRANCH  16  17
ENDBRANCH  15  16
ENDBRANCH   6  15
TORSDOF 7
ENDMDL
MODEL 5
REMARK VINA RESULT:      -8.2     10.790     14.425
REMARK  Name = 13023332
REMARK  7 active torsions:
REMARK  status: ('A' for Active; 'I' for Inactive)
REMARK    1  A    between atoms: C_6  and  O_15
REMARK    2  A    between atoms: O_15  and  C_16
REMARK    3  A    between atoms: C_16  and  C_17
REMARK    4  A    between atoms: C_17  and  O_18
REMARK    5  A    between atoms: C_17  and  C_20
REMARK    6  A    between atoms: C_20  and  N_21
REMARK    7  A    between atoms: N_21  and  C_24
REMARK                            x       y       z     vdW  Elec       q    Type
REMARK                         _______ _______ _______ _____ _____    ______ ____
ROOT
ATOM      1  N   UNL     1      34.224 -16.932 -24.892  0.00  0.00    -0.353 N 
ATOM      2  C   UNL     1      33.849 -14.885 -24.089  0.00  0.00    +0.051 A 
ATOM      3  C   UNL     1      34.287 -15.726 -23.016  0.00  0.00    +0.020 A 
ATOM      4  C   UNL     1      33.820 -15.666 -25.245  0.00  0.00    +0.060 A 
ATOM      5  C   UNL     1      34.513 -16.996 -23.549  0.00  0.00    +0.057 A 
ATOM      6  C   UNL     1      33.475 -13.528 -24.182  0.00  0.00    +0.140 C 
ATOM      7  C   UNL     1      33.435 -15.159 -26.491  0.00  0.00    +0.017 C 
ATOM      8  C   UNL     1      33.087 -13.008 -25.421  0.00  0.00    +0.037 C 
ATOM      9  C   UNL     1      34.512 -15.522 -21.639  0.00  0.00    +0.002 C 
ATOM     10  C   UNL     1      34.953 -18.074 -22.772  0.00  0.00    +0.017 C 
ATOM     11  C   UNL     1      33.069 -13.812 -26.557  0.00  0.00    +0.005 C 
ATOM     12  C   UNL     1      34.953 -16.591 -20.850  0.00  0.00    +0.000 C 
ATOM     13  C   UNL     1      35.170 -17.848 -21.411  0.00  0.00    +0.001 C 
ATOM     14  H   UNL     1      34.296 -17.690 -25.515  0.00  0.00    +0.166 HD
ENDROOT
BRANCH   6  15
ATOM     15  O   UNL     1      33.478 -12.704 -23.087  0.00  0.00    -0.473 OA
BRANCH  15  16
ATOM     16  C   UNL     1      32.322 -12.736 -22.259  0.00  0.00    +0.232 C 
BRANCH  16  17
ATOM     17  C   UNL     1      31.505 -11.469 -22.503  0.00  0.00    +0.133 C 
BRANCH  17  18
ATOM     18  O   UNL     1      30.468 -11.395 -21.520  0.00  0.00    -0.383 OA
ATOM     19  H   UNL     1      30.556 -12.137 -20.901  0.00  0.00    +0.210 HD
ENDBRANCH  17  18
BRANCH  17  20
ATOM     20  C   UNL     1      32.337 -10.187 -22.415  0.00  0.00    -0.048 C 
BRANCH  20  21
ATOM     21  N   UNL     1      32.835  -9.769 -23.719  0.00  0.00    +0.387 N 
ATOM     22  H   UNL     1      32.277  -8.984 -24.053  0.00  0.00    -0.084 HD
ATOM     23  H   UNL     1      32.766 -10.557 -24.362  0.00  0.00    -0.084 HD
BRANCH  21  24
ATOM     24  C   UNL     1      34.231  -9.358 -23.636  0.00  0.00    -0.062 C 
ATOM     25  C   UNL     1      34.332  -7.835 -23.604  0.00  0.00    -0.023 C 
ATOM     26  C   UNL     1      35.002  -9.935 -24.818  0.00  0.00    -0.023 C 
ENDBRANCH  21  24
ENDBRANCH  20  21
ENDBRANCH  17  20
ENDBRANCH  16  17
ENDBRANCH  15  16
ENDBRANCH   6  15
TORSDOF 7
ENDMDL
MODEL 6
REMARK VINA RESULT:      -8.2      1.499      4.248
REMARK  Name = 13023332
REMARK  7 active torsions:
REMARK  status: ('A' for Active; 'I' for Inactive)
REMARK    1  A    between atoms: C_6  and  O_15
REMARK    2  A    between atoms: O_15  and  C_16
REMARK    3  A    between atoms: C_16  and  C_17
REMARK    4  A    between atoms: C_17  and  O_18
REMARK    5  A    between atoms: C_17  and  C_20
REMARK    6  A    between atoms: C_20  and  N_21
REMARK    7  A    between atoms: N_21  and  C_24
REMARK                            x       y       z     vdW  Elec       q    Type
REMARK                         _______ _______ _______ _____ _____    ______ ____
ROOT
ATOM      1  N   UNL     1      32.197 -22.954 -17.659  0.00  0.00    -0.353 N 
ATOM      2  C   UNL     1      34.134 -22.977 -16.553  0.00  0.00    +0.051 A 
ATOM      3  C   UNL     1      33.107 -23.478 -15.691  0.00  0.00    +0.020 A 
ATOM      4  C   UNL     1      33.535 -22.659 -17.773  0.00  0.00    +0.060 A 
ATOM      5  C   UNL     1      31.911 -23.451 -16.409  0.00  0.00    +0.057 A 
ATOM      6  C   UNL     1      35.522 -22.767 -16.407  0.00  0.00    +0.140 C 
ATOM      7  C   UNL     1      34.253 -22.139 -18.855  0.00  0.00    +0.017 C 
ATOM      8  C   UNL     1      36.252 -22.247 -17.481  0.00  0.00    +0.037 C 
ATOM      9  C   UNL     1      33.086 -23.953 -14.363  0.00  0.00    +0.002 C 
ATOM     10  C   UNL     1      30.693 -23.875 -15.866  0.00  0.00    +0.017 C 
ATOM     11  C   UNL     1      35.626 -21.939 -18.686  0.00  0.00    +0.005 C 
ATOM     12  C   UNL     1      31.875 -24.381 -13.806  0.00  0.00    +0.000 C 
ATOM     13  C   UNL     1      30.696 -24.342 -14.549  0.00  0.00    +0.001 C 
ATOM     14  H   UNL     1      31.534 -22.826 -18.374  0.00  0.00    +0.166 HD
ENDROOT
BRANCH   6  15
ATOM     15  O   UNL     1      36.174 -23.056 -15.238  0.00  0.00    -0.473 OA
BRANCH  15  16
ATOM     16  C   UNL     1      37.279 -23.948 -15.326  0.00  0.00    +0.232 C 
BRANCH  16  17
ATOM     17  C   UNL     1      36.801 -25.360 -14.991  0.00  0.00    +0.133 C 
BRANCH  17  18
ATOM     18  O   UNL     1      37.579 -26.297 -15.741  0.00  0.00    -0.383 OA
ATOM     19  H   UNL     1      38.522 -26.139 -15.577  0.00  0.00    +0.210 HD
ENDBRANCH  17  18
BRANCH  17  20
ATOM     20  C   UNL     1      36.936 -25.707 -13.507  0.00  0.00    -0.048 C 
BRANCH  20  21
ATOM     21  N   UNL     1      35.925 -25.043 -12.695  0.00  0.00    +0.387 N 
ATOM     22  H   UNL     1      35.215 -25.723 -12.425  0.00  0.00    -0.084 HD
ATOM     23  H   UNL     1      35.510 -24.291 -13.243  0.00  0.00    -0.084 HD
BRANCH  21  24
ATOM     24  C   UNL     1      36.517 -24.470 -11.493  0.00  0.00    -0.062 C 
ATOM     25  C   UNL     1      35.503 -24.473 -10.352  0.00  0.00    -0.023 C 
ATOM     26  C   UNL     1      37.002 -23.055 -11.791  0.00  0.00    -0.023 C 
ENDBRANCH  21  24
ENDBRANCH  20  21
ENDBRANCH  17  20
ENDBRANCH  16  17
ENDBRANCH  15  16
ENDBRANCH   6  15
TORSDOF 7
ENDMDL
MODEL 7
REMARK VINA RESULT:      -8.2      7.665     10.455
REMARK  Name = 13023332
REMARK  7 active torsions:
REMARK  status: ('A' for Active; 'I' for Inactive)
REMARK    1  A    between atoms: C_6  and  O_15
REMARK    2  A    between atoms: O_15  and  C_16
REMARK    3  A    between atoms: C_16  and  C_17
REMARK    4  A    between atoms: C_17  and  O_18
REMARK    5  A    between atoms: C_17  and  C_20
REMARK    6  A    between atoms: C_20  and  N_21
REMARK    7  A    between atoms: N_21  and  C_24
REMARK                            x       y       z     vdW  Elec       q    Type
REMARK                         _______ _______ _______ _____ _____    ______ ____
ROOT
ATOM      1  N   UNL     1      32.733 -13.784 -24.280  0.00  0.00    -0.353 N 
ATOM      2  C   UNL     1      33.733 -15.398 -23.109  0.00  0.00    +0.051 A 
ATOM      3  C   UNL     1      33.150 -14.463 -22.196  0.00  0.00    +0.020 A 
ATOM      4  C   UNL     1      33.456 -14.947 -24.401  0.00  0.00    +0.060 A 
ATOM      5  C   UNL     1      32.534 -13.468 -22.956  0.00  0.00    +0.057 A 
ATOM      6  C   UNL     1      34.472 -16.590 -22.955  0.00  0.00    +0.140 C 
ATOM      7  C   UNL     1      33.881 -15.628 -25.547  0.00  0.00    +0.017 C 
ATOM      8  C   UNL     1      34.904 -17.281 -24.092  0.00  0.00    +0.037 C 
ATOM      9  C   UNL     1      33.090 -14.371 -20.790  0.00  0.00    +0.002 C 
ATOM     10  C   UNL     1      31.859 -12.385 -22.381  0.00  0.00    +0.017 C 
ATOM     11  C   UNL     1      34.612 -16.805 -25.368  0.00  0.00    +0.005 C 
ATOM     12  C   UNL     1      32.419 -13.294 -20.200  0.00  0.00    +0.000 C 
ATOM     13  C   UNL     1      31.813 -12.316 -20.986  0.00  0.00    +0.001 C 
ATOM     14  H   UNL     1      32.403 -13.250 -25.038  0.00  0.00    +0.166 HD
ENDROOT
BRANCH   6  15
ATOM     15  O   UNL     1      34.781 -17.090 -21.717  0.00  0.00    -0.473 OA
BRANCH  15  16
ATOM     16  C   UNL     1      34.193 -18.336 -21.365  0.00  0.00    +0.232 C 
BRANCH  16  17
ATOM     17  C   UNL     1      35.276 -19.413 -21.372  0.00  0.00    +0.133 C 
BRANCH  17  18
ATOM     18  O   UNL     1      36.542 -18.791 -21.132  0.00  0.00    -0.383 OA
ATOM     19  H   UNL     1      37.248 -19.449 -21.230  0.00  0.00    +0.210 HD
ENDBRANCH  17  18
BRANCH  17  20
ATOM     20  C   UNL     1      35.064 -20.490 -20.306  0.00  0.00    -0.048 C 
BRANCH  20  21
ATOM     21  N   UNL     1      36.211 -20.612 -19.416  0.00  0.00    +0.387 N 
ATOM     22  H   UNL     1      36.215 -19.826 -18.766  0.00  0.00    -0.084 HD
ATOM     23  H   UNL     1      37.061 -20.614 -19.979  0.00  0.00    -0.084 HD
BRANCH  21  24
ATOM     24  C   UNL     1      36.153 -21.855 -18.658  0.00  0.00    -0.062 C 
ATOM     25  C   UNL     1      34.701 -22.267 -18.431  0.00  0.00    -0.023 C 
ATOM     26  C   UNL     1      36.886 -21.678 -17.333  0.00  0.00    -0.023 C 
ENDBRANCH  21  24
ENDBRANCH  20  21
ENDBRANCH  17  20
ENDBRANCH  16  17
ENDBRANCH  15  16
ENDBRANCH   6  15
TORSDOF 7
ENDMDL
MODEL 8
REMARK VINA RESULT:      -8.2      3.071      7.059
REMARK  Name = 13023332
REMARK  7 active torsions:
REMARK  status: ('A' for Active; 'I' for Inactive)
REMARK    1  A    between atoms: C_6  and  O_15
REMARK    2  A    between atoms: O_15  and  C_16
REMARK    3  A    between atoms: C_16  and  C_17
REMARK    4  A    between atoms: C_17  and  O_18
REMARK    5  A    between atoms: C_17  and  C_20
REMARK    6  A    between atoms: C_20  and  N_21
REMARK    7  A    between atoms: N_21  and  C_24
REMARK                            x       y       z     vdW  Elec       q    Type
REMARK                         _______ _______ _______ _____ _____    ______ ____
ROOT
ATOM      1  N   UNL     1      33.793 -23.689 -13.544  0.00  0.00    -0.353 N 
ATOM      2  C   UNL     1      34.609 -23.132 -15.544  0.00  0.00    +0.051 A 
ATOM      3  C   UNL     1      33.183 -23.209 -15.635  0.00  0.00    +0.020 A 
ATOM      4  C   UNL     1      34.959 -23.436 -14.227  0.00  0.00    +0.060 A 
ATOM      5  C   UNL     1      32.703 -23.559 -14.372  0.00  0.00    +0.057 A 
ATOM      6  C   UNL     1      35.636 -22.829 -16.462  0.00  0.00    +0.140 C 
ATOM      7  C   UNL     1      36.285 -23.454 -13.783  0.00  0.00    +0.017 C 
ATOM      8  C   UNL     1      36.966 -22.843 -16.031  0.00  0.00    +0.037 C 
ATOM      9  C   UNL     1      32.254 -23.013 -16.679  0.00  0.00    +0.002 C 
ATOM     10  C   UNL     1      31.340 -23.723 -14.099  0.00  0.00    +0.017 C 
ATOM     11  C   UNL     1      37.284 -23.151 -14.711  0.00  0.00    +0.005 C 
ATOM     12  C   UNL     1      30.888 -23.174 -16.421  0.00  0.00    +0.000 C 
ATOM     13  C   UNL     1      30.439 -23.523 -15.148  0.00  0.00    +0.001 C 
ATOM     14  H   UNL     1      33.745 -23.931 -12.591  0.00  0.00    +0.166 HD
ENDROOT
BRANCH   6  15
ATOM     15  O   UNL     1      35.364 -22.522 -17.770  0.00  0.00    -0.473 OA
BRANCH  15  16
ATOM     16  C   UNL     1      36.317 -21.712 -18.448  0.00  0.00    +0.232 C 
BRANCH  16  17
ATOM     17  C   UNL     1      35.758 -21.332 -19.817  0.00  0.00    +0.133 C 
BRANCH  17  18
ATOM     18  O   UNL     1      34.363 -21.044 -19.679  0.00  0.00    -0.383 OA
ATOM     19  H   UNL     1      33.907 -21.247 -20.510  0.00  0.00    +0.210 HD
ENDBRANCH  17  18
BRANCH  17  20
ATOM     20  C   UNL     1      36.439 -20.106 -20.429  0.00  0.00    -0.048 C 
BRANCH  20  21
ATOM     21  N   UNL     1      35.525 -18.978 -20.554  0.00  0.00    +0.387 N 
ATOM     22  H   UNL     1      35.775 -18.268 -19.866  0.00  0.00    -0.084 HD
ATOM     23  H   UNL     1      34.574 -19.310 -20.396  0.00  0.00    -0.084 HD
BRANCH  21  24
ATOM     24  C   UNL     1      35.597 -18.395 -21.888  0.00  0.00    -0.062 C 
ATOM     25  C   UNL     1      35.028 -16.979 -21.877  0.00  0.00    -0.023 C 
ATOM     26  C   UNL     1      34.842 -19.282 -22.871  0.00  0.00    -0.023 C 
ENDBRANCH  21  24
ENDBRANCH  20  21
ENDBRANCH  17  20
ENDBRANCH  16  17
ENDBRANCH  15  16
ENDBRANCH   6  15
TORSDOF 7
ENDMDL
MODEL 9
REMARK VINA RESULT:      -8.1     11.047     14.539
REMARK  Name = 13023332
REMARK  7 active torsions:
REMARK  status: ('A' for Active; 'I' for Inactive)
REMARK    1  A    between atoms: C_6  and  O_15
REMARK    2  A    between atoms: O_15  and  C_16
REMARK    3  A    between atoms: C_16  and  C_17
REMARK    4  A    between atoms: C_17  and  O_18
REMARK    5  A    between atoms: C_17  and  C_20
REMARK    6  A    between atoms: C_20  and  N_21
REMARK    7  A    between atoms: N_21  and  C_24
REMARK                            x       y       z     vdW  Elec       q    Type
REMARK                         _______ _______ _______ _____ _____    ______ ____
ROOT
ATOM      1  N   UNL     1      34.028 -16.429 -24.639  0.00  0.00    -0.353 N 
ATOM      2  C   UNL     1      33.819 -14.257 -24.178  0.00  0.00    +0.051 A 
ATOM      3  C   UNL     1      34.160 -14.951 -22.973  0.00  0.00    +0.020 A 
ATOM      4  C   UNL     1      33.744 -15.206 -25.198  0.00  0.00    +0.060 A 
ATOM      5  C   UNL     1      34.284 -16.304 -23.293  0.00  0.00    +0.057 A 
ATOM      6  C   UNL     1      33.567 -12.905 -24.493  0.00  0.00    +0.140 C 
ATOM      7  C   UNL     1      33.429 -14.871 -26.520  0.00  0.00    +0.017 C 
ATOM      8  C   UNL     1      33.251 -12.556 -25.810  0.00  0.00    +0.037 C 
ATOM      9  C   UNL     1      34.376 -14.552 -21.638  0.00  0.00    +0.002 C 
ATOM     10  C   UNL     1      34.613 -17.279 -22.345  0.00  0.00    +0.017 C 
ATOM     11  C   UNL     1      33.183 -13.526 -26.807  0.00  0.00    +0.005 C 
ATOM     12  C   UNL     1      34.706 -15.515 -20.678  0.00  0.00    +0.000 C 
ATOM     13  C   UNL     1      34.822 -16.859 -21.029  0.00  0.00    +0.001 C 
ATOM     14  H   UNL     1      34.046 -17.279 -25.134  0.00  0.00    +0.166 HD
ENDROOT
BRANCH   6  15
ATOM     15  O   UNL     1      33.622 -11.921 -23.540  0.00  0.00    -0.473 OA
BRANCH  15  16
ATOM     16  C   UNL     1      33.841 -10.594 -24.004  0.00  0.00    +0.232 C 
BRANCH  16  17
ATOM     17  C   UNL     1      33.043  -9.629 -23.130  0.00  0.00    +0.133 C 
BRANCH  17  18
ATOM     18  O   UNL     1      32.616  -8.526 -23.936  0.00  0.00    -0.383 OA
ATOM     19  H   UNL     1      32.116  -7.900 -23.389  0.00  0.00    +0.210 HD
ENDBRANCH  17  18
BRANCH  17  20
ATOM     20  C   UNL     1      31.802 -10.268 -22.502  0.00  0.00    -0.048 C 
BRANCH  20  21
ATOM     21  N   UNL     1      31.629  -9.873 -21.109  0.00  0.00    +0.387 N 
ATOM     22  H   UNL     1      30.990  -9.081 -21.064  0.00  0.00    -0.084 HD
ATOM     23  H   UNL     1      32.540  -9.621 -20.728  0.00  0.00    -0.084 HD
BRANCH  21  24
ATOM     24  C   UNL     1      31.084 -10.971 -20.322  0.00  0.00    -0.062 C 
ATOM     25  C   UNL     1      31.378 -10.754 -18.839  0.00  0.00    -0.023 C 
ATOM     26  C   UNL     1      31.674 -12.289 -20.810  0.00  0.00    -0.023 C 
ENDBRANCH  21  24
ENDBRANCH  20  21
ENDBRANCH  17  20
ENDBRANCH  16  17
ENDBRANCH  15  16
ENDBRANCH   6  15
TORSDOF 7
ENDMDL
