MODEL 1
REMARK VINA RESULT:      -7.5      0.000      0.000
REMARK  Name = 21501
REMARK  1 active torsions:
REMARK  status: ('A' for Active; 'I' for Inactive)
REMARK    1  A    between atoms: C_6  and  N_13
REMARK                            x       y       z     vdW  Elec       q    Type
REMARK                         _______ _______ _______ _____ _____    ______ ____
ROOT
ATOM      1  N   UNL     1      34.354 -17.980 -21.878  0.00  0.00    -0.236 N 
ATOM      2  N   UNL     1      35.650 -17.701 -22.095  0.00  0.00    -0.180 NA
ATOM      3  C   UNL     1      35.408 -19.608 -20.853  0.00  0.00    +0.037 C 
ATOM      4  C   UNL     1      34.140 -19.112 -21.139  0.00  0.00    +0.067 C 
ATOM      5  C   UNL     1      35.531 -20.784 -20.094  0.00  0.00    +0.027 C 
ATOM      6  C   UNL     1      34.364 -21.420 -19.650  0.00  0.00    +0.143 C 
ATOM      7  C   UNL     1      32.964 -19.730 -20.706  0.00  0.00    +0.018 C 
ATOM      8  C   UNL     1      33.104 -20.899 -19.952  0.00  0.00    +0.025 C 
ATOM      9  C   UNL     1      36.288 -18.694 -21.469  0.00  0.00    +0.119 C 
ATOM     10  H   UNL     1      33.622 -17.419 -22.221  0.00  0.00    +0.174 HD
ENDROOT
BRANCH   6  13
ATOM     11  O   UNL     1      35.120 -22.587 -17.811  0.00  0.00    -0.126 OA
ATOM     12  O   UNL     1      33.903 -23.651 -19.296  0.00  0.00    -0.126 OA
ATOM     13  N   UNL     1      34.467 -22.611 -18.882  0.00  0.00    +0.058 N 
ENDBRANCH   6  13
TORSDOF 1
ENDMDL
MODEL 2
REMARK VINA RESULT:      -7.4      1.037      1.987
REMARK  Name = 21501
REMARK  1 active torsions:
REMARK  status: ('A' for Active; 'I' for Inactive)
REMARK    1  A    between atoms: C_6  and  N_13
REMARK                            x       y       z     vdW  Elec       q    Type
REMARK                         _______ _______ _______ _____ _____    ______ ____
ROOT
ATOM      1  N   UNL     1      36.329 -18.660 -21.315  0.00  0.00    -0.236 N 
ATOM      2  N   UNL     1      35.383 -17.880 -21.866  0.00  0.00    -0.180 NA
ATOM      3  C   UNL     1      34.456 -19.658 -20.763  0.00  0.00    +0.037 C 
ATOM      4  C   UNL     1      35.839 -19.744 -20.639  0.00  0.00    +0.067 C 
ATOM      5  C   UNL     1      33.650 -20.642 -20.166  0.00  0.00    +0.027 C 
ATOM      6  C   UNL     1      34.272 -21.682 -19.463  0.00  0.00    +0.143 C 
ATOM      7  C   UNL     1      36.479 -20.772 -19.943  0.00  0.00    +0.018 C 
ATOM      8  C   UNL     1      35.663 -21.743 -19.355  0.00  0.00    +0.025 C 
ATOM      9  C   UNL     1      34.245 -18.491 -21.527  0.00  0.00    +0.119 C 
ATOM     10  H   UNL     1      37.291 -18.468 -21.392  0.00  0.00    +0.174 HD
ENDROOT
BRANCH   6  13
ATOM     11  O   UNL     1      32.442 -22.346 -18.229  0.00  0.00    -0.126 OA
ATOM     12  O   UNL     1      33.825 -23.887 -18.957  0.00  0.00    -0.126 OA
ATOM     13  N   UNL     1      33.474 -22.687 -18.853  0.00  0.00    +0.058 N 
ENDBRANCH   6  13
TORSDOF 1
ENDMDL
MODEL 3
REMARK VINA RESULT:      -7.3      7.282      8.252
REMARK  Name = 21501
REMARK  1 active torsions:
REMARK  status: ('A' for Active; 'I' for Inactive)
REMARK    1  A    between atoms: C_6  and  N_13
REMARK                            x       y       z     vdW  Elec       q    Type
REMARK                         _______ _______ _______ _____ _____    ______ ____
ROOT
ATOM      1  N   UNL     1      32.326 -25.073 -13.842  0.00  0.00    -0.236 N 
ATOM      2  N   UNL     1      33.343 -24.211 -14.013  0.00  0.00    -0.180 NA
ATOM      3  C   UNL     1      31.506 -23.580 -15.224  0.00  0.00    +0.037 C 
ATOM      4  C   UNL     1      31.195 -24.751 -14.542  0.00  0.00    +0.067 C 
ATOM      5  C   UNL     1      30.535 -22.984 -16.047  0.00  0.00    +0.027 C 
ATOM      6  C   UNL     1      29.279 -23.595 -16.151  0.00  0.00    +0.143 C 
ATOM      7  C   UNL     1      29.948 -25.376 -14.631  0.00  0.00    +0.018 C 
ATOM      8  C   UNL     1      28.993 -24.771 -15.453  0.00  0.00    +0.025 C 
ATOM      9  C   UNL     1      32.840 -23.305 -14.855  0.00  0.00    +0.119 C 
ATOM     10  H   UNL     1      32.389 -25.867 -13.264  0.00  0.00    +0.174 HD
ENDROOT
BRANCH   6  13
ATOM     11  O   UNL     1      27.601 -23.750 -17.724  0.00  0.00    -0.126 OA
ATOM     12  O   UNL     1      28.116 -21.766 -16.937  0.00  0.00    -0.126 OA
ATOM     13  N   UNL     1      28.284 -23.008 -16.977  0.00  0.00    +0.058 N 
ENDBRANCH   6  13
TORSDOF 1
ENDMDL
MODEL 4
REMARK VINA RESULT:      -7.2      2.824      4.418
REMARK  Name = 21501
REMARK  1 active torsions:
REMARK  status: ('A' for Active; 'I' for Inactive)
REMARK    1  A    between atoms: C_6  and  N_13
REMARK                            x       y       z     vdW  Elec       q    Type
REMARK                         _______ _______ _______ _____ _____    ______ ____
ROOT
ATOM      1  N   UNL     1      33.084 -22.205 -19.137  0.00  0.00    -0.236 N 
ATOM      2  N   UNL     1      34.100 -22.939 -18.655  0.00  0.00    -0.180 NA
ATOM      3  C   UNL     1      34.865 -21.108 -19.794  0.00  0.00    +0.037 C 
ATOM      4  C   UNL     1      33.475 -21.092 -19.830  0.00  0.00    +0.067 C 
ATOM      5  C   UNL     1      35.581 -20.079 -20.428  0.00  0.00    +0.027 C 
ATOM      6  C   UNL     1      34.864 -19.066 -21.079  0.00  0.00    +0.143 C 
ATOM      7  C   UNL     1      32.741 -20.092 -20.473  0.00  0.00    +0.018 C 
ATOM      8  C   UNL     1      33.468 -19.075 -21.099  0.00  0.00    +0.025 C 
ATOM      9  C   UNL     1      35.182 -22.268 -19.058  0.00  0.00    +0.119 C 
ATOM     10  H   UNL     1      32.139 -22.446 -19.002  0.00  0.00    +0.174 HD
ENDROOT
BRANCH   6  13
ATOM     11  O   UNL     1      35.270 -16.829 -21.458  0.00  0.00    -0.126 OA
ATOM     12  O   UNL     1      36.472 -18.308 -22.547  0.00  0.00    -0.126 OA
ATOM     13  N   UNL     1      35.570 -18.017 -21.726  0.00  0.00    +0.058 N 
ENDBRANCH   6  13
TORSDOF 1
ENDMDL
MODEL 5
REMARK VINA RESULT:      -7.0      5.444      6.594
REMARK  Name = 21501
REMARK  1 active torsions:
REMARK  status: ('A' for Active; 'I' for Inactive)
REMARK    1  A    between atoms: C_6  and  N_13
REMARK                            x       y       z     vdW  Elec       q    Type
REMARK                         _______ _______ _______ _____ _____    ______ ____
ROOT
ATOM      1  N   UNL     1      35.598 -18.971 -21.970  0.00  0.00    -0.236 N 
ATOM      2  N   UNL     1      35.625 -18.344 -20.782  0.00  0.00    -0.180 NA
ATOM      3  C   UNL     1      34.785 -16.985 -22.421  0.00  0.00    +0.037 C 
ATOM      4  C   UNL     1      35.105 -18.210 -22.995  0.00  0.00    +0.067 C 
ATOM      5  C   UNL     1      34.246 -15.967 -23.226  0.00  0.00    +0.027 C 
ATOM      6  C   UNL     1      34.049 -16.226 -24.589  0.00  0.00    +0.143 C 
ATOM      7  C   UNL     1      34.917 -18.489 -24.351  0.00  0.00    +0.018 C 
ATOM      8  C   UNL     1      34.380 -17.466 -25.139  0.00  0.00    +0.025 C 
ATOM      9  C   UNL     1      35.130 -17.136 -21.061  0.00  0.00    +0.119 C 
ATOM     10  H   UNL     1      35.907 -19.898 -22.092  0.00  0.00    +0.174 HD
ENDROOT
BRANCH   6  13
ATOM     11  O   UNL     1      33.518 -15.373 -26.664  0.00  0.00    -0.126 OA
ATOM     12  O   UNL     1      33.028 -14.180 -24.888  0.00  0.00    -0.126 OA
ATOM     13  N   UNL     1      33.505 -15.210 -25.421  0.00  0.00    +0.058 N 
ENDBRANCH   6  13
TORSDOF 1
ENDMDL
MODEL 6
REMARK VINA RESULT:      -7.0      3.005      3.660
REMARK  Name = 21501
REMARK  1 active torsions:
REMARK  status: ('A' for Active; 'I' for Inactive)
REMARK    1  A    between atoms: C_6  and  N_13
REMARK                            x       y       z     vdW  Elec       q    Type
REMARK                         _______ _______ _______ _____ _____    ______ ____
ROOT
ATOM      1  N   UNL     1      34.521 -16.004 -24.545  0.00  0.00    -0.236 N 
ATOM      2  N   UNL     1      34.411 -16.733 -25.668  0.00  0.00    -0.180 NA
ATOM      3  C   UNL     1      34.757 -18.068 -23.841  0.00  0.00    +0.037 C 
ATOM      4  C   UNL     1      34.729 -16.744 -23.413  0.00  0.00    +0.067 C 
ATOM      5  C   UNL     1      34.957 -19.091 -22.900  0.00  0.00    +0.027 C 
ATOM      6  C   UNL     1      35.123 -18.740 -21.554  0.00  0.00    +0.143 C 
ATOM      7  C   UNL     1      34.892 -16.373 -22.077  0.00  0.00    +0.018 C 
ATOM      8  C   UNL     1      35.091 -17.402 -21.152  0.00  0.00    +0.025 C 
ATOM      9  C   UNL     1      34.556 -17.988 -25.235  0.00  0.00    +0.119 C 
ATOM     10  H   UNL     1      34.456 -15.022 -24.537  0.00  0.00    +0.174 HD
ENDROOT
BRANCH   6  13
ATOM     11  O   UNL     1      36.456 -19.871 -20.051  0.00  0.00    -0.126 OA
ATOM     12  O   UNL     1      34.373 -20.519 -20.294  0.00  0.00    -0.126 OA
ATOM     13  N   UNL     1      35.327 -19.760 -20.586  0.00  0.00    +0.058 N 
ENDBRANCH   6  13
TORSDOF 1
ENDMDL
MODEL 7
REMARK VINA RESULT:      -6.9      4.787      5.815
REMARK  Name = 21501
REMARK  1 active torsions:
REMARK  status: ('A' for Active; 'I' for Inactive)
REMARK    1  A    between atoms: C_6  and  N_13
REMARK                            x       y       z     vdW  Elec       q    Type
REMARK                         _______ _______ _______ _____ _____    ______ ____
ROOT
ATOM      1  N   UNL     1      33.450 -15.355 -26.064  0.00  0.00    -0.236 N 
ATOM      2  N   UNL     1      32.903 -14.143 -25.875  0.00  0.00    -0.180 NA
ATOM      3  C   UNL     1      33.691 -15.014 -23.911  0.00  0.00    +0.037 C 
ATOM      4  C   UNL     1      33.942 -15.933 -24.925  0.00  0.00    +0.067 C 
ATOM      5  C   UNL     1      34.083 -15.317 -22.596  0.00  0.00    +0.027 C 
ATOM      6  C   UNL     1      34.718 -16.541 -22.352  0.00  0.00    +0.143 C 
ATOM      7  C   UNL     1      34.573 -17.159 -24.703  0.00  0.00    +0.018 C 
ATOM      8  C   UNL     1      34.958 -17.445 -23.389  0.00  0.00    +0.025 C 
ATOM      9  C   UNL     1      33.051 -13.939 -24.564  0.00  0.00    +0.119 C 
ATOM     10  H   UNL     1      33.494 -15.791 -26.946  0.00  0.00    +0.174 HD
ENDROOT
BRANCH   6  13
ATOM     11  O   UNL     1      35.007 -15.999 -20.130  0.00  0.00    -0.126 OA
ATOM     12  O   UNL     1      35.583 -18.009 -20.798  0.00  0.00    -0.126 OA
ATOM     13  N   UNL     1      35.122 -16.866 -21.029  0.00  0.00    +0.058 N 
ENDBRANCH   6  13
TORSDOF 1
ENDMDL
MODEL 8
REMARK VINA RESULT:      -6.9      8.864      9.581
REMARK  Name = 21501
REMARK  1 active torsions:
REMARK  status: ('A' for Active; 'I' for Inactive)
REMARK    1  A    between atoms: C_6  and  N_13
REMARK                            x       y       z     vdW  Elec       q    Type
REMARK                         _______ _______ _______ _____ _____    ______ ____
ROOT
ATOM      1  N   UNL     1      34.936 -24.759 -12.861  0.00  0.00    -0.236 N 
ATOM      2  N   UNL     1      35.019 -24.180 -11.652  0.00  0.00    -0.180 NA
ATOM      3  C   UNL     1      37.094 -24.660 -12.489  0.00  0.00    +0.037 C 
ATOM      4  C   UNL     1      36.145 -25.072 -13.419  0.00  0.00    +0.067 C 
ATOM      5  C   UNL     1      38.459 -24.846 -12.771  0.00  0.00    +0.027 C 
ATOM      6  C   UNL     1      38.816 -25.444 -13.986  0.00  0.00    +0.143 C 
ATOM      7  C   UNL     1      36.481 -25.670 -14.636  0.00  0.00    +0.018 C 
ATOM      8  C   UNL     1      37.842 -25.848 -14.901  0.00  0.00    +0.025 C 
ATOM      9  C   UNL     1      36.335 -24.122 -11.429  0.00  0.00    +0.119 C 
ATOM     10  H   UNL     1      34.078 -24.942 -13.308  0.00  0.00    +0.174 HD
ENDROOT
BRANCH   6  13
ATOM     11  O   UNL     1      40.960 -24.650 -14.287  0.00  0.00    -0.126 OA
ATOM     12  O   UNL     1      40.595 -26.799 -14.550  0.00  0.00    -0.126 OA
ATOM     13  N   UNL     1      40.190 -25.641 -14.289  0.00  0.00    +0.058 N 
ENDBRANCH   6  13
TORSDOF 1
ENDMDL
MODEL 9
REMARK VINA RESULT:      -6.8      5.372      6.580
REMARK  Name = 21501
REMARK  1 active torsions:
REMARK  status: ('A' for Active; 'I' for Inactive)
REMARK    1  A    between atoms: C_6  and  N_13
REMARK                            x       y       z     vdW  Elec       q    Type
REMARK                         _______ _______ _______ _____ _____    ______ ____
ROOT
ATOM      1  N   UNL     1      35.307 -17.423 -20.634  0.00  0.00    -0.236 N 
ATOM      2  N   UNL     1      36.105 -18.418 -21.057  0.00  0.00    -0.180 NA
ATOM      3  C   UNL     1      35.207 -17.264 -22.818  0.00  0.00    +0.037 C 
ATOM      4  C   UNL     1      34.738 -16.693 -21.640  0.00  0.00    +0.067 C 
ATOM      5  C   UNL     1      34.798 -16.732 -24.053  0.00  0.00    +0.027 C 
ATOM      6  C   UNL     1      33.925 -15.636 -24.052  0.00  0.00    +0.143 C 
ATOM      7  C   UNL     1      33.867 -15.600 -21.618  0.00  0.00    +0.018 C 
ATOM      8  C   UNL     1      33.469 -15.082 -22.854  0.00  0.00    +0.025 C 
ATOM      9  C   UNL     1      36.041 -18.318 -22.387  0.00  0.00    +0.119 C 
ATOM     10  H   UNL     1      35.147 -17.236 -19.680  0.00  0.00    +0.174 HD
ENDROOT
BRANCH   6  13
ATOM     11  O   UNL     1      33.694 -15.734 -26.344  0.00  0.00    -0.126 OA
ATOM     12  O   UNL     1      32.940 -13.960 -25.293  0.00  0.00    -0.126 OA
ATOM     13  N   UNL     1      33.499 -15.083 -25.290  0.00  0.00    +0.058 N 
ENDBRANCH   6  13
TORSDOF 1
ENDMDL
