MODEL 1
REMARK VINA RESULT:     -11.4      0.000      0.000
REMARK  Name = 135565554
REMARK  0 active torsions:
REMARK  status: ('A' for Active; 'I' for Inactive)
REMARK                            x       y       z     vdW  Elec       q    Type
REMARK                         _______ _______ _______ _____ _____    ______ ____
ROOT
ATOM      1  F   UNL     1      29.531 -24.296 -14.792  0.00  0.00    -0.204 F 
ATOM      2  O   UNL     1      32.519 -22.585 -18.357  0.00  0.00    -0.268 OA
ATOM      3  N   UNL     1      37.657 -24.227 -14.247  0.00  0.00    +0.397 N 
ATOM      4  N   UNL     1      34.096 -24.537 -13.114  0.00  0.00    -0.358 N 
ATOM      5  N   UNL     1      35.832 -22.722 -17.000  0.00  0.00    -0.185 NA
ATOM      6  N   UNL     1      34.677 -22.606 -17.693  0.00  0.00    -0.203 N 
ATOM      7  C   UNL     1      36.655 -24.321 -13.150  0.00  0.00    -0.007 C 
ATOM      8  C   UNL     1      36.948 -25.720 -12.602  0.00  0.00    -0.016 C 
ATOM      9  C   UNL     1      35.273 -24.186 -13.715  0.00  0.00    +0.017 A 
ATOM     10  C   UNL     1      37.794 -25.554 -14.862  0.00  0.00    -0.076 C 
ATOM     11  C   UNL     1      37.288 -26.552 -13.830  0.00  0.00    -0.024 C 
ATOM     12  C   UNL     1      37.428 -23.155 -15.230  0.00  0.00    -0.028 C 
ATOM     13  C   UNL     1      34.976 -23.665 -14.952  0.00  0.00    +0.024 A 
ATOM     14  C   UNL     1      36.903 -23.250 -12.083  0.00  0.00    -0.015 C 
ATOM     15  C   UNL     1      36.009 -23.182 -15.808  0.00  0.00    +0.056 C 
ATOM     16  C   UNL     1      33.597 -23.737 -15.143  0.00  0.00    +0.022 A 
ATOM     17  C   UNL     1      33.050 -24.279 -13.977  0.00  0.00    +0.059 A 
ATOM     18  C   UNL     1      32.777 -23.386 -16.210  0.00  0.00    +0.059 C 
ATOM     19  C   UNL     1      31.676 -24.482 -13.820  0.00  0.00    +0.047 C 
ATOM     20  C   UNL     1      33.332 -22.840 -17.461  0.00  0.00    +0.265 C 
ATOM     21  C   UNL     1      31.391 -23.585 -16.065  0.00  0.00    +0.034 C 
ATOM     22  C   UNL     1      30.855 -24.120 -14.891  0.00  0.00    +0.142 C 
ATOM     23  H   UNL     1      38.541 -23.942 -13.825  0.00  0.00    -0.078 HD
ATOM     24  H   UNL     1      34.009 -24.915 -12.209  0.00  0.00    +0.166 HD
ATOM     25  H   UNL     1      34.833 -22.264 -18.603  0.00  0.00    +0.178 HD
ENDROOT
TORSDOF 0
ENDMDL
MODEL 2
REMARK VINA RESULT:      -9.6      3.011      5.925
REMARK  Name = 135565554
REMARK  0 active torsions:
REMARK  status: ('A' for Active; 'I' for Inactive)
REMARK                            x       y       z     vdW  Elec       q    Type
REMARK                         _______ _______ _______ _____ _____    ______ ____
ROOT
ATOM      1  F   UNL     1      35.926 -22.088 -19.165  0.00  0.00    -0.204 F 
ATOM      2  O   UNL     1      36.555 -23.364 -14.417  0.00  0.00    -0.268 OA
ATOM      3  N   UNL     1      29.832 -24.230 -14.203  0.00  0.00    +0.397 N 
ATOM      4  N   UNL     1      31.510 -22.841 -17.256  0.00  0.00    -0.358 N 
ATOM      5  N   UNL     1      33.260 -23.810 -13.084  0.00  0.00    -0.185 NA
ATOM      6  N   UNL     1      34.572 -23.708 -13.395  0.00  0.00    -0.203 N 
ATOM      7  C   UNL     1      29.765 -23.460 -15.475  0.00  0.00    -0.007 C 
ATOM      8  C   UNL     1      28.959 -24.417 -16.357  0.00  0.00    -0.016 C 
ATOM      9  C   UNL     1      31.151 -23.210 -15.989  0.00  0.00    +0.017 A 
ATOM     10  C   UNL     1      29.953 -25.656 -14.532  0.00  0.00    -0.076 C 
ATOM     11  C   UNL     1      29.438 -25.805 -15.957  0.00  0.00    -0.024 C 
ATOM     12  C   UNL     1      30.843 -23.772 -13.234  0.00  0.00    -0.028 C 
ATOM     13  C   UNL     1      32.298 -23.307 -15.237  0.00  0.00    +0.024 A 
ATOM     14  C   UNL     1      29.020 -22.135 -15.280  0.00  0.00    -0.015 C 
ATOM     15  C   UNL     1      32.238 -23.649 -13.854  0.00  0.00    +0.056 C 
ATOM     16  C   UNL     1      33.390 -23.041 -16.061  0.00  0.00    +0.022 A 
ATOM     17  C   UNL     1      32.884 -22.740 -17.328  0.00  0.00    +0.059 A 
ATOM     18  C   UNL     1      34.761 -23.034 -15.830  0.00  0.00    +0.059 C 
ATOM     19  C   UNL     1      33.712 -22.411 -18.405  0.00  0.00    +0.047 C 
ATOM     20  C   UNL     1      35.322 -23.376 -14.511  0.00  0.00    +0.265 C 
ATOM     21  C   UNL     1      35.607 -22.704 -16.906  0.00  0.00    +0.034 C 
ATOM     22  C   UNL     1      35.088 -22.396 -18.166  0.00  0.00    +0.142 C 
ATOM     23  H   UNL     1      28.962 -24.057 -13.699  0.00  0.00    -0.078 HD
ATOM     24  H   UNL     1      30.886 -22.676 -17.999  0.00  0.00    +0.166 HD
ATOM     25  H   UNL     1      35.145 -23.927 -12.625  0.00  0.00    +0.178 HD
ENDROOT
TORSDOF 0
ENDMDL
MODEL 3
REMARK VINA RESULT:      -9.3     14.665     17.115
REMARK  Name = 135565554
REMARK  0 active torsions:
REMARK  status: ('A' for Active; 'I' for Inactive)
REMARK                            x       y       z     vdW  Elec       q    Type
REMARK                         _______ _______ _______ _____ _____    ______ ____
ROOT
ATOM      1  F   UNL     1      31.950 -14.324 -21.995  0.00  0.00    -0.204 F 
ATOM      2  O   UNL     1      31.281 -11.214 -18.194  0.00  0.00    -0.268 OA
ATOM      3  N   UNL     1      32.380  -6.217 -22.645  0.00  0.00    +0.397 N 
ATOM      4  N   UNL     1      32.764  -9.813 -23.636  0.00  0.00    -0.358 N 
ATOM      5  N   UNL     1      31.984  -7.944 -19.476  0.00  0.00    -0.185 NA
ATOM      6  N   UNL     1      31.666  -9.077 -18.811  0.00  0.00    -0.203 N 
ATOM      7  C   UNL     1      32.936  -7.251 -23.559  0.00  0.00    -0.007 C 
ATOM      8  C   UNL     1      32.122  -6.991 -24.829  0.00  0.00    -0.016 C 
ATOM      9  C   UNL     1      32.707  -8.615 -22.980  0.00  0.00    +0.017 A 
ATOM     10  C   UNL     1      30.944  -6.078 -22.923  0.00  0.00    -0.076 C 
ATOM     11  C   UNL     1      30.733  -6.626 -24.328  0.00  0.00    -0.024 C 
ATOM     12  C   UNL     1      32.676  -6.405 -21.214  0.00  0.00    -0.028 C 
ATOM     13  C   UNL     1      32.406  -8.870 -21.663  0.00  0.00    +0.024 A 
ATOM     14  C   UNL     1      34.431  -7.021 -23.809  0.00  0.00    -0.015 C 
ATOM     15  C   UNL     1      32.307  -7.806 -20.718  0.00  0.00    +0.056 C 
ATOM     16  C   UNL     1      32.227 -10.243 -21.508  0.00  0.00    +0.022 A 
ATOM     17  C   UNL     1      32.463 -10.830 -22.754  0.00  0.00    +0.059 A 
ATOM     18  C   UNL     1      31.884 -11.028 -20.412  0.00  0.00    +0.059 C 
ATOM     19  C   UNL     1      32.381 -12.210 -22.957  0.00  0.00    +0.047 C 
ATOM     20  C   UNL     1      31.602 -10.431 -19.096  0.00  0.00    +0.265 C 
ATOM     21  C   UNL     1      31.797 -12.419 -20.604  0.00  0.00    +0.034 C 
ATOM     22  C   UNL     1      32.044 -12.995 -21.852  0.00  0.00    +0.142 C 
ATOM     23  H   UNL     1      32.864  -5.342 -22.848  0.00  0.00    -0.078 HD
ATOM     24  H   UNL     1      32.985  -9.930 -24.589  0.00  0.00    +0.166 HD
ATOM     25  H   UNL     1      31.414  -8.891 -17.878  0.00  0.00    +0.178 HD
ENDROOT
TORSDOF 0
ENDMDL
MODEL 4
REMARK VINA RESULT:      -8.4      9.065     11.339
REMARK  Name = 135565554
REMARK  0 active torsions:
REMARK  status: ('A' for Active; 'I' for Inactive)
REMARK                            x       y       z     vdW  Elec       q    Type
REMARK                         _______ _______ _______ _____ _____    ______ ____
ROOT
ATOM      1  F   UNL     1      32.021 -11.875 -21.422  0.00  0.00    -0.204 F 
ATOM      2  O   UNL     1      32.723 -13.764 -25.950  0.00  0.00    -0.268 OA
ATOM      3  N   UNL     1      35.067 -19.300 -22.811  0.00  0.00    +0.397 N 
ATOM      4  N   UNL     1      34.156 -16.218 -20.879  0.00  0.00    -0.358 N 
ATOM      5  N   UNL     1      34.370 -16.906 -25.450  0.00  0.00    -0.185 NA
ATOM      6  N   UNL     1      33.747 -15.774 -25.846  0.00  0.00    -0.203 N 
ATOM      7  C   UNL     1      35.175 -18.469 -21.581  0.00  0.00    -0.007 C 
ATOM      8  C   UNL     1      34.397 -19.324 -20.578  0.00  0.00    -0.016 C 
ATOM      9  C   UNL     1      34.552 -17.127 -21.821  0.00  0.00    +0.017 A 
ATOM     10  C   UNL     1      33.742 -19.934 -22.826  0.00  0.00    -0.076 C 
ATOM     11  C   UNL     1      33.251 -19.917 -21.385  0.00  0.00    -0.024 C 
ATOM     12  C   UNL     1      35.395 -18.616 -24.074  0.00  0.00    -0.028 C 
ATOM     13  C   UNL     1      34.288 -16.592 -23.060  0.00  0.00    +0.024 A 
ATOM     14  C   UNL     1      36.637 -18.310 -21.148  0.00  0.00    -0.015 C 
ATOM     15  C   UNL     1      34.622 -17.305 -24.249  0.00  0.00    +0.056 C 
ATOM     16  C   UNL     1      33.675 -15.353 -22.885  0.00  0.00    +0.022 A 
ATOM     17  C   UNL     1      33.605 -15.121 -21.509  0.00  0.00    +0.059 A 
ATOM     18  C   UNL     1      33.178 -14.416 -23.784  0.00  0.00    +0.059 C 
ATOM     19  C   UNL     1      33.053 -13.953 -20.975  0.00  0.00    +0.047 C 
ATOM     20  C   UNL     1      33.214 -14.649 -25.239  0.00  0.00    +0.265 C 
ATOM     21  C   UNL     1      32.619 -13.235 -23.260  0.00  0.00    +0.034 C 
ATOM     22  C   UNL     1      32.562 -13.011 -21.882  0.00  0.00    +0.142 C 
ATOM     23  H   UNL     1      35.797 -20.011 -22.760  0.00  0.00    -0.078 HD
ATOM     24  H   UNL     1      34.250 -16.330 -19.905  0.00  0.00    +0.166 HD
ATOM     25  H   UNL     1      33.645 -15.740 -26.825  0.00  0.00    +0.178 HD
ENDROOT
TORSDOF 0
ENDMDL
MODEL 5
REMARK VINA RESULT:      -8.4      2.522      4.069
REMARK  Name = 135565554
REMARK  0 active torsions:
REMARK  status: ('A' for Active; 'I' for Inactive)
REMARK                            x       y       z     vdW  Elec       q    Type
REMARK                         _______ _______ _______ _____ _____    ______ ____
ROOT
ATOM      1  F   UNL     1      36.416 -20.941 -19.578  0.00  0.00    -0.204 F 
ATOM      2  O   UNL     1      32.270 -22.714 -17.522  0.00  0.00    -0.268 OA
ATOM      3  N   UNL     1      36.189 -24.691 -12.352  0.00  0.00    +0.397 N 
ATOM      4  N   UNL     1      37.679 -23.190 -15.448  0.00  0.00    -0.358 N 
ATOM      5  N   UNL     1      33.310 -24.418 -14.547  0.00  0.00    -0.185 NA
ATOM      6  N   UNL     1      32.718 -23.821 -15.606  0.00  0.00    -0.203 N 
ATOM      7  C   UNL     1      37.357 -24.480 -13.250  0.00  0.00    -0.007 C 
ATOM      8  C   UNL     1      38.229 -23.563 -12.389  0.00  0.00    -0.016 C 
ATOM      9  C   UNL     1      36.903 -23.836 -14.526  0.00  0.00    +0.017 A 
ATOM     10  C   UNL     1      35.939 -23.444 -11.617  0.00  0.00    -0.076 C 
ATOM     11  C   UNL     1      37.242 -22.657 -11.668  0.00  0.00    -0.024 C 
ATOM     12  C   UNL     1      34.980 -25.236 -12.994  0.00  0.00    -0.028 C 
ATOM     13  C   UNL     1      35.604 -23.808 -14.975  0.00  0.00    +0.024 A 
ATOM     14  C   UNL     1      38.074 -25.802 -13.544  0.00  0.00    -0.015 C 
ATOM     15  C   UNL     1      34.561 -24.434 -14.231  0.00  0.00    +0.056 C 
ATOM     16  C   UNL     1      35.564 -23.092 -16.170  0.00  0.00    +0.022 A 
ATOM     17  C   UNL     1      36.877 -22.715 -16.465  0.00  0.00    +0.059 A 
ATOM     18  C   UNL     1      34.521 -22.738 -17.019  0.00  0.00    +0.059 C 
ATOM     19  C   UNL     1      37.205 -21.986 -17.612  0.00  0.00    +0.047 C 
ATOM     20  C   UNL     1      33.125 -23.099 -16.715  0.00  0.00    +0.265 C 
ATOM     21  C   UNL     1      34.838 -22.005 -18.177  0.00  0.00    +0.034 C 
ATOM     22  C   UNL     1      36.155 -21.640 -18.466  0.00  0.00    +0.142 C 
ATOM     23  H   UNL     1      36.438 -25.438 -11.704  0.00  0.00    -0.078 HD
ATOM     24  H   UNL     1      38.656 -23.080 -15.394  0.00  0.00    +0.166 HD
ATOM     25  H   UNL     1      31.740 -23.928 -15.582  0.00  0.00    +0.178 HD
ENDROOT
TORSDOF 0
ENDMDL
