MODEL 1
REMARK VINA RESULT:      -4.0      0.000      0.000
REMARK  Name = 447765
REMARK  2 active torsions:
REMARK  status: ('A' for Active; 'I' for Inactive)
REMARK    1  A    between atoms: C_1  and  C_4
REMARK    2  A    between atoms: C_1  and  O_6
REMARK                            x       y       z     vdW  Elec       q    Type
REMARK                         _______ _______ _______ _____ _____    ______ ____
ROOT
ATOM      1  C   UNL     1      41.020 -14.894 -16.045  0.00  0.00    +0.167 C 
ATOM      2  C   UNL     1      41.766 -13.582 -15.876  0.00  0.00    +0.040 C 
ENDROOT
BRANCH   1   4
ATOM      3  O   UNL     1      42.533 -16.729 -15.630  0.00  0.00    -0.294 OA
ATOM      4  C   UNL     1      41.959 -16.019 -16.457  0.00  0.00    +0.178 C 
ATOM      5  C   UNL     1      42.157 -16.242 -17.935  0.00  0.00    +0.075 C 
ENDBRANCH   1   4
BRANCH   1   6
ATOM      6  O   UNL     1      40.417 -15.222 -14.803  0.00  0.00    -0.377 OA
ATOM      7  H   UNL     1      39.502 -14.900 -14.794  0.00  0.00    +0.211 HD
ENDBRANCH   1   6
TORSDOF 2
ENDMDL
MODEL 2
REMARK VINA RESULT:      -4.0     14.544     15.078
REMARK  Name = 447765
REMARK  2 active torsions:
REMARK  status: ('A' for Active; 'I' for Inactive)
REMARK    1  A    between atoms: C_1  and  C_4
REMARK    2  A    between atoms: C_1  and  O_6
REMARK                            x       y       z     vdW  Elec       q    Type
REMARK                         _______ _______ _______ _____ _____    ______ ____
ROOT
ATOM      1  C   UNL     1      29.678 -23.254 -16.323  0.00  0.00    +0.167 C 
ATOM      2  C   UNL     1      29.914 -22.856 -14.878  0.00  0.00    +0.040 C 
ENDROOT
BRANCH   1   4
ATOM      3  O   UNL     1      27.731 -24.024 -17.524  0.00  0.00    -0.294 OA
ATOM      4  C   UNL     1      28.194 -23.279 -16.660  0.00  0.00    +0.178 C 
ATOM      5  C   UNL     1      27.297 -22.352 -15.879  0.00  0.00    +0.075 C 
ENDBRANCH   1   4
BRANCH   1   6
ATOM      6  O   UNL     1      30.328 -22.305 -17.154  0.00  0.00    -0.377 OA
ATOM      7  H   UNL     1      30.583 -21.533 -16.625  0.00  0.00    +0.211 HD
ENDBRANCH   1   6
TORSDOF 2
ENDMDL
MODEL 3
REMARK VINA RESULT:      -4.0      9.792     10.225
REMARK  Name = 447765
REMARK  2 active torsions:
REMARK  status: ('A' for Active; 'I' for Inactive)
REMARK    1  A    between atoms: C_1  and  C_4
REMARK    2  A    between atoms: C_1  and  O_6
REMARK                            x       y       z     vdW  Elec       q    Type
REMARK                         _______ _______ _______ _____ _____    ______ ____
ROOT
ATOM      1  C   UNL     1      33.596 -21.930 -19.577  0.00  0.00    +0.167 C 
ATOM      2  C   UNL     1      33.224 -20.549 -20.085  0.00  0.00    +0.040 C 
ENDROOT
BRANCH   1   4
ATOM      3  O   UNL     1      35.284 -22.545 -17.964  0.00  0.00    -0.294 OA
ATOM      4  C   UNL     1      35.008 -21.953 -19.008  0.00  0.00    +0.178 C 
ATOM      5  C   UNL     1      36.074 -21.221 -19.784  0.00  0.00    +0.075 C 
ENDBRANCH   1   4
BRANCH   1   6
ATOM      6  O   UNL     1      32.677 -22.288 -18.556  0.00  0.00    -0.377 OA
ATOM      7  H   UNL     1      32.649 -21.587 -17.886  0.00  0.00    +0.211 HD
ENDBRANCH   1   6
TORSDOF 2
ENDMDL
MODEL 4
REMARK VINA RESULT:      -4.0      8.657      9.336
REMARK  Name = 447765
REMARK  2 active torsions:
REMARK  status: ('A' for Active; 'I' for Inactive)
REMARK    1  A    between atoms: C_1  and  C_4
REMARK    2  A    between atoms: C_1  and  O_6
REMARK                            x       y       z     vdW  Elec       q    Type
REMARK                         _______ _______ _______ _____ _____    ______ ____
ROOT
ATOM      1  C   UNL     1      34.888 -17.092 -22.869  0.00  0.00    +0.167 C 
ATOM      2  C   UNL     1      35.386 -18.443 -23.348  0.00  0.00    +0.040 C 
ENDROOT
BRANCH   1   4
ATOM      3  O   UNL     1      35.509 -17.841 -20.659  0.00  0.00    -0.294 OA
ATOM      4  C   UNL     1      35.029 -16.949 -21.360  0.00  0.00    +0.178 C 
ATOM      5  C   UNL     1      34.563 -15.653 -20.746  0.00  0.00    +0.075 C 
ENDBRANCH   1   4
BRANCH   1   6
ATOM      6  O   UNL     1      35.659 -16.086 -23.506  0.00  0.00    -0.377 OA
ATOM      7  H   UNL     1      36.019 -15.482 -22.838  0.00  0.00    +0.211 HD
ENDBRANCH   1   6
TORSDOF 2
ENDMDL
MODEL 5
REMARK VINA RESULT:      -4.0      9.611     10.189
REMARK  Name = 447765
REMARK  2 active torsions:
REMARK  status: ('A' for Active; 'I' for Inactive)
REMARK    1  A    between atoms: C_1  and  C_4
REMARK    2  A    between atoms: C_1  and  O_6
REMARK                            x       y       z     vdW  Elec       q    Type
REMARK                         _______ _______ _______ _____ _____    ______ ____
ROOT
ATOM      1  C   UNL     1      35.110 -21.181 -20.005  0.00  0.00    +0.167 C 
ATOM      2  C   UNL     1      35.786 -21.744 -18.768  0.00  0.00    +0.040 C 
ENDROOT
BRANCH   1   4
ATOM      3  O   UNL     1      32.991 -22.062 -19.256  0.00  0.00    -0.294 OA
ATOM      4  C   UNL     1      33.595 -21.173 -19.858  0.00  0.00    +0.178 C 
ATOM      5  C   UNL     1      32.851 -20.018 -20.478  0.00  0.00    +0.075 C 
ENDBRANCH   1   4
BRANCH   1   6
ATOM      6  O   UNL     1      35.567 -19.850 -20.190  0.00  0.00    -0.377 OA
ATOM      7  H   UNL     1      36.310 -19.847 -20.814  0.00  0.00    +0.211 HD
ENDBRANCH   1   6
TORSDOF 2
ENDMDL
MODEL 6
REMARK VINA RESULT:      -3.9     10.942     11.366
REMARK  Name = 447765
REMARK  2 active torsions:
REMARK  status: ('A' for Active; 'I' for Inactive)
REMARK    1  A    between atoms: C_1  and  C_4
REMARK    2  A    between atoms: C_1  and  O_6
REMARK                            x       y       z     vdW  Elec       q    Type
REMARK                         _______ _______ _______ _____ _____    ______ ____
ROOT
ATOM      1  C   UNL     1      34.349 -15.827 -23.812  0.00  0.00    +0.167 C 
ATOM      2  C   UNL     1      34.131 -14.363 -23.475  0.00  0.00    +0.040 C 
ENDROOT
BRANCH   1   4
ATOM      3  O   UNL     1      34.676 -17.018 -25.886  0.00  0.00    -0.294 OA
ATOM      4  C   UNL     1      34.112 -16.100 -25.290  0.00  0.00    +0.178 C 
ATOM      5  C   UNL     1      33.139 -15.198 -26.008  0.00  0.00    +0.075 C 
ENDBRANCH   1   4
BRANCH   1   6
ATOM      6  O   UNL     1      35.690 -16.159 -23.487  0.00  0.00    -0.377 OA
ATOM      7  H   UNL     1      36.252 -16.038 -24.268  0.00  0.00    +0.211 HD
ENDBRANCH   1   6
TORSDOF 2
ENDMDL
MODEL 7
REMARK VINA RESULT:      -3.9      9.998     10.612
REMARK  Name = 447765
REMARK  2 active torsions:
REMARK  status: ('A' for Active; 'I' for Inactive)
REMARK    1  A    between atoms: C_1  and  C_4
REMARK    2  A    between atoms: C_1  and  O_6
REMARK                            x       y       z     vdW  Elec       q    Type
REMARK                         _______ _______ _______ _____ _____    ______ ____
ROOT
ATOM      1  C   UNL     1      38.160 -24.595 -14.659  0.00  0.00    +0.167 C 
ATOM      2  C   UNL     1      36.706 -24.816 -15.034  0.00  0.00    +0.040 C 
ENDROOT
BRANCH   1   4
ATOM      3  O   UNL     1      38.353 -27.002 -14.661  0.00  0.00    -0.294 OA
ATOM      4  C   UNL     1      38.920 -25.912 -14.572  0.00  0.00    +0.178 C 
ATOM      5  C   UNL     1      40.413 -25.832 -14.379  0.00  0.00    +0.075 C 
ENDBRANCH   1   4
BRANCH   1   6
ATOM      6  O   UNL     1      38.755 -23.781 -15.658  0.00  0.00    -0.377 OA
ATOM      7  H   UNL     1      39.718 -23.779 -15.543  0.00  0.00    +0.211 HD
ENDBRANCH   1   6
TORSDOF 2
ENDMDL
MODEL 8
REMARK VINA RESULT:      -3.9     10.332     10.757
REMARK  Name = 447765
REMARK  2 active torsions:
REMARK  status: ('A' for Active; 'I' for Inactive)
REMARK    1  A    between atoms: C_1  and  C_4
REMARK    2  A    between atoms: C_1  and  O_6
REMARK                            x       y       z     vdW  Elec       q    Type
REMARK                         _______ _______ _______ _____ _____    ______ ____
ROOT
ATOM      1  C   UNL     1      36.486 -24.393 -11.332  0.00  0.00    +0.167 C 
ATOM      2  C   UNL     1      35.316 -23.828 -12.117  0.00  0.00    +0.040 C 
ENDROOT
BRANCH   1   4
ATOM      3  O   UNL     1      38.319 -22.843 -11.590  0.00  0.00    -0.294 OA
ATOM      4  C   UNL     1      37.818 -23.924 -11.901  0.00  0.00    +0.178 C 
ATOM      5  C   UNL     1      38.516 -24.847 -12.867  0.00  0.00    +0.075 C 
ENDBRANCH   1   4
BRANCH   1   6
ATOM      6  O   UNL     1      36.372 -23.950  -9.989  0.00  0.00    -0.377 OA
ATOM      7  H   UNL     1      35.852 -24.592  -9.480  0.00  0.00    +0.211 HD
ENDBRANCH   1   6
TORSDOF 2
ENDMDL
MODEL 9
REMARK VINA RESULT:      -3.8      1.578      2.509
REMARK  Name = 447765
REMARK  2 active torsions:
REMARK  status: ('A' for Active; 'I' for Inactive)
REMARK    1  A    between atoms: C_1  and  C_4
REMARK    2  A    between atoms: C_1  and  O_6
REMARK                            x       y       z     vdW  Elec       q    Type
REMARK                         _______ _______ _______ _____ _____    ______ ____
ROOT
ATOM      1  C   UNL     1      42.208 -15.365 -17.697  0.00  0.00    +0.167 C 
ATOM      2  C   UNL     1      41.207 -14.300 -18.103  0.00  0.00    +0.040 C 
ENDROOT
BRANCH   1   4
ATOM      3  O   UNL     1      42.573 -16.801 -15.791  0.00  0.00    -0.294 OA
ATOM      4  C   UNL     1      41.972 -15.839 -16.270  0.00  0.00    +0.178 C 
ATOM      5  C   UNL     1      40.967 -15.070 -15.449  0.00  0.00    +0.075 C 
ENDBRANCH   1   4
BRANCH   1   6
ATOM      6  O   UNL     1      42.065 -16.466 -18.582  0.00  0.00    -0.377 OA
ATOM      7  H   UNL     1      41.570 -16.186 -19.368  0.00  0.00    +0.211 HD
ENDBRANCH   1   6
TORSDOF 2
ENDMDL
