MODEL 1
REMARK VINA RESULT:     -10.9      0.000      0.000
REMARK  Name = 1548887
REMARK  6 active torsions:
REMARK  status: ('A' for Active; 'I' for Inactive)
REMARK    1  A    between atoms: C_2  and  C_22
REMARK    2  A    between atoms: C_5  and  C_7
REMARK    3  A    between atoms: C_7  and  C_13
REMARK    4  A    between atoms: C_16  and  S_19
REMARK    5  A    between atoms: C_22  and  C_24
REMARK    6  A    between atoms: C_24  and  O_25
REMARK                            x       y       z     vdW  Elec       q    Type
REMARK                         _______ _______ _______ _____ _____    ______ ____
ROOT
ATOM      1  F   UNL     1      31.451 -12.137 -21.063  0.00  0.00    -0.204 F 
ATOM      2  C   UNL     1      33.392 -15.090 -24.531  0.00  0.00    -0.030 C 
ATOM      3  C   UNL     1      33.146 -14.519 -23.194  0.00  0.00    -0.005 C 
ATOM      4  C   UNL     1      34.298 -16.083 -24.397  0.00  0.00    +0.037 C 
ATOM      5  C   UNL     1      34.678 -16.203 -22.989  0.00  0.00    -0.036 C 
ATOM      6  C   UNL     1      33.928 -15.192 -22.240  0.00  0.00    -0.008 C 
ATOM      7  C   UNL     1      32.305 -13.485 -22.812  0.00  0.00    +0.029 C 
ATOM      8  C   UNL     1      33.887 -14.850 -20.898  0.00  0.00    +0.002 C 
ATOM      9  C   UNL     1      34.871 -16.961 -25.456  0.00  0.00    +0.009 C 
ATOM     10  C   UNL     1      32.255 -13.133 -21.460  0.00  0.00    +0.140 C 
ATOM     11  C   UNL     1      33.040 -13.809 -20.511  0.00  0.00    +0.030 C 
ENDROOT
BRANCH   5  12
ATOM     12  C   UNL     1      35.548 -17.067 -22.453  0.00  0.00    +0.049 C 
BRANCH  12  13
ATOM     13  C   UNL     1      35.201 -18.293 -21.716  0.00  0.00    -0.018 C 
ATOM     14  C   UNL     1      36.209 -19.038 -21.124  0.00  0.00    -0.003 C 
ATOM     15  C   UNL     1      33.873 -18.679 -21.625  0.00  0.00    -0.003 C 
ATOM     16  C   UNL     1      34.549 -20.600 -20.325  0.00  0.00    +0.056 C 
ATOM     17  C   UNL     1      35.881 -20.199 -20.424  0.00  0.00    +0.008 C 
ATOM     18  C   UNL     1      33.545 -19.840 -20.925  0.00  0.00    +0.008 C 
BRANCH  16  19
ATOM     19  S   UNL     1      34.126 -22.093 -19.426  0.00  0.00    +0.066 S 
ATOM     20  O   UNL     1      32.856 -21.803 -18.678  0.00  0.00    -0.251 OA
ATOM     21  C   UNL     1      35.478 -22.035 -18.221  0.00  0.00    +0.111 C 
ENDBRANCH  16  19
ENDBRANCH  12  13
ENDBRANCH   5  12
BRANCH   2  22
ATOM     22  C   UNL     1      32.701 -14.576 -25.742  0.00  0.00    +0.132 C 
BRANCH  22  24
ATOM     23  O   UNL     1      33.750 -12.369 -25.782  0.00  0.00    -0.250 OA
ATOM     24  C   UNL     1      33.467 -13.419 -26.337  0.00  0.00    +0.318 C 
BRANCH  24  25
ATOM     25  O   UNL     1      33.807 -13.705 -27.622  0.00  0.00    -0.480 OA
ATOM     26  H   UNL     1      33.534 -13.137 -28.316  0.00  0.00    +0.295 HD
ENDBRANCH  24  25
ENDBRANCH  22  24
ENDBRANCH   2  22
TORSDOF 6
ENDMDL
MODEL 2
REMARK VINA RESULT:     -10.5      5.237     10.808
REMARK  Name = 1548887
REMARK  6 active torsions:
REMARK  status: ('A' for Active; 'I' for Inactive)
REMARK    1  A    between atoms: C_2  and  C_22
REMARK    2  A    between atoms: C_5  and  C_7
REMARK    3  A    between atoms: C_7  and  C_13
REMARK    4  A    between atoms: C_16  and  S_19
REMARK    5  A    between atoms: C_22  and  C_24
REMARK    6  A    between atoms: C_24  and  O_25
REMARK                            x       y       z     vdW  Elec       q    Type
REMARK                         _______ _______ _______ _____ _____    ______ ____
ROOT
ATOM      1  F   UNL     1      37.308 -23.225 -12.852  0.00  0.00    -0.204 F 
ATOM      2  C   UNL     1      32.828 -23.153 -14.961  0.00  0.00    -0.030 C 
ATOM      3  C   UNL     1      34.299 -23.166 -14.861  0.00  0.00    -0.005 C 
ATOM      4  C   UNL     1      32.503 -23.126 -16.271  0.00  0.00    +0.037 C 
ATOM      5  C   UNL     1      33.727 -23.120 -17.074  0.00  0.00    -0.036 C 
ATOM      6  C   UNL     1      34.862 -23.145 -16.148  0.00  0.00    -0.008 C 
ATOM      7  C   UNL     1      35.113 -23.193 -13.738  0.00  0.00    +0.029 C 
ATOM      8  C   UNL     1      36.234 -23.150 -16.340  0.00  0.00    +0.002 C 
ATOM      9  C   UNL     1      31.145 -23.105 -16.886  0.00  0.00    +0.009 C 
ATOM     10  C   UNL     1      36.498 -23.199 -13.920  0.00  0.00    +0.140 C 
ATOM     11  C   UNL     1      37.055 -23.178 -15.210  0.00  0.00    +0.030 C 
ENDROOT
BRANCH   5  12
ATOM     12  C   UNL     1      33.823 -23.094 -18.407  0.00  0.00    +0.049 C 
BRANCH  12  13
ATOM     13  C   UNL     1      34.222 -21.933 -19.220  0.00  0.00    -0.018 C 
ATOM     14  C   UNL     1      33.244 -21.095 -19.732  0.00  0.00    -0.003 C 
ATOM     15  C   UNL     1      35.567 -21.699 -19.457  0.00  0.00    -0.003 C 
ATOM     16  C   UNL     1      34.972 -19.746 -20.748  0.00  0.00    +0.056 C 
ATOM     17  C   UNL     1      33.621 -19.994 -20.502  0.00  0.00    +0.008 C 
ATOM     18  C   UNL     1      35.944 -20.599 -20.226  0.00  0.00    +0.008 C 
BRANCH  16  19
ATOM     19  S   UNL     1      35.457 -18.332 -21.739  0.00  0.00    +0.066 S 
ATOM     20  O   UNL     1      34.554 -17.197 -21.343  0.00  0.00    -0.251 OA
ATOM     21  C   UNL     1      34.867 -18.948 -23.337  0.00  0.00    +0.111 C 
ENDBRANCH  16  19
ENDBRANCH  12  13
ENDBRANCH   5  12
BRANCH   2  22
ATOM     22  C   UNL     1      31.961 -23.170 -13.754  0.00  0.00    +0.132 C 
BRANCH  22  24
ATOM     23  O   UNL     1      30.116 -24.769 -13.869  0.00  0.00    -0.250 OA
ATOM     24  C   UNL     1      31.281 -24.509 -13.609  0.00  0.00    +0.318 C 
BRANCH  24  25
ATOM     25  O   UNL     1      32.164 -25.424 -13.127  0.00  0.00    -0.480 OA
ATOM     26  H   UNL     1      33.033 -25.464 -13.475  0.00  0.00    +0.295 HD
ENDBRANCH  24  25
ENDBRANCH  22  24
ENDBRANCH   2  22
TORSDOF 6
ENDMDL
MODEL 3
REMARK VINA RESULT:     -10.2      0.819      1.284
REMARK  Name = 1548887
REMARK  6 active torsions:
REMARK  status: ('A' for Active; 'I' for Inactive)
REMARK    1  A    between atoms: C_2  and  C_22
REMARK    2  A    between atoms: C_5  and  C_7
REMARK    3  A    between atoms: C_7  and  C_13
REMARK    4  A    between atoms: C_16  and  S_19
REMARK    5  A    between atoms: C_22  and  C_24
REMARK    6  A    between atoms: C_24  and  O_25
REMARK                            x       y       z     vdW  Elec       q    Type
REMARK                         _______ _______ _______ _____ _____    ______ ____
ROOT
ATOM      1  F   UNL     1      31.759 -12.381 -21.036  0.00  0.00    -0.204 F 
ATOM      2  C   UNL     1      33.495 -15.421 -24.538  0.00  0.00    -0.030 C 
ATOM      3  C   UNL     1      33.318 -14.825 -23.201  0.00  0.00    -0.005 C 
ATOM      4  C   UNL     1      34.388 -16.428 -24.428  0.00  0.00    +0.037 C 
ATOM      5  C   UNL     1      34.828 -16.533 -23.036  0.00  0.00    -0.036 C 
ATOM      6  C   UNL     1      34.129 -15.497 -22.272  0.00  0.00    -0.008 C 
ATOM      7  C   UNL     1      32.512 -13.771 -22.798  0.00  0.00    +0.029 C 
ATOM      8  C   UNL     1      34.154 -15.134 -20.935  0.00  0.00    +0.002 C 
ATOM      9  C   UNL     1      34.898 -17.332 -25.497  0.00  0.00    +0.009 C 
ATOM     10  C   UNL     1      32.529 -13.397 -21.452  0.00  0.00    +0.140 C 
ATOM     11  C   UNL     1      33.342 -14.072 -20.528  0.00  0.00    +0.030 C 
ENDROOT
BRANCH   5  12
ATOM     12  C   UNL     1      35.706 -17.404 -22.525  0.00  0.00    +0.049 C 
BRANCH  12  13
ATOM     13  C   UNL     1      35.377 -18.562 -21.678  0.00  0.00    -0.018 C 
ATOM     14  C   UNL     1      34.060 -18.984 -21.587  0.00  0.00    -0.003 C 
ATOM     15  C   UNL     1      36.390 -19.210 -20.988  0.00  0.00    -0.003 C 
ATOM     16  C   UNL     1      34.757 -20.744 -20.084  0.00  0.00    +0.056 C 
ATOM     17  C   UNL     1      33.747 -20.082 -20.784  0.00  0.00    +0.008 C 
ATOM     18  C   UNL     1      36.078 -20.307 -20.186  0.00  0.00    +0.008 C 
BRANCH  16  19
ATOM     19  S   UNL     1      34.356 -22.154 -19.052  0.00  0.00    +0.066 S 
ATOM     20  O   UNL     1      34.407 -23.367 -19.938  0.00  0.00    -0.251 OA
ATOM     21  C   UNL     1      32.607 -21.763 -18.786  0.00  0.00    +0.111 C 
ENDBRANCH  16  19
ENDBRANCH  12  13
ENDBRANCH   5  12
BRANCH   2  22
ATOM     22  C   UNL     1      32.760 -14.913 -25.726  0.00  0.00    +0.132 C 
BRANCH  22  24
ATOM     23  O   UNL     1      33.667 -12.644 -25.711  0.00  0.00    -0.250 OA
ATOM     24  C   UNL     1      33.448 -13.696 -26.293  0.00  0.00    +0.318 C 
BRANCH  24  25
ATOM     25  O   UNL     1      33.799 -13.926 -27.586  0.00  0.00    -0.480 OA
ATOM     26  H   UNL     1      34.505 -13.445 -27.972  0.00  0.00    +0.295 HD
ENDBRANCH  24  25
ENDBRANCH  22  24
ENDBRANCH   2  22
TORSDOF 6
ENDMDL
MODEL 4
REMARK VINA RESULT:     -10.2      4.985     10.681
REMARK  Name = 1548887
REMARK  6 active torsions:
REMARK  status: ('A' for Active; 'I' for Inactive)
REMARK    1  A    between atoms: C_2  and  C_22
REMARK    2  A    between atoms: C_5  and  C_7
REMARK    3  A    between atoms: C_7  and  C_13
REMARK    4  A    between atoms: C_16  and  S_19
REMARK    5  A    between atoms: C_22  and  C_24
REMARK    6  A    between atoms: C_24  and  O_25
REMARK                            x       y       z     vdW  Elec       q    Type
REMARK                         _______ _______ _______ _____ _____    ______ ____
ROOT
ATOM      1  F   UNL     1      29.776 -23.213 -13.695  0.00  0.00    -0.204 F 
ATOM      2  C   UNL     1      34.581 -23.129 -14.889  0.00  0.00    -0.030 C 
ATOM      3  C   UNL     1      33.119 -23.141 -15.078  0.00  0.00    -0.005 C 
ATOM      4  C   UNL     1      35.156 -23.092 -16.111  0.00  0.00    +0.037 C 
ATOM      5  C   UNL     1      34.112 -23.078 -17.136  0.00  0.00    -0.036 C 
ATOM      6  C   UNL     1      32.818 -23.110 -16.450  0.00  0.00    -0.008 C 
ATOM      7  C   UNL     1      32.102 -23.175 -14.136  0.00  0.00    +0.029 C 
ATOM      8  C   UNL     1      31.510 -23.114 -16.906  0.00  0.00    +0.002 C 
ATOM      9  C   UNL     1      36.607 -23.068 -16.449  0.00  0.00    +0.009 C 
ATOM     10  C   UNL     1      30.779 -23.179 -14.585  0.00  0.00    +0.140 C 
ATOM     11  C   UNL     1      30.484 -23.149 -15.957  0.00  0.00    +0.030 C 
ENDROOT
BRANCH   5  12
ATOM     12  C   UNL     1      34.277 -23.044 -18.463  0.00  0.00    +0.049 C 
BRANCH  12  13
ATOM     13  C   UNL     1      34.493 -21.834 -19.273  0.00  0.00    -0.018 C 
ATOM     14  C   UNL     1      33.397 -21.123 -19.738  0.00  0.00    -0.003 C 
ATOM     15  C   UNL     1      35.788 -21.426 -19.555  0.00  0.00    -0.003 C 
ATOM     16  C   UNL     1      34.899 -19.554 -20.797  0.00  0.00    +0.056 C 
ATOM     17  C   UNL     1      33.601 -19.976 -20.506  0.00  0.00    +0.008 C 
ATOM     18  C   UNL     1      35.991 -20.279 -20.321  0.00  0.00    +0.008 C 
BRANCH  16  19
ATOM     19  S   UNL     1      35.161 -18.080 -21.784  0.00  0.00    +0.066 S 
ATOM     20  O   UNL     1      34.028 -17.144 -21.472  0.00  0.00    -0.251 OA
ATOM     21  C   UNL     1      34.814 -18.814 -23.403  0.00  0.00    +0.111 C 
ENDBRANCH  16  19
ENDBRANCH  12  13
ENDBRANCH   5  12
BRANCH   2  22
ATOM     22  C   UNL     1      35.196 -23.156 -13.537  0.00  0.00    +0.132 C 
BRANCH  22  24
ATOM     23  O   UNL     1      36.298 -25.337 -13.567  0.00  0.00    -0.250 OA
ATOM     24  C   UNL     1      35.461 -24.577 -13.104  0.00  0.00    +0.318 C 
BRANCH  24  25
ATOM     25  O   UNL     1      34.612 -24.918 -12.099  0.00  0.00    -0.480 OA
ATOM     26  H   UNL     1      34.230 -24.251 -11.562  0.00  0.00    +0.295 HD
ENDBRANCH  24  25
ENDBRANCH  22  24
ENDBRANCH   2  22
TORSDOF 6
ENDMDL
MODEL 5
REMARK VINA RESULT:      -9.6      4.108      6.141
REMARK  Name = 1548887
REMARK  6 active torsions:
REMARK  status: ('A' for Active; 'I' for Inactive)
REMARK    1  A    between atoms: C_2  and  C_22
REMARK    2  A    between atoms: C_5  and  C_7
REMARK    3  A    between atoms: C_7  and  C_13
REMARK    4  A    between atoms: C_16  and  S_19
REMARK    5  A    between atoms: C_22  and  C_24
REMARK    6  A    between atoms: C_24  and  O_25
REMARK                            x       y       z     vdW  Elec       q    Type
REMARK                         _______ _______ _______ _____ _____    ______ ____
ROOT
ATOM      1  F   UNL     1      35.459  -7.421 -24.636  0.00  0.00    -0.204 F 
ATOM      2  C   UNL     1      32.045  -9.704 -21.870  0.00  0.00    -0.030 C 
ATOM      3  C   UNL     1      33.075  -9.525 -22.910  0.00  0.00    -0.005 C 
ATOM      4  C   UNL     1      31.618 -10.984 -21.926  0.00  0.00    +0.037 C 
ATOM      5  C   UNL     1      32.338 -11.687 -22.988  0.00  0.00    -0.036 C 
ATOM      6  C   UNL     1      33.264 -10.733 -23.602  0.00  0.00    -0.008 C 
ATOM      7  C   UNL     1      33.809  -8.398 -23.248  0.00  0.00    +0.029 C 
ATOM      8  C   UNL     1      34.179 -10.839 -24.636  0.00  0.00    +0.002 C 
ATOM      9  C   UNL     1      30.587 -11.652 -21.082  0.00  0.00    +0.009 C 
ATOM     10  C   UNL     1      34.736  -8.495 -24.289  0.00  0.00    +0.140 C 
ATOM     11  C   UNL     1      34.920  -9.705 -24.978  0.00  0.00    +0.030 C 
ENDROOT
BRANCH   5  12
ATOM     12  C   UNL     1      32.198 -12.966 -23.354  0.00  0.00    +0.049 C 
BRANCH  12  13
ATOM     13  C   UNL     1      32.958 -14.105 -22.813  0.00  0.00    -0.018 C 
ATOM     14  C   UNL     1      33.955 -14.684 -23.583  0.00  0.00    -0.003 C 
ATOM     15  C   UNL     1      32.664 -14.577 -21.543  0.00  0.00    -0.003 C 
ATOM     16  C   UNL     1      34.390 -16.248 -21.794  0.00  0.00    +0.056 C 
ATOM     17  C   UNL     1      34.675 -15.764 -23.070  0.00  0.00    +0.008 C 
ATOM     18  C   UNL     1      33.384 -15.655 -21.031  0.00  0.00    +0.008 C 
BRANCH  16  19
ATOM     19  S   UNL     1      35.315 -17.636 -21.135  0.00  0.00    +0.066 S 
ATOM     20  O   UNL     1      36.287 -18.054 -22.202  0.00  0.00    -0.251 OA
ATOM     21  C   UNL     1      33.966 -18.845 -21.142  0.00  0.00    +0.111 C 
ENDBRANCH  16  19
ENDBRANCH  12  13
ENDBRANCH   5  12
BRANCH   2  22
ATOM     22  C   UNL     1      31.633  -8.591 -20.975  0.00  0.00    +0.132 C 
BRANCH  22  24
ATOM     23  O   UNL     1      32.422  -9.535 -18.864  0.00  0.00    -0.250 OA
ATOM     24  C   UNL     1      32.415  -8.631 -19.686  0.00  0.00    +0.318 C 
BRANCH  24  25
ATOM     25  O   UNL     1      33.134  -7.485 -19.547  0.00  0.00    -0.480 OA
ATOM     26  H   UNL     1      33.708  -7.207 -20.233  0.00  0.00    +0.295 HD
ENDBRANCH  24  25
ENDBRANCH  22  24
ENDBRANCH   2  22
TORSDOF 6
ENDMDL
MODEL 6
REMARK VINA RESULT:      -9.6      4.500     10.090
REMARK  Name = 1548887
REMARK  6 active torsions:
REMARK  status: ('A' for Active; 'I' for Inactive)
REMARK    1  A    between atoms: C_2  and  C_22
REMARK    2  A    between atoms: C_5  and  C_7
REMARK    3  A    between atoms: C_7  and  C_13
REMARK    4  A    between atoms: C_16  and  S_19
REMARK    5  A    between atoms: C_22  and  C_24
REMARK    6  A    between atoms: C_24  and  O_25
REMARK                            x       y       z     vdW  Elec       q    Type
REMARK                         _______ _______ _______ _____ _____    ______ ____
ROOT
ATOM      1  F   UNL     1      31.487 -23.888 -13.668  0.00  0.00    -0.204 F 
ATOM      2  C   UNL     1      35.627 -22.632 -16.076  0.00  0.00    -0.030 C 
ATOM      3  C   UNL     1      34.203 -22.953 -15.867  0.00  0.00    -0.005 C 
ATOM      4  C   UNL     1      35.802 -22.362 -17.387  0.00  0.00    +0.037 C 
ATOM      5  C   UNL     1      34.522 -22.490 -18.083  0.00  0.00    -0.036 C 
ATOM      6  C   UNL     1      33.515 -22.869 -17.089  0.00  0.00    -0.008 C 
ATOM      7  C   UNL     1      33.532 -23.296 -14.703  0.00  0.00    +0.029 C 
ATOM      8  C   UNL     1      32.156 -23.125 -17.174  0.00  0.00    +0.002 C 
ATOM      9  C   UNL     1      37.060 -21.985 -18.093  0.00  0.00    +0.009 C 
ATOM     10  C   UNL     1      32.161 -23.555 -14.778  0.00  0.00    +0.140 C 
ATOM     11  C   UNL     1      31.478 -23.470 -16.002  0.00  0.00    +0.030 C 
ENDROOT
BRANCH   5  12
ATOM     12  C   UNL     1      34.283 -22.304 -19.386  0.00  0.00    +0.049 C 
BRANCH  12  13
ATOM     13  C   UNL     1      34.235 -21.004 -20.075  0.00  0.00    -0.018 C 
ATOM     14  C   UNL     1      33.019 -20.355 -20.218  0.00  0.00    -0.003 C 
ATOM     15  C   UNL     1      35.408 -20.451 -20.567  0.00  0.00    -0.003 C 
ATOM     16  C   UNL     1      34.145 -18.555 -21.371  0.00  0.00    +0.056 C 
ATOM     17  C   UNL     1      32.973 -19.123 -20.871  0.00  0.00    +0.008 C 
ATOM     18  C   UNL     1      35.362 -19.220 -21.219  0.00  0.00    +0.008 C 
BRANCH  16  19
ATOM     19  S   UNL     1      34.087 -16.972 -22.211  0.00  0.00    +0.066 S 
ATOM     20  O   UNL     1      35.507 -16.500 -22.342  0.00  0.00    -0.251 OA
ATOM     21  C   UNL     1      33.332 -16.019 -20.868  0.00  0.00    +0.111 C 
ENDBRANCH  16  19
ENDBRANCH  12  13
ENDBRANCH   5  12
BRANCH   2  22
ATOM     22  C   UNL     1      36.604 -22.640 -14.956  0.00  0.00    +0.132 C 
BRANCH  22  24
ATOM     23  O   UNL     1      36.758 -25.013 -14.392  0.00  0.00    -0.250 OA
ATOM     24  C   UNL     1      37.262 -23.993 -14.837  0.00  0.00    +0.318 C 
BRANCH  24  25
ATOM     25  O   UNL     1      38.539 -23.927 -15.300  0.00  0.00    -0.480 OA
ATOM     26  H   UNL     1      38.699 -23.745 -16.206  0.00  0.00    +0.295 HD
ENDBRANCH  24  25
ENDBRANCH  22  24
ENDBRANCH   2  22
TORSDOF 6
ENDMDL
MODEL 7
REMARK VINA RESULT:      -9.3      1.840      3.229
REMARK  Name = 1548887
REMARK  6 active torsions:
REMARK  status: ('A' for Active; 'I' for Inactive)
REMARK    1  A    between atoms: C_2  and  C_22
REMARK    2  A    between atoms: C_5  and  C_7
REMARK    3  A    between atoms: C_7  and  C_13
REMARK    4  A    between atoms: C_16  and  S_19
REMARK    5  A    between atoms: C_22  and  C_24
REMARK    6  A    between atoms: C_24  and  O_25
REMARK                            x       y       z     vdW  Elec       q    Type
REMARK                         _______ _______ _______ _____ _____    ______ ____
ROOT
ATOM      1  F   UNL     1      32.358 -14.470 -27.205  0.00  0.00    -0.204 F 
ATOM      2  C   UNL     1      33.149 -14.429 -22.317  0.00  0.00    -0.030 C 
ATOM      3  C   UNL     1      33.269 -14.852 -23.724  0.00  0.00    -0.005 C 
ATOM      4  C   UNL     1      33.948 -15.226 -21.575  0.00  0.00    +0.037 C 
ATOM      5  C   UNL     1      34.616 -16.190 -22.451  0.00  0.00    -0.036 C 
ATOM      6  C   UNL     1      34.165 -15.931 -23.820  0.00  0.00    -0.008 C 
ATOM      7  C   UNL     1      32.651 -14.348 -24.859  0.00  0.00    +0.029 C 
ATOM      8  C   UNL     1      34.459 -16.522 -25.037  0.00  0.00    +0.002 C 
ATOM      9  C   UNL     1      34.172 -15.197 -20.102  0.00  0.00    +0.009 C 
ATOM     10  C   UNL     1      32.941 -14.937 -26.092  0.00  0.00    +0.140 C 
ATOM     11  C   UNL     1      33.837 -16.015 -26.181  0.00  0.00    +0.030 C 
ENDROOT
BRANCH   5  12
ATOM     12  C   UNL     1      35.483 -17.145 -22.096  0.00  0.00    +0.049 C 
BRANCH  12  13
ATOM     13  C   UNL     1      35.143 -18.409 -21.422  0.00  0.00    -0.018 C 
ATOM     14  C   UNL     1      36.160 -19.211 -20.927  0.00  0.00    -0.003 C 
ATOM     15  C   UNL     1      33.811 -18.774 -21.292  0.00  0.00    -0.003 C 
ATOM     16  C   UNL     1      34.503 -20.788 -20.151  0.00  0.00    +0.056 C 
ATOM     17  C   UNL     1      35.838 -20.409 -20.288  0.00  0.00    +0.008 C 
ATOM     18  C   UNL     1      33.490 -19.971 -20.653  0.00  0.00    +0.008 C 
BRANCH  16  19
ATOM     19  S   UNL     1      34.089 -22.328 -19.330  0.00  0.00    +0.066 S 
ATOM     20  O   UNL     1      32.730 -22.139 -18.717  0.00  0.00    -0.251 OA
ATOM     21  C   UNL     1      35.299 -22.213 -17.987  0.00  0.00    +0.111 C 
ENDBRANCH  16  19
ENDBRANCH  12  13
ENDBRANCH   5  12
BRANCH   2  22
ATOM     22  C   UNL     1      32.267 -13.305 -21.909  0.00  0.00    +0.132 C 
BRANCH  22  24
ATOM     23  O   UNL     1      33.700 -11.836 -23.237  0.00  0.00    -0.250 OA
ATOM     24  C   UNL     1      32.662 -12.036 -22.624  0.00  0.00    +0.318 C 
BRANCH  24  25
ATOM     25  O   UNL     1      31.681 -11.106 -22.487  0.00  0.00    -0.480 OA
ATOM     26  H   UNL     1      30.939 -11.284 -21.943  0.00  0.00    +0.295 HD
ENDBRANCH  24  25
ENDBRANCH  22  24
ENDBRANCH   2  22
TORSDOF 6
ENDMDL
MODEL 8
REMARK VINA RESULT:      -9.2      3.858      5.537
REMARK  Name = 1548887
REMARK  6 active torsions:
REMARK  status: ('A' for Active; 'I' for Inactive)
REMARK    1  A    between atoms: C_2  and  C_22
REMARK    2  A    between atoms: C_5  and  C_7
REMARK    3  A    between atoms: C_7  and  C_13
REMARK    4  A    between atoms: C_16  and  S_19
REMARK    5  A    between atoms: C_22  and  C_24
REMARK    6  A    between atoms: C_24  and  O_25
REMARK                            x       y       z     vdW  Elec       q    Type
REMARK                         _______ _______ _______ _____ _____    ______ ____
ROOT
ATOM      1  F   UNL     1      31.192  -8.735 -19.736  0.00  0.00    -0.204 F 
ATOM      2  C   UNL     1      34.222  -9.092 -23.637  0.00  0.00    -0.030 C 
ATOM      3  C   UNL     1      33.216  -9.496 -22.638  0.00  0.00    -0.005 C 
ATOM      4  C   UNL     1      34.420 -10.136 -24.470  0.00  0.00    +0.037 C 
ATOM      5  C   UNL     1      33.565 -11.251 -24.060  0.00  0.00    -0.036 C 
ATOM      6  C   UNL     1      32.805 -10.817 -22.886  0.00  0.00    -0.008 C 
ATOM      7  C   UNL     1      32.680  -8.780 -21.577  0.00  0.00    +0.029 C 
ATOM      8  C   UNL     1      31.862 -11.444 -22.089  0.00  0.00    +0.002 C 
ATOM      9  C   UNL     1      35.339 -10.223 -25.641  0.00  0.00    +0.009 C 
ATOM     10  C   UNL     1      31.727  -9.404 -20.768  0.00  0.00    +0.140 C 
ATOM     11  C   UNL     1      31.321 -10.724 -21.021  0.00  0.00    +0.030 C 
ENDROOT
BRANCH   5  12
ATOM     12  C   UNL     1      33.474 -12.457 -24.632  0.00  0.00    +0.049 C 
BRANCH  12  13
ATOM     13  C   UNL     1      33.767 -13.743 -23.979  0.00  0.00    -0.018 C 
ATOM     14  C   UNL     1      34.216 -13.753 -22.668  0.00  0.00    -0.003 C 
ATOM     15  C   UNL     1      33.587 -14.922 -24.687  0.00  0.00    -0.003 C 
ATOM     16  C   UNL     1      34.317 -16.166 -22.749  0.00  0.00    +0.056 C 
ATOM     17  C   UNL     1      34.494 -14.972 -22.048  0.00  0.00    +0.008 C 
ATOM     18  C   UNL     1      33.864 -16.140 -24.068  0.00  0.00    +0.008 C 
BRANCH  16  19
ATOM     19  S   UNL     1      34.674 -17.733 -21.954  0.00  0.00    +0.066 S 
ATOM     20  O   UNL     1      35.395 -17.414 -20.674  0.00  0.00    -0.251 OA
ATOM     21  C   UNL     1      35.919 -18.319 -23.133  0.00  0.00    +0.111 C 
ENDBRANCH  16  19
ENDBRANCH  12  13
ENDBRANCH   5  12
BRANCH   2  22
ATOM     22  C   UNL     1      34.840  -7.740 -23.624  0.00  0.00    +0.132 C 
BRANCH  22  24
ATOM     23  O   UNL     1      32.874  -6.389 -24.155  0.00  0.00    -0.250 OA
ATOM     24  C   UNL     1      34.004  -6.769 -24.421  0.00  0.00    +0.318 C 
BRANCH  24  25
ATOM     25  O   UNL     1      34.695  -6.360 -25.518  0.00  0.00    -0.480 OA
ATOM     26  H   UNL     1      35.070  -6.993 -26.098  0.00  0.00    +0.295 HD
ENDBRANCH  24  25
ENDBRANCH  22  24
ENDBRANCH   2  22
TORSDOF 6
ENDMDL
MODEL 9
REMARK VINA RESULT:      -9.1      7.115     11.424
REMARK  Name = 1548887
REMARK  6 active torsions:
REMARK  status: ('A' for Active; 'I' for Inactive)
REMARK    1  A    between atoms: C_2  and  C_22
REMARK    2  A    between atoms: C_5  and  C_7
REMARK    3  A    between atoms: C_7  and  C_13
REMARK    4  A    between atoms: C_16  and  S_19
REMARK    5  A    between atoms: C_22  and  C_24
REMARK    6  A    between atoms: C_24  and  O_25
REMARK                            x       y       z     vdW  Elec       q    Type
REMARK                         _______ _______ _______ _____ _____    ______ ____
ROOT
ATOM      1  F   UNL     1      33.379 -13.904 -24.973  0.00  0.00    -0.204 F 
ATOM      2  C   UNL     1      31.954 -10.248 -21.952  0.00  0.00    -0.030 C 
ATOM      3  C   UNL     1      32.690 -10.928 -23.034  0.00  0.00    -0.005 C 
ATOM      4  C   UNL     1      32.374  -8.966 -21.908  0.00  0.00    +0.037 C 
ATOM      5  C   UNL     1      33.386  -8.753 -22.943  0.00  0.00    -0.036 C 
ATOM      6  C   UNL     1      33.571 -10.023 -23.649  0.00  0.00    -0.008 C 
ATOM      7  C   UNL     1      32.614 -12.242 -23.470  0.00  0.00    +0.029 C 
ATOM      8  C   UNL     1      34.387 -10.407 -24.701  0.00  0.00    +0.002 C 
ATOM      9  C   UNL     1      31.931  -7.879 -20.989  0.00  0.00    +0.009 C 
ATOM     10  C   UNL     1      33.432 -12.640 -24.531  0.00  0.00    +0.140 C 
ATOM     11  C   UNL     1      34.311 -11.730 -25.141  0.00  0.00    +0.030 C 
ENDROOT
BRANCH   5  12
ATOM     12  C   UNL     1      34.041  -7.619 -23.217  0.00  0.00    +0.049 C 
BRANCH  12  13
ATOM     13  C   UNL     1      33.694  -6.659 -24.278  0.00  0.00    -0.018 C 
ATOM     14  C   UNL     1      32.466  -6.018 -24.239  0.00  0.00    -0.003 C 
ATOM     15  C   UNL     1      34.603  -6.412 -25.296  0.00  0.00    -0.003 C 
ATOM     16  C   UNL     1      33.042  -4.850 -26.274  0.00  0.00    +0.056 C 
ATOM     17  C   UNL     1      32.137  -5.108 -25.244  0.00  0.00    +0.008 C 
ATOM     18  C   UNL     1      34.274  -5.502 -26.300  0.00  0.00    +0.008 C 
BRANCH  16  19
ATOM     19  S   UNL     1      32.619  -3.681 -27.566  0.00  0.00    +0.066 S 
ATOM     20  O   UNL     1      32.672  -4.434 -28.865  0.00  0.00    -0.251 OA
ATOM     21  C   UNL     1      34.122  -2.673 -27.475  0.00  0.00    +0.111 C 
ENDBRANCH  16  19
ENDBRANCH  12  13
ENDBRANCH   5  12
BRANCH   2  22
ATOM     22  C   UNL     1      30.948 -10.960 -21.122  0.00  0.00    +0.132 C 
BRANCH  22  24
ATOM     23  O   UNL     1      31.562 -10.756 -18.765  0.00  0.00    -0.250 OA
ATOM     24  C   UNL     1      31.554 -11.391 -19.809  0.00  0.00    +0.318 C 
BRANCH  24  25
ATOM     25  O   UNL     1      32.117 -12.621 -19.944  0.00  0.00    -0.480 OA
ATOM     26  H   UNL     1      32.948 -12.802 -19.548  0.00  0.00    +0.295 HD
ENDBRANCH  24  25
ENDBRANCH  22  24
ENDBRANCH   2  22
TORSDOF 6
ENDMDL
