MODEL 1
REMARK VINA RESULT:      -6.6      0.000      0.000
REMARK  Name = 440005
REMARK  9 active torsions:
REMARK  status: ('A' for Active; 'I' for Inactive)
REMARK    1  A    between atoms: C_1  and  C_2
REMARK    2  A    between atoms: C_1  and  C_12
REMARK    3  A    between atoms: C_2  and  C_3
REMARK    4  A    between atoms: C_3  and  N_4
REMARK    5  A    between atoms: C_3  and  C_9
REMARK    6  A    between atoms: C_9  and  O_10
REMARK    7  A    between atoms: C_12  and  N_13
REMARK    8  A    between atoms: N_13  and  C_16
REMARK    9  A    between atoms: N_14  and  N_22
REMARK                            x       y       z     vdW  Elec       q    Type
REMARK                         _______ _______ _______ _____ _____    ______ ____
ROOT
ATOM      1  C   UNK     1      37.607 -23.647 -14.088  0.00  0.00    +0.025 C 
ENDROOT
BRANCH   1   2
ATOM      2  C   UNK     1      37.236 -23.069 -12.714  0.00  0.00    -0.009 C 
BRANCH   2   3
ATOM      3  C   UNK     1      37.104 -24.160 -11.641  0.00  0.00    +0.036 C 
BRANCH   3   4
ATOM      4  N   UNK     1      37.559 -25.440 -12.177  0.00  0.00    +0.389 N 
ATOM      5  H   UNK     1      36.802 -25.878 -12.702  0.00  0.00    -0.088 HD
ATOM      6  H   UNK     1      37.837 -26.051 -11.409  0.00  0.00    -0.088 HD
ATOM      7  H   UNK     1      38.357 -25.287 -12.795  0.00  0.00    -0.088 HD
ENDBRANCH   3   4
BRANCH   3   9
ATOM      8  O   UNK     1      35.297 -25.174 -10.359  0.00  0.00    -0.253 OA
ATOM      9  C   UNK     1      35.664 -24.375 -11.211  0.00  0.00    +0.293 C 
BRANCH   9  10
ATOM     10  O   UNK     1      34.805 -23.551 -11.867  0.00  0.00    -0.482 OA
ATOM     11  H   UNK     1      33.880 -23.656 -11.759  0.00  0.00    +0.295 HD
ENDBRANCH   9  10
ENDBRANCH   3   9
ENDBRANCH   2   3
ENDBRANCH   1   2
BRANCH   1  12
ATOM     12  C   UNK     1      36.659 -23.184 -15.189  0.00  0.00    +0.129 C 
BRANCH  12  13
ATOM     13  N   UNK     1      36.061 -24.344 -15.852  0.00  0.00    -0.239 NA
BRANCH  13  16
ATOM     14  N   UNK     1      35.786 -26.528 -14.930  0.00  0.00    -0.197 N 
ATOM     15  N   UNK     1      34.269 -24.926 -14.391  0.00  0.00    -0.368 N 
ATOM     16  C   UNK     1      35.418 -25.193 -15.114  0.00  0.00    +0.215 C 
ATOM     17  H   UNK     1      35.227 -27.091 -14.346  0.00  0.00    +0.197 HD
ATOM     18  H   UNK     1      33.873 -24.024 -14.411  0.00  0.00    +0.159 HD
ATOM     19  H   UNK     1      33.847 -25.637 -13.856  0.00  0.00    +0.159 HD
BRANCH  14  22
ATOM     20  O   UNK     1      37.913 -27.045 -14.835  0.00  0.00    -0.108 OA
ATOM     21  O   UNK     1      36.790 -27.590 -16.648  0.00  0.00    -0.108 OA
ATOM     22  N   UNK     1      36.886 -27.094 -15.522  0.00  0.00    +0.133 N 
ENDBRANCH  14  22
ENDBRANCH  13  16
ENDBRANCH  12  13
ENDBRANCH   1  12
TORSDOF 9
ENDMDL
MODEL 2
REMARK VINA RESULT:      -6.6      2.275      2.890
REMARK  Name = 440005
REMARK  9 active torsions:
REMARK  status: ('A' for Active; 'I' for Inactive)
REMARK    1  A    between atoms: C_1  and  C_2
REMARK    2  A    between atoms: C_1  and  C_12
REMARK    3  A    between atoms: C_2  and  C_3
REMARK    4  A    between atoms: C_3  and  N_4
REMARK    5  A    between atoms: C_3  and  C_9
REMARK    6  A    between atoms: C_9  and  O_10
REMARK    7  A    between atoms: C_12  and  N_13
REMARK    8  A    between atoms: N_13  and  C_16
REMARK    9  A    between atoms: N_14  and  N_22
REMARK                            x       y       z     vdW  Elec       q    Type
REMARK                         _______ _______ _______ _____ _____    ______ ____
ROOT
ATOM      1  C   UNK     1      35.427 -23.870 -14.577  0.00  0.00    +0.025 C 
ENDROOT
BRANCH   1   2
ATOM      2  C   UNK     1      34.899 -24.174 -13.167  0.00  0.00    -0.009 C 
BRANCH   2   3
ATOM      3  C   UNK     1      35.739 -23.496 -12.075  0.00  0.00    +0.036 C 
BRANCH   3   4
ATOM      4  N   UNK     1      37.032 -23.091 -12.622  0.00  0.00    +0.389 N 
ATOM      5  H   UNK     1      37.730 -23.085 -11.879  0.00  0.00    -0.088 HD
ATOM      6  H   UNK     1      36.954 -22.156 -13.024  0.00  0.00    -0.088 HD
ATOM      7  H   UNK     1      37.316 -23.750 -13.349  0.00  0.00    -0.088 HD
ENDBRANCH   3   4
BRANCH   3   9
ATOM      8  O   UNK     1      36.129 -24.096  -9.746  0.00  0.00    -0.253 OA
ATOM      9  C   UNK     1      36.049 -24.431 -10.920  0.00  0.00    +0.293 C 
BRANCH   9  10
ATOM     10  O   UNK     1      36.209 -25.717 -11.332  0.00  0.00    -0.482 OA
ATOM     11  H   UNK     1      35.483 -26.310 -11.311  0.00  0.00    +0.295 HD
ENDBRANCH   9  10
ENDBRANCH   3   9
ENDBRANCH   2   3
ENDBRANCH   1   2
BRANCH   1  12
ATOM     12  C   UNK     1      36.018 -25.102 -15.255  0.00  0.00    +0.129 C 
BRANCH  12  13
ATOM     13  N   UNK     1      37.463 -25.149 -15.029  0.00  0.00    -0.239 NA
BRANCH  13  16
ATOM     14  N   UNK     1      39.291 -26.442 -14.202  0.00  0.00    -0.197 N 
ATOM     15  N   UNK     1      37.180 -27.082 -13.664  0.00  0.00    -0.368 N 
ATOM     16  C   UNK     1      37.934 -26.147 -14.350  0.00  0.00    +0.215 C 
ATOM     17  H   UNK     1      39.544 -27.225 -13.662  0.00  0.00    +0.197 HD
ATOM     18  H   UNK     1      36.197 -27.020 -13.666  0.00  0.00    +0.159 HD
ATOM     19  H   UNK     1      37.626 -27.810 -13.172  0.00  0.00    +0.159 HD
BRANCH  14  22
ATOM     20  O   UNK     1      40.629 -26.070 -15.897  0.00  0.00    -0.108 OA
ATOM     21  O   UNK     1      40.767 -24.737 -14.151  0.00  0.00    -0.108 OA
ATOM     22  N   UNK     1      40.290 -25.693 -14.770  0.00  0.00    +0.133 N 
ENDBRANCH  14  22
ENDBRANCH  13  16
ENDBRANCH  12  13
ENDBRANCH   1  12
TORSDOF 9
ENDMDL
MODEL 3
REMARK VINA RESULT:      -6.4      2.565      4.671
REMARK  Name = 440005
REMARK  9 active torsions:
REMARK  status: ('A' for Active; 'I' for Inactive)
REMARK    1  A    between atoms: C_1  and  C_2
REMARK    2  A    between atoms: C_1  and  C_12
REMARK    3  A    between atoms: C_2  and  C_3
REMARK    4  A    between atoms: C_3  and  N_4
REMARK    5  A    between atoms: C_3  and  C_9
REMARK    6  A    between atoms: C_9  and  O_10
REMARK    7  A    between atoms: C_12  and  N_13
REMARK    8  A    between atoms: N_13  and  C_16
REMARK    9  A    between atoms: N_14  and  N_22
REMARK                            x       y       z     vdW  Elec       q    Type
REMARK                         _______ _______ _______ _____ _____    ______ ____
ROOT
ATOM      1  C   UNK     1      37.096 -26.269 -15.055  0.00  0.00    +0.025 C 
ENDROOT
BRANCH   1   2
ATOM      2  C   UNK     1      38.089 -26.106 -13.895  0.00  0.00    -0.009 C 
BRANCH   2   3
ATOM      3  C   UNK     1      39.289 -25.228 -14.278  0.00  0.00    +0.036 C 
BRANCH   3   4
ATOM      4  N   UNK     1      38.924 -24.341 -15.380  0.00  0.00    +0.389 N 
ATOM      5  H   UNK     1      39.083 -24.816 -16.268  0.00  0.00    -0.088 HD
ATOM      6  H   UNK     1      39.494 -23.496 -15.340  0.00  0.00    -0.088 HD
ATOM      7  H   UNK     1      37.938 -24.089 -15.301  0.00  0.00    -0.088 HD
ENDBRANCH   3   4
BRANCH   3   9
ATOM      8  O   UNK     1      41.224 -26.693 -14.062  0.00  0.00    -0.253 OA
ATOM      9  C   UNK     1      40.469 -26.045 -14.774  0.00  0.00    +0.293 C 
BRANCH   9  10
ATOM     10  O   UNK     1      40.587 -26.003 -16.127  0.00  0.00    -0.482 OA
ATOM     11  H   UNK     1      41.375 -26.302 -16.538  0.00  0.00    +0.295 HD
ENDBRANCH   9  10
ENDBRANCH   3   9
ENDBRANCH   2   3
ENDBRANCH   1   2
BRANCH   1  12
ATOM     12  C   UNK     1      35.802 -25.496 -14.826  0.00  0.00    +0.129 C 
BRANCH  12  13
ATOM     13  N   UNK     1      36.103 -24.174 -14.273  0.00  0.00    -0.239 NA
BRANCH  13  16
ATOM     14  N   UNK     1      35.813 -23.353 -12.051  0.00  0.00    -0.197 N 
ATOM     15  N   UNK     1      33.978 -23.585 -13.369  0.00  0.00    -0.368 N 
ATOM     16  C   UNK     1      35.351 -23.739 -13.312  0.00  0.00    +0.215 C 
ATOM     17  H   UNK     1      35.157 -23.035 -11.389  0.00  0.00    +0.197 HD
ATOM     18  H   UNK     1      33.490 -23.814 -14.193  0.00  0.00    +0.159 HD
ATOM     19  H   UNK     1      33.487 -23.246 -12.585  0.00  0.00    +0.159 HD
BRANCH  14  22
ATOM     20  O   UNK     1      37.454 -24.399 -11.044  0.00  0.00    -0.108 OA
ATOM     21  O   UNK     1      37.889 -22.471 -12.011  0.00  0.00    -0.108 OA
ATOM     22  N   UNK     1      37.135 -23.394 -11.689  0.00  0.00    +0.133 N 
ENDBRANCH  14  22
ENDBRANCH  13  16
ENDBRANCH  12  13
ENDBRANCH   1  12
TORSDOF 9
ENDMDL
MODEL 4
REMARK VINA RESULT:      -6.2      3.122      4.946
REMARK  Name = 440005
REMARK  9 active torsions:
REMARK  status: ('A' for Active; 'I' for Inactive)
REMARK    1  A    between atoms: C_1  and  C_2
REMARK    2  A    between atoms: C_1  and  C_12
REMARK    3  A    between atoms: C_2  and  C_3
REMARK    4  A    between atoms: C_3  and  N_4
REMARK    5  A    between atoms: C_3  and  C_9
REMARK    6  A    between atoms: C_9  and  O_10
REMARK    7  A    between atoms: C_12  and  N_13
REMARK    8  A    between atoms: N_13  and  C_16
REMARK    9  A    between atoms: N_14  and  N_22
REMARK                            x       y       z     vdW  Elec       q    Type
REMARK                         _______ _______ _______ _____ _____    ______ ____
ROOT
ATOM      1  C   UNK     1      37.653 -22.533 -16.387  0.00  0.00    +0.025 C 
ENDROOT
BRANCH   1   2
ATOM      2  C   UNK     1      36.779 -21.427 -16.998  0.00  0.00    -0.009 C 
BRANCH   2   3
ATOM      3  C   UNK     1      36.501 -21.665 -18.489  0.00  0.00    +0.036 C 
BRANCH   3   4
ATOM      4  N   UNK     1      36.771 -20.445 -19.245  0.00  0.00    +0.389 N 
ATOM      5  H   UNK     1      37.723 -20.474 -19.610  0.00  0.00    -0.088 HD
ATOM      6  H   UNK     1      36.665 -19.635 -18.635  0.00  0.00    -0.088 HD
ATOM      7  H   UNK     1      36.112 -20.373 -20.022  0.00  0.00    -0.088 HD
ENDBRANCH   3   4
BRANCH   3   9
ATOM      8  O   UNK     1      34.346 -21.487 -19.614  0.00  0.00    -0.253 OA
ATOM      9  C   UNK     1      35.046 -22.010 -18.757  0.00  0.00    +0.293 C 
BRANCH   9  10
ATOM     10  O   UNK     1      34.597 -23.001 -17.944  0.00  0.00    -0.482 OA
ATOM     11  H   UNK     1      35.164 -23.710 -17.710  0.00  0.00    +0.295 HD
ENDBRANCH   9  10
ENDBRANCH   3   9
ENDBRANCH   2   3
ENDBRANCH   1   2
BRANCH   1  12
ATOM     12  C   UNK     1      36.942 -23.283 -15.264  0.00  0.00    +0.129 C 
BRANCH  12  13
ATOM     13  N   UNK     1      36.068 -24.313 -15.828  0.00  0.00    -0.239 NA
BRANCH  13  16
ATOM     14  N   UNK     1      35.895 -26.454 -14.788  0.00  0.00    -0.197 N 
ATOM     15  N   UNK     1      34.402 -24.844 -14.209  0.00  0.00    -0.368 N 
ATOM     16  C   UNK     1      35.496 -25.133 -15.005  0.00  0.00    +0.215 C 
ATOM     17  H   UNK     1      35.391 -26.995 -14.137  0.00  0.00    +0.197 HD
ATOM     18  H   UNK     1      33.993 -23.949 -14.241  0.00  0.00    +0.159 HD
ATOM     19  H   UNK     1      34.032 -25.533 -13.610  0.00  0.00    +0.159 HD
BRANCH  14  22
ATOM     20  O   UNK     1      36.666 -27.556 -16.518  0.00  0.00    -0.108 OA
ATOM     21  O   UNK     1      38.078 -27.007 -14.922  0.00  0.00    -0.108 OA
ATOM     22  N   UNK     1      36.956 -27.035 -15.435  0.00  0.00    +0.133 N 
ENDBRANCH  14  22
ENDBRANCH  13  16
ENDBRANCH  12  13
ENDBRANCH   1  12
TORSDOF 9
ENDMDL
MODEL 5
REMARK VINA RESULT:      -6.0      3.630      5.358
REMARK  Name = 440005
REMARK  9 active torsions:
REMARK  status: ('A' for Active; 'I' for Inactive)
REMARK    1  A    between atoms: C_1  and  C_2
REMARK    2  A    between atoms: C_1  and  C_12
REMARK    3  A    between atoms: C_2  and  C_3
REMARK    4  A    between atoms: C_3  and  N_4
REMARK    5  A    between atoms: C_3  and  C_9
REMARK    6  A    between atoms: C_9  and  O_10
REMARK    7  A    between atoms: C_12  and  N_13
REMARK    8  A    between atoms: N_13  and  C_16
REMARK    9  A    between atoms: N_14  and  N_22
REMARK                            x       y       z     vdW  Elec       q    Type
REMARK                         _______ _______ _______ _____ _____    ______ ____
ROOT
ATOM      1  C   UNK     1      35.947 -22.964 -15.285  0.00  0.00    +0.025 C 
ENDROOT
BRANCH   1   2
ATOM      2  C   UNK     1      35.520 -22.587 -16.712  0.00  0.00    -0.009 C 
BRANCH   2   3
ATOM      3  C   UNK     1      36.679 -21.998 -17.529  0.00  0.00    +0.036 C 
BRANCH   3   4
ATOM      4  N   UNK     1      37.245 -20.847 -16.829  0.00  0.00    +0.389 N 
ATOM      5  H   UNK     1      36.745 -20.702 -15.952  0.00  0.00    -0.088 HD
ATOM      6  H   UNK     1      37.154 -20.016 -17.413  0.00  0.00    -0.088 HD
ATOM      7  H   UNK     1      38.232 -21.019 -16.634  0.00  0.00    -0.088 HD
ENDBRANCH   3   4
BRANCH   3   9
ATOM      8  O   UNK     1      36.583 -20.426 -19.388  0.00  0.00    -0.253 OA
ATOM      9  C   UNK     1      36.227 -21.483 -18.884  0.00  0.00    +0.293 C 
BRANCH   9  10
ATOM     10  O   UNK     1      35.386 -22.350 -19.506  0.00  0.00    -0.482 OA
ATOM     11  H   UNK     1      34.527 -22.499 -19.161  0.00  0.00    +0.295 HD
ENDBRANCH   9  10
ENDBRANCH   3   9
ENDBRANCH   2   3
ENDBRANCH   1   2
BRANCH   1  12
ATOM     12  C   UNK     1      36.232 -24.455 -15.138  0.00  0.00    +0.129 C 
BRANCH  12  13
ATOM     13  N   UNK     1      37.617 -24.657 -14.707  0.00  0.00    -0.239 NA
BRANCH  13  16
ATOM     14  N   UNK     1      39.221 -26.365 -14.250  0.00  0.00    -0.197 N 
ATOM     15  N   UNK     1      37.064 -26.710 -13.628  0.00  0.00    -0.368 N 
ATOM     16  C   UNK     1      37.935 -25.820 -14.231  0.00  0.00    +0.215 C 
ATOM     17  H   UNK     1      39.356 -27.258 -13.860  0.00  0.00    +0.197 HD
ATOM     18  H   UNK     1      36.111 -26.479 -13.533  0.00  0.00    +0.159 HD
ATOM     19  H   UNK     1      37.396 -27.574 -13.294  0.00  0.00    +0.159 HD
BRANCH  14  22
ATOM     20  O   UNK     1      40.612 -26.097 -15.922  0.00  0.00    -0.108 OA
ATOM     21  O   UNK     1      40.879 -24.840 -14.135  0.00  0.00    -0.108 OA
ATOM     22  N   UNK     1      40.305 -25.717 -14.787  0.00  0.00    +0.133 N 
ENDBRANCH  14  22
ENDBRANCH  13  16
ENDBRANCH  12  13
ENDBRANCH   1  12
TORSDOF 9
ENDMDL
MODEL 6
REMARK VINA RESULT:      -6.0      2.523      3.925
REMARK  Name = 440005
REMARK  9 active torsions:
REMARK  status: ('A' for Active; 'I' for Inactive)
REMARK    1  A    between atoms: C_1  and  C_2
REMARK    2  A    between atoms: C_1  and  C_12
REMARK    3  A    between atoms: C_2  and  C_3
REMARK    4  A    between atoms: C_3  and  N_4
REMARK    5  A    between atoms: C_3  and  C_9
REMARK    6  A    between atoms: C_9  and  O_10
REMARK    7  A    between atoms: C_12  and  N_13
REMARK    8  A    between atoms: N_13  and  C_16
REMARK    9  A    between atoms: N_14  and  N_22
REMARK                            x       y       z     vdW  Elec       q    Type
REMARK                         _______ _______ _______ _____ _____    ______ ____
ROOT
ATOM      1  C   UNK     1      36.312 -23.202 -12.549  0.00  0.00    +0.025 C 
ENDROOT
BRANCH   1   2
ATOM      2  C   UNK     1      35.124 -24.175 -12.528  0.00  0.00    -0.009 C 
BRANCH   2   3
ATOM      3  C   UNK     1      34.347 -24.170 -13.853  0.00  0.00    +0.036 C 
BRANCH   3   4
ATOM      4  N   UNK     1      33.160 -25.012 -13.736  0.00  0.00    +0.389 N 
ATOM      5  H   UNK     1      32.669 -24.790 -12.870  0.00  0.00    -0.088 HD
ATOM      6  H   UNK     1      33.438 -25.993 -13.727  0.00  0.00    -0.088 HD
ATOM      7  H   UNK     1      32.541 -24.841 -14.530  0.00  0.00    -0.088 HD
ENDBRANCH   3   4
BRANCH   3   9
ATOM      8  O   UNK     1      35.554 -24.113 -15.969  0.00  0.00    -0.253 OA
ATOM      9  C   UNK     1      35.157 -24.747 -15.000  0.00  0.00    +0.293 C 
BRANCH   9  10
ATOM     10  O   UNK     1      35.425 -26.067 -14.824  0.00  0.00    -0.482 OA
ATOM     11  H   UNK     1      35.309 -26.668 -15.534  0.00  0.00    +0.295 HD
ENDBRANCH   9  10
ENDBRANCH   3   9
ENDBRANCH   2   3
ENDBRANCH   1   2
BRANCH   1  12
ATOM     12  C   UNK     1      37.606 -23.853 -12.068  0.00  0.00    +0.129 C 
BRANCH  12  13
ATOM     13  N   UNK     1      38.367 -24.353 -13.214  0.00  0.00    -0.239 NA
BRANCH  13  16
ATOM     14  N   UNK     1      39.452 -26.281 -14.111  0.00  0.00    -0.197 N 
ATOM     15  N   UNK     1      37.635 -26.580 -12.783  0.00  0.00    -0.368 N 
ATOM     16  C   UNK     1      38.471 -25.637 -13.353  0.00  0.00    +0.215 C 
ATOM     17  H   UNK     1      39.443 -27.265 -14.151  0.00  0.00    +0.197 HD
ATOM     18  H   UNK     1      36.884 -26.293 -12.214  0.00  0.00    +0.159 HD
ATOM     19  H   UNK     1      37.790 -27.539 -12.945  0.00  0.00    +0.159 HD
BRANCH  14  22
ATOM     20  O   UNK     1      40.632 -26.042 -15.942  0.00  0.00    -0.108 OA
ATOM     21  O   UNK     1      41.019 -24.666 -14.268  0.00  0.00    -0.108 OA
ATOM     22  N   UNK     1      40.429 -25.610 -14.802  0.00  0.00    +0.133 N 
ENDBRANCH  14  22
ENDBRANCH  13  16
ENDBRANCH  12  13
ENDBRANCH   1  12
TORSDOF 9
ENDMDL
MODEL 7
REMARK VINA RESULT:      -6.0      3.394      4.526
REMARK  Name = 440005
REMARK  9 active torsions:
REMARK  status: ('A' for Active; 'I' for Inactive)
REMARK    1  A    between atoms: C_1  and  C_2
REMARK    2  A    between atoms: C_1  and  C_12
REMARK    3  A    between atoms: C_2  and  C_3
REMARK    4  A    between atoms: C_3  and  N_4
REMARK    5  A    between atoms: C_3  and  C_9
REMARK    6  A    between atoms: C_9  and  O_10
REMARK    7  A    between atoms: C_12  and  N_13
REMARK    8  A    between atoms: N_13  and  C_16
REMARK    9  A    between atoms: N_14  and  N_22
REMARK                            x       y       z     vdW  Elec       q    Type
REMARK                         _______ _______ _______ _____ _____    ______ ____
ROOT
ATOM      1  C   UNK     1      37.522 -26.840 -14.735  0.00  0.00    +0.025 C 
ENDROOT
BRANCH   1   2
ATOM      2  C   UNK     1      38.133 -25.884 -13.699  0.00  0.00    -0.009 C 
BRANCH   2   3
ATOM      3  C   UNK     1      39.303 -25.074 -14.276  0.00  0.00    +0.036 C 
BRANCH   3   4
ATOM      4  N   UNK     1      38.854 -24.313 -15.439  0.00  0.00    +0.389 N 
ATOM      5  H   UNK     1      37.834 -24.296 -15.462  0.00  0.00    -0.088 HD
ATOM      6  H   UNK     1      39.206 -24.751 -16.290  0.00  0.00    -0.088 HD
ATOM      7  H   UNK     1      39.208 -23.357 -15.379  0.00  0.00    -0.088 HD
ENDBRANCH   3   4
BRANCH   3   9
ATOM      8  O   UNK     1      41.174 -26.619 -14.050  0.00  0.00    -0.253 OA
ATOM      9  C   UNK     1      40.432 -25.961 -14.768  0.00  0.00    +0.293 C 
BRANCH   9  10
ATOM     10  O   UNK     1      40.523 -25.970 -16.124  0.00  0.00    -0.482 OA
ATOM     11  H   UNK     1      41.234 -26.413 -16.544  0.00  0.00    +0.295 HD
ENDBRANCH   9  10
ENDBRANCH   3   9
ENDBRANCH   2   3
ENDBRANCH   1   2
BRANCH   1  12
ATOM     12  C   UNK     1      36.053 -26.536 -15.012  0.00  0.00    +0.129 C 
BRANCH  12  13
ATOM     13  N   UNK     1      35.911 -25.160 -15.492  0.00  0.00    -0.239 NA
BRANCH  13  16
ATOM     14  N   UNK     1      34.208 -23.511 -15.768  0.00  0.00    -0.197 N 
ATOM     15  N   UNK     1      34.406 -24.538 -13.752  0.00  0.00    -0.368 N 
ATOM     16  C   UNK     1      34.921 -24.462 -15.034  0.00  0.00    +0.215 C 
ATOM     17  H   UNK     1      33.469 -23.035 -15.324  0.00  0.00    +0.197 HD
ATOM     18  H   UNK     1      34.798 -25.164 -13.100  0.00  0.00    +0.159 HD
ATOM     19  H   UNK     1      33.648 -23.966 -13.491  0.00  0.00    +0.159 HD
BRANCH  14  22
ATOM     20  O   UNK     1      33.678 -23.675 -17.888  0.00  0.00    -0.108 OA
ATOM     21  O   UNK     1      35.476 -22.525 -17.352  0.00  0.00    -0.108 OA
ATOM     22  N   UNK     1      34.485 -23.209 -17.077  0.00  0.00    +0.133 N 
ENDBRANCH  14  22
ENDBRANCH  13  16
ENDBRANCH  12  13
ENDBRANCH   1  12
TORSDOF 9
ENDMDL
MODEL 8
REMARK VINA RESULT:      -6.0      3.358      4.897
REMARK  Name = 440005
REMARK  9 active torsions:
REMARK  status: ('A' for Active; 'I' for Inactive)
REMARK    1  A    between atoms: C_1  and  C_2
REMARK    2  A    between atoms: C_1  and  C_12
REMARK    3  A    between atoms: C_2  and  C_3
REMARK    4  A    between atoms: C_3  and  N_4
REMARK    5  A    between atoms: C_3  and  C_9
REMARK    6  A    between atoms: C_9  and  O_10
REMARK    7  A    between atoms: C_12  and  N_13
REMARK    8  A    between atoms: N_13  and  C_16
REMARK    9  A    between atoms: N_14  and  N_22
REMARK                            x       y       z     vdW  Elec       q    Type
REMARK                         _______ _______ _______ _____ _____    ______ ____
ROOT
ATOM      1  C   UNK     1      37.461 -23.240 -15.525  0.00  0.00    +0.025 C 
ENDROOT
BRANCH   1   2
ATOM      2  C   UNK     1      36.279 -24.212 -15.391  0.00  0.00    -0.009 C 
BRANCH   2   3
ATOM      3  C   UNK     1      36.571 -25.348 -14.401  0.00  0.00    +0.036 C 
BRANCH   3   4
ATOM      4  N   UNK     1      37.407 -24.853 -13.310  0.00  0.00    +0.389 N 
ATOM      5  H   UNK     1      38.264 -24.454 -13.692  0.00  0.00    -0.088 HD
ATOM      6  H   UNK     1      37.641 -25.624 -12.684  0.00  0.00    -0.088 HD
ATOM      7  H   UNK     1      36.900 -24.136 -12.790  0.00  0.00    -0.088 HD
ENDBRANCH   3   4
BRANCH   3   9
ATOM      8  O   UNK     1      38.410 -26.931 -14.626  0.00  0.00    -0.253 OA
ATOM      9  C   UNK     1      37.347 -26.486 -15.039  0.00  0.00    +0.293 C 
BRANCH   9  10
ATOM     10  O   UNK     1      36.712 -26.989 -16.130  0.00  0.00    -0.482 OA
ATOM     11  H   UNK     1      35.826 -27.288 -16.061  0.00  0.00    +0.295 HD
ENDBRANCH   9  10
ENDBRANCH   3   9
ENDBRANCH   2   3
ENDBRANCH   1   2
BRANCH   1  12
ATOM     12  C   UNK     1      37.166 -22.093 -16.486  0.00  0.00    +0.129 C 
BRANCH  12  13
ATOM     13  N   UNK     1      36.015 -22.430 -17.325  0.00  0.00    -0.239 NA
BRANCH  13  16
ATOM     14  N   UNK     1      34.799 -21.940 -19.320  0.00  0.00    -0.197 N 
ATOM     15  N   UNK     1      36.723 -20.804 -18.917  0.00  0.00    -0.368 N 
ATOM     16  C   UNK     1      35.864 -21.773 -18.432  0.00  0.00    +0.215 C 
ATOM     17  H   UNK     1      34.778 -21.388 -20.135  0.00  0.00    +0.197 HD
ATOM     18  H   UNK     1      37.531 -20.562 -18.409  0.00  0.00    +0.159 HD
ATOM     19  H   UNK     1      36.527 -20.354 -19.771  0.00  0.00    +0.159 HD
BRANCH  14  22
ATOM     20  O   UNK     1      33.991 -23.961 -19.580  0.00  0.00    -0.108 OA
ATOM     21  O   UNK     1      32.766 -22.481 -18.506  0.00  0.00    -0.108 OA
ATOM     22  N   UNK     1      33.781 -22.836 -19.113  0.00  0.00    +0.133 N 
ENDBRANCH  14  22
ENDBRANCH  13  16
ENDBRANCH  12  13
ENDBRANCH   1  12
TORSDOF 9
ENDMDL
MODEL 9
REMARK VINA RESULT:      -5.9      2.541      3.668
REMARK  Name = 440005
REMARK  9 active torsions:
REMARK  status: ('A' for Active; 'I' for Inactive)
REMARK    1  A    between atoms: C_1  and  C_2
REMARK    2  A    between atoms: C_1  and  C_12
REMARK    3  A    between atoms: C_2  and  C_3
REMARK    4  A    between atoms: C_3  and  N_4
REMARK    5  A    between atoms: C_3  and  C_9
REMARK    6  A    between atoms: C_9  and  O_10
REMARK    7  A    between atoms: C_12  and  N_13
REMARK    8  A    between atoms: N_13  and  C_16
REMARK    9  A    between atoms: N_14  and  N_22
REMARK                            x       y       z     vdW  Elec       q    Type
REMARK                         _______ _______ _______ _____ _____    ______ ____
ROOT
ATOM      1  C   UNK     1      35.641 -23.177 -15.638  0.00  0.00    +0.025 C 
ENDROOT
BRANCH   1   2
ATOM      2  C   UNK     1      34.711 -24.272 -15.096  0.00  0.00    -0.009 C 
BRANCH   2   3
ATOM      3  C   UNK     1      34.163 -23.930 -13.703  0.00  0.00    +0.036 C 
BRANCH   3   4
ATOM      4  N   UNK     1      34.837 -24.740 -12.691  0.00  0.00    +0.389 N 
ATOM      5  H   UNK     1      34.630 -25.726 -12.850  0.00  0.00    -0.088 HD
ATOM      6  H   UNK     1      34.508 -24.469 -11.764  0.00  0.00    -0.088 HD
ATOM      7  H   UNK     1      35.845 -24.590 -12.751  0.00  0.00    -0.088 HD
ENDBRANCH   3   4
BRANCH   3   9
ATOM      8  O   UNK     1      31.823 -23.444 -13.229  0.00  0.00    -0.253 OA
ATOM      9  C   UNK     1      32.684 -24.244 -13.571  0.00  0.00    +0.293 C 
BRANCH   9  10
ATOM     10  O   UNK     1      32.402 -25.531 -13.905  0.00  0.00    -0.482 OA
ATOM     11  H   UNK     1      31.521 -25.848 -13.850  0.00  0.00    +0.295 HD
ENDBRANCH   9  10
ENDBRANCH   3   9
ENDBRANCH   2   3
ENDBRANCH   1   2
BRANCH   1  12
ATOM     12  C   UNK     1      37.106 -23.440 -15.308  0.00  0.00    +0.129 C 
BRANCH  12  13
ATOM     13  N   UNK     1      37.283 -24.838 -14.909  0.00  0.00    -0.239 NA
BRANCH  13  16
ATOM     14  N   UNK     1      38.785 -25.571 -13.205  0.00  0.00    -0.197 N 
ATOM     15  N   UNK     1      39.587 -25.299 -15.312  0.00  0.00    -0.368 N 
ATOM     16  C   UNK     1      38.461 -25.206 -14.514  0.00  0.00    +0.215 C 
ATOM     17  H   UNK     1      39.712 -25.837 -13.009  0.00  0.00    +0.197 HD
ATOM     18  H   UNK     1      39.532 -25.075 -16.270  0.00  0.00    +0.159 HD
ATOM     19  H   UNK     1      40.444 -25.590 -14.924  0.00  0.00    +0.159 HD
BRANCH  14  22
ATOM     20  O   UNK     1      37.904 -24.568 -11.467  0.00  0.00    -0.108 OA
ATOM     21  O   UNK     1      37.122 -26.546 -12.034  0.00  0.00    -0.108 OA
ATOM     22  N   UNK     1      37.875 -25.579 -12.179  0.00  0.00    +0.133 N 
ENDBRANCH  14  22
ENDBRANCH  13  16
ENDBRANCH  12  13
ENDBRANCH   1  12
TORSDOF 9
ENDMDL
