MODEL 1
REMARK VINA RESULT:      -7.7      0.000      0.000
REMARK  Name = 478379
REMARK  7 active torsions:
REMARK  status: ('A' for Active; 'I' for Inactive)
REMARK    1  A    between atoms: C_4  and  N_23
REMARK    2  A    between atoms: C_24  and  C_26
REMARK    3  A    between atoms: C_26  and  C_27
REMARK    4  A    between atoms: C_26  and  C_31
REMARK    5  A    between atoms: C_27  and  C_28
REMARK    6  A    between atoms: C_31  and  C_34
REMARK    7  A    between atoms: N_33  and  O_36
REMARK                            x       y       z     vdW  Elec       q    Type
REMARK                         _______ _______ _______ _____ _____    ______ ____
ROOT
ATOM      1  O   UNL     1      35.104  -9.766 -23.351  0.00  0.00    -0.273 OA
ATOM      2  N   UNL     1      31.214  -6.770 -23.373  0.00  0.00    -0.286 N 
ATOM      3  N   UNL     1      34.248  -8.893 -25.329  0.00  0.00    -0.303 N 
ATOM      4  C   UNL     1      33.024 -10.651 -24.211  0.00  0.00    +0.153 C 
ATOM      5  C   UNL     1      32.105 -10.332 -23.022  0.00  0.00    +0.057 C 
ATOM      6  C   UNL     1      31.766  -8.879 -22.882  0.00  0.00    -0.004 C 
ATOM      7  C   UNL     1      30.842  -5.599 -24.151  0.00  0.00    +0.096 C 
ATOM      8  C   UNL     1      31.917  -8.075 -21.704  0.00  0.00    +0.011 C 
ATOM      9  C   UNL     1      31.545  -6.768 -22.033  0.00  0.00    +0.051 C 
ATOM     10  C   UNL     1      32.001  -4.625 -24.410  0.00  0.00    +0.022 C 
ATOM     11  C   UNL     1      31.259  -8.048 -23.864  0.00  0.00    +0.061 C 
ATOM     12  C   UNL     1      32.679  -4.764 -25.779  0.00  0.00    +0.002 C 
ATOM     13  C   UNL     1      33.353  -6.102 -26.080  0.00  0.00    +0.002 C 
ATOM     14  C   UNL     1      34.502  -6.454 -25.127  0.00  0.00    +0.021 C 
ATOM     15  C   UNL     1      34.249  -9.743 -24.233  0.00  0.00    +0.241 C 
ATOM     16  C   UNL     1      35.170  -7.783 -25.493  0.00  0.00    +0.089 C 
ATOM     17  C   UNL     1      32.346  -8.343 -20.386  0.00  0.00    +0.001 C 
ATOM     18  C   UNL     1      31.570  -5.727 -21.090  0.00  0.00    +0.015 C 
ATOM     19  C   UNL     1      32.376  -7.311 -19.442  0.00  0.00    +0.000 C 
ATOM     20  C   UNL     1      31.990  -6.021 -19.792  0.00  0.00    +0.001 C 
ATOM     21  H   UNL     1      33.583  -9.053 -26.037  0.00  0.00    +0.149 HD
ENDROOT
BRANCH   4  23
ATOM     22  O   UNL     1      31.921 -12.787 -22.642  0.00  0.00    -0.275 OA
ATOM     23  N   UNL     1      33.518 -12.002 -24.129  0.00  0.00    -0.298 N 
ATOM     24  C   UNL     1      32.917 -12.971 -23.341  0.00  0.00    +0.223 C 
ATOM     25  H   UNL     1      34.314 -12.247 -24.654  0.00  0.00    +0.150 HD
BRANCH  24  26
ATOM     26  C   UNL     1      33.597 -14.339 -23.399  0.00  0.00    +0.086 C 
BRANCH  26  27
ATOM     27  C   UNL     1      34.612 -14.539 -22.257  0.00  0.00    +0.010 C 
BRANCH  27  28
ATOM     28  C   UNL     1      34.190 -15.558 -21.178  0.00  0.00    +0.000 C 
ATOM     29  C   UNL     1      34.723 -16.963 -21.458  0.00  0.00    +0.000 C 
ATOM     30  C   UNL     1      32.662 -15.599 -21.077  0.00  0.00    +0.000 C 
ENDBRANCH  27  28
ENDBRANCH  26  27
BRANCH  26  31
ATOM     31  C   UNL     1      34.260 -14.539 -24.774  0.00  0.00    +0.096 C 
BRANCH  31  34
ATOM     32  O   UNL     1      32.932 -15.791 -26.335  0.00  0.00    -0.273 OA
ATOM     33  N   UNL     1      34.384 -16.938 -24.948  0.00  0.00    -0.197 N 
ATOM     34  C   UNL     1      33.783 -15.811 -25.447  0.00  0.00    +0.245 C 
ATOM     35  H   UNL     1      35.061 -16.897 -24.234  0.00  0.00    +0.182 HD
BRANCH  33  36
ATOM     36  O   UNL     1      33.974 -18.151 -25.515  0.00  0.00    -0.295 OA
ATOM     37  H   UNL     1      34.737 -18.744 -25.600  0.00  0.00    +0.241 HD
ENDBRANCH  33  36
ENDBRANCH  31  34
ENDBRANCH  26  31
ENDBRANCH  24  26
ENDBRANCH   4  23
TORSDOF 7
ENDMDL
MODEL 2
REMARK VINA RESULT:      -7.6      1.487      2.387
REMARK  Name = 478379
REMARK  7 active torsions:
REMARK  status: ('A' for Active; 'I' for Inactive)
REMARK    1  A    between atoms: C_4  and  N_23
REMARK    2  A    between atoms: C_24  and  C_26
REMARK    3  A    between atoms: C_26  and  C_27
REMARK    4  A    between atoms: C_26  and  C_31
REMARK    5  A    between atoms: C_27  and  C_28
REMARK    6  A    between atoms: C_31  and  C_34
REMARK    7  A    between atoms: N_33  and  O_36
REMARK                            x       y       z     vdW  Elec       q    Type
REMARK                         _______ _______ _______ _____ _____    ______ ____
ROOT
ATOM      1  O   UNL     1      35.297  -9.533 -23.379  0.00  0.00    -0.273 OA
ATOM      2  N   UNL     1      31.216  -6.804 -23.481  0.00  0.00    -0.286 N 
ATOM      3  N   UNL     1      34.410  -8.737 -25.377  0.00  0.00    -0.303 N 
ATOM      4  C   UNL     1      33.292 -10.563 -24.257  0.00  0.00    +0.153 C 
ATOM      5  C   UNL     1      32.338 -10.295 -23.083  0.00  0.00    +0.057 C 
ATOM      6  C   UNL     1      31.900  -8.866 -22.962  0.00  0.00    -0.004 C 
ATOM      7  C   UNL     1      30.776  -5.667 -24.276  0.00  0.00    +0.096 C 
ATOM      8  C   UNL     1      31.982  -8.043 -21.790  0.00  0.00    +0.011 C 
ATOM      9  C   UNL     1      31.527  -6.767 -22.137  0.00  0.00    +0.051 C 
ATOM     10  C   UNL     1      31.872  -4.620 -24.530  0.00  0.00    +0.022 C 
ATOM     11  C   UNL     1      31.353  -8.080 -23.959  0.00  0.00    +0.061 C 
ATOM     12  C   UNL     1      32.575  -4.726 -25.889  0.00  0.00    +0.002 C 
ATOM     13  C   UNL     1      33.341  -6.019 -26.168  0.00  0.00    +0.002 C 
ATOM     14  C   UNL     1      34.498  -6.284 -25.196  0.00  0.00    +0.021 C 
ATOM     15  C   UNL     1      34.454  -9.575 -24.272  0.00  0.00    +0.241 C 
ATOM     16  C   UNL     1      35.258  -7.569 -25.540  0.00  0.00    +0.089 C 
ATOM     17  C   UNL     1      32.411  -8.270 -20.464  0.00  0.00    +0.001 C 
ATOM     18  C   UNL     1      31.470  -5.718 -21.205  0.00  0.00    +0.015 C 
ATOM     19  C   UNL     1      32.358  -7.229 -19.531  0.00  0.00    +0.000 C 
ATOM     20  C   UNL     1      31.892  -5.972 -19.898  0.00  0.00    +0.001 C 
ATOM     21  H   UNL     1      33.768  -8.947 -26.092  0.00  0.00    +0.149 HD
ENDROOT
BRANCH   4  23
ATOM     22  O   UNL     1      32.488 -12.659 -22.469  0.00  0.00    -0.275 OA
ATOM     23  N   UNL     1      33.874 -11.877 -24.155  0.00  0.00    -0.298 N 
ATOM     24  C   UNL     1      33.417 -12.829 -23.258  0.00  0.00    +0.223 C 
ATOM     25  H   UNL     1      34.626 -12.108 -24.747  0.00  0.00    +0.150 HD
BRANCH  24  26
ATOM     26  C   UNL     1      34.170 -14.158 -23.314  0.00  0.00    +0.086 C 
BRANCH  26  27
ATOM     27  C   UNL     1      33.367 -15.257 -24.036  0.00  0.00    +0.010 C 
BRANCH  27  28
ATOM     28  C   UNL     1      33.907 -15.653 -25.428  0.00  0.00    +0.000 C 
ATOM     29  C   UNL     1      32.948 -15.277 -26.557  0.00  0.00    +0.000 C 
ATOM     30  C   UNL     1      34.179 -17.160 -25.464  0.00  0.00    +0.000 C 
ENDBRANCH  27  28
ENDBRANCH  26  27
BRANCH  26  31
ATOM     31  C   UNL     1      34.563 -14.601 -21.893  0.00  0.00    +0.096 C 
BRANCH  31  34
ATOM     32  O   UNL     1      34.117 -16.914 -21.424  0.00  0.00    -0.273 OA
ATOM     33  N   UNL     1      32.465 -15.357 -20.985  0.00  0.00    -0.197 N 
ATOM     34  C   UNL     1      33.707 -15.754 -21.408  0.00  0.00    +0.245 C 
ATOM     35  H   UNL     1      32.187 -14.412 -20.994  0.00  0.00    +0.182 HD
BRANCH  33  36
ATOM     36  O   UNL     1      31.615 -16.377 -20.540  0.00  0.00    -0.295 OA
ATOM     37  H   UNL     1      30.983 -16.601 -21.240  0.00  0.00    +0.241 HD
ENDBRANCH  33  36
ENDBRANCH  31  34
ENDBRANCH  26  31
ENDBRANCH  24  26
ENDBRANCH   4  23
TORSDOF 7
ENDMDL
MODEL 3
REMARK VINA RESULT:      -7.3      3.431      6.901
REMARK  Name = 478379
REMARK  7 active torsions:
REMARK  status: ('A' for Active; 'I' for Inactive)
REMARK    1  A    between atoms: C_4  and  N_23
REMARK    2  A    between atoms: C_24  and  C_26
REMARK    3  A    between atoms: C_26  and  C_27
REMARK    4  A    between atoms: C_26  and  C_31
REMARK    5  A    between atoms: C_27  and  C_28
REMARK    6  A    between atoms: C_31  and  C_34
REMARK    7  A    between atoms: N_33  and  O_36
REMARK                            x       y       z     vdW  Elec       q    Type
REMARK                         _______ _______ _______ _____ _____    ______ ____
ROOT
ATOM      1  O   UNL     1      31.842 -15.524 -21.749  0.00  0.00    -0.273 OA
ATOM      2  N   UNL     1      34.108 -11.952 -24.243  0.00  0.00    -0.286 N 
ATOM      3  N   UNL     1      32.646 -13.616 -20.690  0.00  0.00    -0.303 N 
ATOM      4  C   UNL     1      34.228 -15.285 -21.430  0.00  0.00    +0.153 C 
ATOM      5  C   UNL     1      34.684 -15.336 -22.895  0.00  0.00    +0.057 C 
ATOM      6  C   UNL     1      34.371 -14.097 -23.679  0.00  0.00    -0.004 C 
ATOM      7  C   UNL     1      34.121 -10.500 -24.148  0.00  0.00    +0.096 C 
ATOM      8  C   UNL     1      33.678 -14.031 -24.933  0.00  0.00    +0.011 C 
ATOM      9  C   UNL     1      33.546 -12.680 -25.272  0.00  0.00    +0.051 C 
ATOM     10  C   UNL     1      32.743  -9.879 -23.873  0.00  0.00    +0.022 C 
ATOM     11  C   UNL     1      34.681 -12.796 -23.330  0.00  0.00    +0.061 C 
ATOM     12  C   UNL     1      32.465  -9.525 -22.407  0.00  0.00    +0.002 C 
ATOM     13  C   UNL     1      32.464 -10.682 -21.408  0.00  0.00    +0.002 C 
ATOM     14  C   UNL     1      31.392 -11.744 -21.681  0.00  0.00    +0.021 C 
ATOM     15  C   UNL     1      32.771 -14.850 -21.310  0.00  0.00    +0.241 C 
ATOM     16  C   UNL     1      31.406 -12.861 -20.633  0.00  0.00    +0.089 C 
ATOM     17  C   UNL     1      33.141 -15.001 -25.807  0.00  0.00    +0.001 C 
ATOM     18  C   UNL     1      32.916 -12.269 -26.458  0.00  0.00    +0.015 C 
ATOM     19  C   UNL     1      32.511 -14.598 -26.989  0.00  0.00    +0.000 C 
ATOM     20  C   UNL     1      32.403 -13.249 -27.309  0.00  0.00    +0.001 C 
ATOM     21  H   UNL     1      33.443 -13.229 -20.263  0.00  0.00    +0.149 HD
ENDROOT
BRANCH   4  23
ATOM     22  O   UNL     1      35.639 -17.565 -22.453  0.00  0.00    -0.275 OA
ATOM     23  N   UNL     1      34.317 -16.586 -20.819  0.00  0.00    -0.298 N 
ATOM     24  C   UNL     1      35.025 -17.632 -21.389  0.00  0.00    +0.223 C 
ATOM     25  H   UNL     1      33.857 -16.739 -19.962  0.00  0.00    +0.150 HD
BRANCH  24  26
ATOM     26  C   UNL     1      34.995 -18.928 -20.577  0.00  0.00    +0.086 C 
BRANCH  26  27
ATOM     27  C   UNL     1      36.393 -19.560 -20.430  0.00  0.00    +0.010 C 
BRANCH  27  28
ATOM     28  C   UNL     1      36.411 -20.966 -19.792  0.00  0.00    +0.000 C 
ATOM     29  C   UNL     1      36.872 -20.943 -18.335  0.00  0.00    +0.000 C 
ATOM     30  C   UNL     1      37.323 -21.889 -20.605  0.00  0.00    +0.000 C 
ENDBRANCH  27  28
ENDBRANCH  26  27
BRANCH  26  31
ATOM     31  C   UNL     1      34.000 -19.920 -21.205  0.00  0.00    +0.096 C 
BRANCH  31  34
ATOM     32  O   UNL     1      31.972 -19.788 -19.927  0.00  0.00    -0.273 OA
ATOM     33  N   UNL     1      33.358 -21.612 -19.616  0.00  0.00    -0.197 N 
ATOM     34  C   UNL     1      32.992 -20.422 -20.190  0.00  0.00    +0.245 C 
ATOM     35  H   UNL     1      34.189 -22.078 -19.863  0.00  0.00    +0.182 HD
BRANCH  33  36
ATOM     36  O   UNL     1      32.477 -22.123 -18.654  0.00  0.00    -0.295 OA
ATOM     37  H   UNL     1      31.877 -21.421 -18.359  0.00  0.00    +0.241 HD
ENDBRANCH  33  36
ENDBRANCH  31  34
ENDBRANCH  26  31
ENDBRANCH  24  26
ENDBRANCH   4  23
TORSDOF 7
ENDMDL
MODEL 4
REMARK VINA RESULT:      -6.5      4.526      8.388
REMARK  Name = 478379
REMARK  7 active torsions:
REMARK  status: ('A' for Active; 'I' for Inactive)
REMARK    1  A    between atoms: C_4  and  N_23
REMARK    2  A    between atoms: C_24  and  C_26
REMARK    3  A    between atoms: C_26  and  C_27
REMARK    4  A    between atoms: C_26  and  C_31
REMARK    5  A    between atoms: C_27  and  C_28
REMARK    6  A    between atoms: C_31  and  C_34
REMARK    7  A    between atoms: N_33  and  O_36
REMARK                            x       y       z     vdW  Elec       q    Type
REMARK                         _______ _______ _______ _____ _____    ______ ____
ROOT
ATOM      1  O   UNL     1      32.924 -17.601 -21.228  0.00  0.00    -0.273 OA
ATOM      2  N   UNL     1      34.061 -13.543 -23.750  0.00  0.00    -0.286 N 
ATOM      3  N   UNL     1      33.382 -15.587 -20.159  0.00  0.00    -0.303 N 
ATOM      4  C   UNL     1      35.215 -16.830 -21.123  0.00  0.00    +0.153 C 
ATOM      5  C   UNL     1      35.519 -16.739 -22.625  0.00  0.00    +0.057 C 
ATOM      6  C   UNL     1      34.857 -15.585 -23.316  0.00  0.00    -0.004 C 
ATOM      7  C   UNL     1      33.756 -12.130 -23.587  0.00  0.00    +0.096 C 
ATOM      8  C   UNL     1      34.042 -15.647 -24.495  0.00  0.00    +0.011 C 
ATOM      9  C   UNL     1      33.576 -14.355 -24.755  0.00  0.00    +0.051 C 
ATOM     10  C   UNL     1      32.309 -11.848 -23.155  0.00  0.00    +0.022 C 
ATOM     11  C   UNL     1      34.900 -14.257 -22.936  0.00  0.00    +0.061 C 
ATOM     12  C   UNL     1      32.110 -11.604 -21.654  0.00  0.00    +0.002 C 
ATOM     13  C   UNL     1      32.472 -12.755 -20.716  0.00  0.00    +0.002 C 
ATOM     14  C   UNL     1      31.644 -14.028 -20.938  0.00  0.00    +0.021 C 
ATOM     15  C   UNL     1      33.718 -16.743 -20.846  0.00  0.00    +0.241 C 
ATOM     16  C   UNL     1      32.016 -15.138 -19.950  0.00  0.00    +0.089 C 
ATOM     17  C   UNL     1      33.652 -16.693 -25.360  0.00  0.00    +0.001 C 
ATOM     18  C   UNL     1      32.751 -14.068 -25.856  0.00  0.00    +0.015 C 
ATOM     19  C   UNL     1      32.829 -16.415 -26.457  0.00  0.00    +0.000 C 
ATOM     20  C   UNL     1      32.388 -15.119 -26.701  0.00  0.00    +0.001 C 
ATOM     21  H   UNL     1      34.111 -15.039 -19.790  0.00  0.00    +0.149 HD
ENDROOT
BRANCH   4  23
ATOM     22  O   UNL     1      35.224 -19.360 -22.478  0.00  0.00    -0.275 OA
ATOM     23  N   UNL     1      35.657 -18.092 -20.586  0.00  0.00    -0.298 N 
ATOM     24  C   UNL     1      35.625 -19.268 -21.318  0.00  0.00    +0.223 C 
ATOM     25  H   UNL     1      35.996 -18.120 -19.662  0.00  0.00    +0.150 HD
BRANCH  24  26
ATOM     26  C   UNL     1      36.142 -20.493 -20.563  0.00  0.00    +0.086 C 
BRANCH  26  27
ATOM     27  C   UNL     1      35.045 -21.555 -20.348  0.00  0.00    +0.010 C 
BRANCH  27  28
ATOM     28  C   UNL     1      33.821 -21.075 -19.539  0.00  0.00    +0.000 C 
ATOM     29  C   UNL     1      33.298 -22.143 -18.578  0.00  0.00    +0.000 C 
ATOM     30  C   UNL     1      32.703 -20.655 -20.497  0.00  0.00    +0.000 C 
ENDBRANCH  27  28
ENDBRANCH  26  27
BRANCH  26  31
ATOM     31  C   UNL     1      36.767 -20.062 -19.224  0.00  0.00    +0.096 C 
BRANCH  31  34
ATOM     32  O   UNL     1      36.887 -22.399 -18.687  0.00  0.00    -0.273 OA
ATOM     33  N   UNL     1      37.174 -20.858 -16.988  0.00  0.00    -0.197 N 
ATOM     34  C   UNL     1      36.952 -21.239 -18.287  0.00  0.00    +0.245 C 
ATOM     35  H   UNL     1      37.216 -19.911 -16.721  0.00  0.00    +0.182 HD
BRANCH  33  36
ATOM     36  O   UNL     1      37.336 -21.899 -16.066  0.00  0.00    -0.295 OA
ATOM     37  H   UNL     1      37.222 -21.555 -15.166  0.00  0.00    +0.241 HD
ENDBRANCH  33  36
ENDBRANCH  31  34
ENDBRANCH  26  31
ENDBRANCH  24  26
ENDBRANCH   4  23
TORSDOF 7
ENDMDL
MODEL 5
REMARK VINA RESULT:      -6.3      2.088      8.997
REMARK  Name = 478379
REMARK  7 active torsions:
REMARK  status: ('A' for Active; 'I' for Inactive)
REMARK    1  A    between atoms: C_4  and  N_23
REMARK    2  A    between atoms: C_24  and  C_26
REMARK    3  A    between atoms: C_26  and  C_27
REMARK    4  A    between atoms: C_26  and  C_31
REMARK    5  A    between atoms: C_27  and  C_28
REMARK    6  A    between atoms: C_31  and  C_34
REMARK    7  A    between atoms: N_33  and  O_36
REMARK                            x       y       z     vdW  Elec       q    Type
REMARK                         _______ _______ _______ _____ _____    ______ ____
ROOT
ATOM      1  O   UNL     1      31.465 -13.424 -24.120  0.00  0.00    -0.273 OA
ATOM      2  N   UNL     1      34.799 -16.607 -22.427  0.00  0.00    -0.286 N 
ATOM      3  N   UNL     1      33.415 -13.891 -25.298  0.00  0.00    -0.303 N 
ATOM      4  C   UNL     1      33.558 -12.519 -23.315  0.00  0.00    +0.153 C 
ATOM      5  C   UNL     1      33.589 -13.160 -21.919  0.00  0.00    +0.057 C 
ATOM      6  C   UNL     1      33.891 -14.628 -21.925  0.00  0.00    -0.004 C 
ATOM      7  C   UNL     1      35.662 -17.598 -23.050  0.00  0.00    +0.096 C 
ATOM      8  C   UNL     1      33.123 -15.662 -21.295  0.00  0.00    +0.011 C 
ATOM      9  C   UNL     1      33.724 -16.885 -21.607  0.00  0.00    +0.051 C 
ATOM     10  C   UNL     1      34.983 -18.405 -24.168  0.00  0.00    +0.022 C 
ATOM     11  C   UNL     1      34.956 -15.252 -22.548  0.00  0.00    +0.061 C 
ATOM     12  C   UNL     1      35.268 -17.915 -25.593  0.00  0.00    +0.002 C 
ATOM     13  C   UNL     1      34.808 -16.499 -25.939  0.00  0.00    +0.002 C 
ATOM     14  C   UNL     1      33.292 -16.290 -25.834  0.00  0.00    +0.021 C 
ATOM     15  C   UNL     1      32.678 -13.310 -24.277  0.00  0.00    +0.241 C 
ATOM     16  C   UNL     1      32.877 -14.868 -26.228  0.00  0.00    +0.089 C 
ATOM     17  C   UNL     1      31.960 -15.666 -20.493  0.00  0.00    +0.001 C 
ATOM     18  C   UNL     1      33.217 -18.106 -21.132  0.00  0.00    +0.015 C 
ATOM     19  C   UNL     1      31.449 -16.879 -20.019  0.00  0.00    +0.000 C 
ATOM     20  C   UNL     1      32.072 -18.081 -20.333  0.00  0.00    +0.001 C 
ATOM     21  H   UNL     1      34.357 -13.625 -25.398  0.00  0.00    +0.149 HD
ENDROOT
BRANCH   4  23
ATOM     22  O   UNL     1      34.906 -10.075 -23.984  0.00  0.00    -0.275 OA
ATOM     23  N   UNL     1      33.007 -11.189 -23.256  0.00  0.00    -0.298 N 
ATOM     24  C   UNL     1      33.737 -10.062 -23.601  0.00  0.00    +0.223 C 
ATOM     25  H   UNL     1      32.075 -11.076 -22.960  0.00  0.00    +0.150 HD
BRANCH  24  26
ATOM     26  C   UNL     1      32.964  -8.749 -23.471  0.00  0.00    +0.086 C 
BRANCH  26  27
ATOM     27  C   UNL     1      33.895  -7.538 -23.272  0.00  0.00    +0.010 C 
BRANCH  27  28
ATOM     28  C   UNL     1      33.667  -6.369 -24.255  0.00  0.00    +0.000 C 
ATOM     29  C   UNL     1      32.235  -6.323 -24.789  0.00  0.00    +0.000 C 
ATOM     30  C   UNL     1      34.649  -6.480 -25.424  0.00  0.00    +0.000 C 
ENDBRANCH  27  28
ENDBRANCH  26  27
BRANCH  26  31
ATOM     31  C   UNL     1      31.936  -8.853 -22.330  0.00  0.00    +0.096 C 
BRANCH  31  34
ATOM     32  O   UNL     1      31.510  -6.663 -21.442  0.00  0.00    -0.273 OA
ATOM     33  N   UNL     1      32.976  -8.049 -20.312  0.00  0.00    -0.197 N 
ATOM     34  C   UNL     1      32.103  -7.734 -21.322  0.00  0.00    +0.245 C 
ATOM     35  H   UNL     1      33.425  -8.924 -20.264  0.00  0.00    +0.182 HD
BRANCH  33  36
ATOM     36  O   UNL     1      33.189  -7.050 -19.354  0.00  0.00    -0.295 OA
ATOM     37  H   UNL     1      32.797  -7.321 -18.510  0.00  0.00    +0.241 HD
ENDBRANCH  33  36
ENDBRANCH  31  34
ENDBRANCH  26  31
ENDBRANCH  24  26
ENDBRANCH   4  23
TORSDOF 7
ENDMDL
MODEL 6
REMARK VINA RESULT:      -6.3      1.894      2.766
REMARK  Name = 478379
REMARK  7 active torsions:
REMARK  status: ('A' for Active; 'I' for Inactive)
REMARK    1  A    between atoms: C_4  and  N_23
REMARK    2  A    between atoms: C_24  and  C_26
REMARK    3  A    between atoms: C_26  and  C_27
REMARK    4  A    between atoms: C_26  and  C_31
REMARK    5  A    between atoms: C_27  and  C_28
REMARK    6  A    between atoms: C_31  and  C_34
REMARK    7  A    between atoms: N_33  and  O_36
REMARK                            x       y       z     vdW  Elec       q    Type
REMARK                         _______ _______ _______ _____ _____    ______ ____
ROOT
ATOM      1  O   UNL     1      34.897 -12.556 -22.528  0.00  0.00    -0.273 OA
ATOM      2  N   UNL     1      31.378  -9.131 -22.571  0.00  0.00    -0.286 N 
ATOM      3  N   UNL     1      34.312 -11.431 -24.478  0.00  0.00    -0.303 N 
ATOM      4  C   UNL     1      32.811 -13.117 -23.617  0.00  0.00    +0.153 C 
ATOM      5  C   UNL     1      31.836 -12.790 -22.477  0.00  0.00    +0.057 C 
ATOM      6  C   UNL     1      31.649 -11.323 -22.232  0.00  0.00    -0.004 C 
ATOM      7  C   UNL     1      31.205  -7.865 -23.266  0.00  0.00    +0.096 C 
ATOM      8  C   UNL     1      31.788 -10.640 -20.978  0.00  0.00    +0.011 C 
ATOM      9  C   UNL     1      31.592  -9.276 -21.215  0.00  0.00    +0.051 C 
ATOM     10  C   UNL     1      32.483  -7.016 -23.349  0.00  0.00    +0.022 C 
ATOM     11  C   UNL     1      31.323 -10.361 -23.170  0.00  0.00    +0.061 C 
ATOM     12  C   UNL     1      33.254  -7.123 -24.670  0.00  0.00    +0.002 C 
ATOM     13  C   UNL     1      33.799  -8.502 -25.039  0.00  0.00    +0.002 C 
ATOM     14  C   UNL     1      34.817  -9.063 -24.038  0.00  0.00    +0.021 C 
ATOM     15  C   UNL     1      34.127 -12.361 -23.466  0.00  0.00    +0.241 C 
ATOM     16  C   UNL     1      35.362 -10.427 -24.471  0.00  0.00    +0.089 C 
ATOM     17  C   UNL     1      32.072 -11.063 -19.661  0.00  0.00    +0.001 C 
ATOM     18  C   UNL     1      31.652  -8.325 -20.183  0.00  0.00    +0.015 C 
ATOM     19  C   UNL     1      32.136 -10.121 -18.629  0.00  0.00    +0.000 C 
ATOM     20  C   UNL     1      31.926  -8.771 -18.889  0.00  0.00    +0.001 C 
ATOM     21  H   UNL     1      33.696 -11.453 -25.245  0.00  0.00    +0.149 HD
ENDROOT
BRANCH   4  23
ATOM     22  O   UNL     1      33.311 -14.765 -21.321  0.00  0.00    -0.275 OA
ATOM     23  N   UNL     1      33.143 -14.519 -23.621  0.00  0.00    -0.298 N 
ATOM     24  C   UNL     1      33.368 -15.236 -22.456  0.00  0.00    +0.223 C 
ATOM     25  H   UNL     1      33.213 -14.986 -24.484  0.00  0.00    +0.150 HD
BRANCH  24  26
ATOM     26  C   UNL     1      33.705 -16.711 -22.682  0.00  0.00    +0.086 C 
BRANCH  26  27
ATOM     27  C   UNL     1      34.047 -17.442 -21.369  0.00  0.00    +0.010 C 
BRANCH  27  28
ATOM     28  C   UNL     1      34.075 -18.982 -21.466  0.00  0.00    +0.000 C 
ATOM     29  C   UNL     1      32.947 -19.641 -20.672  0.00  0.00    +0.000 C 
ATOM     30  C   UNL     1      35.426 -19.506 -20.971  0.00  0.00    +0.000 C 
ENDBRANCH  27  28
ENDBRANCH  26  27
BRANCH  26  31
ATOM     31  C   UNL     1      34.848 -16.840 -23.704  0.00  0.00    +0.096 C 
BRANCH  31  34
ATOM     32  O   UNL     1      33.918 -17.543 -25.803  0.00  0.00    -0.273 OA
ATOM     33  N   UNL     1      34.964 -19.119 -24.474  0.00  0.00    -0.197 N 
ATOM     34  C   UNL     1      34.526 -17.857 -24.781  0.00  0.00    +0.245 C 
ATOM     35  H   UNL     1      35.447 -19.316 -23.638  0.00  0.00    +0.182 HD
BRANCH  33  36
ATOM     36  O   UNL     1      34.682 -20.112 -25.421  0.00  0.00    -0.295 OA
ATOM     37  H   UNL     1      35.049 -20.958 -25.123  0.00  0.00    +0.241 HD
ENDBRANCH  33  36
ENDBRANCH  31  34
ENDBRANCH  26  31
ENDBRANCH  24  26
ENDBRANCH   4  23
TORSDOF 7
ENDMDL
MODEL 7
REMARK VINA RESULT:      -5.8      3.570      7.129
REMARK  Name = 478379
REMARK  7 active torsions:
REMARK  status: ('A' for Active; 'I' for Inactive)
REMARK    1  A    between atoms: C_4  and  N_23
REMARK    2  A    between atoms: C_24  and  C_26
REMARK    3  A    between atoms: C_26  and  C_27
REMARK    4  A    between atoms: C_26  and  C_31
REMARK    5  A    between atoms: C_27  and  C_28
REMARK    6  A    between atoms: C_31  and  C_34
REMARK    7  A    between atoms: N_33  and  O_36
REMARK                            x       y       z     vdW  Elec       q    Type
REMARK                         _______ _______ _______ _____ _____    ______ ____
ROOT
ATOM      1  O   UNL     1      32.100 -15.948 -21.887  0.00  0.00    -0.273 OA
ATOM      2  N   UNL     1      34.055 -12.104 -24.236  0.00  0.00    -0.286 N 
ATOM      3  N   UNL     1      32.905 -14.094 -20.735  0.00  0.00    -0.303 N 
ATOM      4  C   UNL     1      34.492 -15.634 -21.708  0.00  0.00    +0.153 C 
ATOM      5  C   UNL     1      34.847 -15.555 -23.201  0.00  0.00    +0.057 C 
ATOM      6  C   UNL     1      34.435 -14.274 -23.861  0.00  0.00    -0.004 C 
ATOM      7  C   UNL     1      34.022 -10.664 -24.027  0.00  0.00    +0.096 C 
ATOM      8  C   UNL     1      33.654 -14.141 -25.057  0.00  0.00    +0.011 C 
ATOM      9  C   UNL     1      33.451 -12.775 -25.279  0.00  0.00    +0.051 C 
ATOM     10  C   UNL     1      32.644 -10.124 -23.613  0.00  0.00    +0.022 C 
ATOM     11  C   UNL     1      34.721 -12.991 -23.433  0.00  0.00    +0.061 C 
ATOM     12  C   UNL     1      32.457  -9.895 -22.108  0.00  0.00    +0.002 C 
ATOM     13  C   UNL     1      32.567 -11.124 -21.206  0.00  0.00    +0.002 C 
ATOM     14  C   UNL     1      31.518 -12.206 -21.490  0.00  0.00    +0.021 C 
ATOM     15  C   UNL     1      33.032 -15.271 -21.458  0.00  0.00    +0.241 C 
ATOM     16  C   UNL     1      31.646 -13.399 -20.536  0.00  0.00    +0.089 C 
ATOM     17  C   UNL     1      33.094 -15.063 -25.967  0.00  0.00    +0.001 C 
ATOM     18  C   UNL     1      32.725 -12.301 -26.385  0.00  0.00    +0.015 C 
ATOM     19  C   UNL     1      32.369 -14.598 -27.069  0.00  0.00    +0.000 C 
ATOM     20  C   UNL     1      32.190 -13.234 -27.274  0.00  0.00    +0.001 C 
ATOM     21  H   UNL     1      33.716 -13.708 -20.333  0.00  0.00    +0.149 HD
ENDROOT
BRANCH   4  23
ATOM     22  O   UNL     1      36.144 -17.682 -22.853  0.00  0.00    -0.275 OA
ATOM     23  N   UNL     1      34.671 -16.974 -21.209  0.00  0.00    -0.298 N 
ATOM     24  C   UNL     1      35.494 -17.899 -21.832  0.00  0.00    +0.223 C 
ATOM     25  H   UNL     1      34.190 -17.242 -20.393  0.00  0.00    +0.150 HD
BRANCH  24  26
ATOM     26  C   UNL     1      35.546 -19.261 -21.138  0.00  0.00    +0.086 C 
BRANCH  26  27
ATOM     27  C   UNL     1      34.390 -19.453 -20.137  0.00  0.00    +0.010 C 
BRANCH  27  28
ATOM     28  C   UNL     1      33.309 -20.466 -20.572  0.00  0.00    +0.000 C 
ATOM     29  C   UNL     1      32.005 -19.789 -20.993  0.00  0.00    +0.000 C 
ATOM     30  C   UNL     1      33.034 -21.448 -19.429  0.00  0.00    +0.000 C 
ENDBRANCH  27  28
ENDBRANCH  26  27
BRANCH  26  31
ATOM     31  C   UNL     1      36.911 -19.452 -20.454  0.00  0.00    +0.096 C 
BRANCH  31  34
ATOM     32  O   UNL     1      36.833 -21.832 -20.138  0.00  0.00    -0.273 OA
ATOM     33  N   UNL     1      37.105 -20.478 -18.283  0.00  0.00    -0.197 N 
ATOM     34  C   UNL     1      36.949 -20.721 -19.624  0.00  0.00    +0.245 C 
ATOM     35  H   UNL     1      37.193 -19.566 -17.924  0.00  0.00    +0.182 HD
BRANCH  33  36
ATOM     36  O   UNL     1      37.131 -21.609 -17.457  0.00  0.00    -0.295 OA
ATOM     37  H   UNL     1      37.450 -22.372 -17.962  0.00  0.00    +0.241 HD
ENDBRANCH  33  36
ENDBRANCH  31  34
ENDBRANCH  26  31
ENDBRANCH  24  26
ENDBRANCH   4  23
TORSDOF 7
ENDMDL
MODEL 8
REMARK VINA RESULT:      -5.5     13.199     16.241
REMARK  Name = 478379
REMARK  7 active torsions:
REMARK  status: ('A' for Active; 'I' for Inactive)
REMARK    1  A    between atoms: C_4  and  N_23
REMARK    2  A    between atoms: C_24  and  C_26
REMARK    3  A    between atoms: C_26  and  C_27
REMARK    4  A    between atoms: C_26  and  C_31
REMARK    5  A    between atoms: C_27  and  C_28
REMARK    6  A    between atoms: C_31  and  C_34
REMARK    7  A    between atoms: N_33  and  O_36
REMARK                            x       y       z     vdW  Elec       q    Type
REMARK                         _______ _______ _______ _____ _____    ______ ____
ROOT
ATOM      1  O   UNL     1      33.070 -24.499 -18.162  0.00  0.00    -0.273 OA
ATOM      2  N   UNL     1      36.611 -22.660 -15.300  0.00  0.00    -0.286 N 
ATOM      3  N   UNL     1      33.637 -22.244 -18.218  0.00  0.00    -0.303 N 
ATOM      4  C   UNL     1      32.390 -23.080 -16.324  0.00  0.00    +0.153 C 
ATOM      5  C   UNL     1      33.106 -23.802 -15.173  0.00  0.00    +0.057 C 
ATOM      6  C   UNL     1      34.592 -23.606 -15.155  0.00  0.00    -0.004 C 
ATOM      7  C   UNL     1      37.637 -21.644 -15.482  0.00  0.00    +0.096 C 
ATOM      8  C   UNL     1      35.590 -24.635 -15.102  0.00  0.00    +0.011 C 
ATOM      9  C   UNL     1      36.841 -24.015 -15.172  0.00  0.00    +0.051 C 
ATOM     10  C   UNL     1      38.321 -21.686 -16.857  0.00  0.00    +0.022 C 
ATOM     11  C   UNL     1      35.270 -22.402 -15.201  0.00  0.00    +0.061 C 
ATOM     12  C   UNL     1      37.782 -20.687 -17.887  0.00  0.00    +0.002 C 
ATOM     13  C   UNL     1      36.315 -20.838 -18.290  0.00  0.00    +0.002 C 
ATOM     14  C   UNL     1      35.984 -22.181 -18.955  0.00  0.00    +0.021 C 
ATOM     15  C   UNL     1      33.051 -23.374 -17.667  0.00  0.00    +0.241 C 
ATOM     16  C   UNL     1      34.513 -22.269 -19.376  0.00  0.00    +0.089 C 
ATOM     17  C   UNL     1      35.539 -26.043 -15.009  0.00  0.00    +0.001 C 
ATOM     18  C   UNL     1      38.039 -24.748 -15.134  0.00  0.00    +0.015 C 
ATOM     19  C   UNL     1      36.727 -26.780 -14.972  0.00  0.00    +0.000 C 
ATOM     20  C   UNL     1      37.960 -26.138 -15.032  0.00  0.00    +0.001 C 
ATOM     21  H   UNL     1      33.446 -21.373 -17.799  0.00  0.00    +0.149 HD
ENDROOT
BRANCH   4  23
ATOM     22  O   UNL     1      30.147 -22.106 -14.823  0.00  0.00    -0.275 OA
ATOM     23  N   UNL     1      31.024 -23.522 -16.436  0.00  0.00    -0.298 N 
ATOM     24  C   UNL     1      30.002 -22.991 -15.666  0.00  0.00    +0.223 C 
ATOM     25  H   UNL     1      30.807 -24.230 -17.086  0.00  0.00    +0.150 HD
BRANCH  24  26
ATOM     26  C   UNL     1      28.626 -23.597 -15.943  0.00  0.00    +0.086 C 
BRANCH  26  27
ATOM     27  C   UNL     1      27.483 -22.589 -15.713  0.00  0.00    +0.010 C 
BRANCH  27  28
ATOM     28  C   UNL     1      27.054 -21.792 -16.963  0.00  0.00    +0.000 C 
ATOM     29  C   UNL     1      25.623 -21.263 -16.859  0.00  0.00    +0.000 C 
ATOM     30  C   UNL     1      27.186 -22.674 -18.208  0.00  0.00    +0.000 C 
ENDBRANCH  27  28
ENDBRANCH  26  27
BRANCH  26  31
ATOM     31  C   UNL     1      28.427 -24.865 -15.091  0.00  0.00    +0.096 C 
BRANCH  31  34
ATOM     32  O   UNL     1      30.436 -26.177 -15.211  0.00  0.00    -0.273 OA
ATOM     33  N   UNL     1      30.043 -24.925 -13.307  0.00  0.00    -0.197 N 
ATOM     34  C   UNL     1      29.744 -25.395 -14.560  0.00  0.00    +0.245 C 
ATOM     35  H   UNL     1      29.452 -24.299 -12.828  0.00  0.00    +0.182 HD
BRANCH  33  36
ATOM     36  O   UNL     1      31.240 -25.391 -12.749  0.00  0.00    -0.295 OA
ATOM     37  H   UNL     1      31.043 -26.015 -12.033  0.00  0.00    +0.241 HD
ENDBRANCH  33  36
ENDBRANCH  31  34
ENDBRANCH  26  31
ENDBRANCH  24  26
ENDBRANCH   4  23
TORSDOF 7
ENDMDL
MODEL 9
REMARK VINA RESULT:      -5.4      2.196      4.245
REMARK  Name = 478379
REMARK  7 active torsions:
REMARK  status: ('A' for Active; 'I' for Inactive)
REMARK    1  A    between atoms: C_4  and  N_23
REMARK    2  A    between atoms: C_24  and  C_26
REMARK    3  A    between atoms: C_26  and  C_27
REMARK    4  A    between atoms: C_26  and  C_31
REMARK    5  A    between atoms: C_27  and  C_28
REMARK    6  A    between atoms: C_31  and  C_34
REMARK    7  A    between atoms: N_33  and  O_36
REMARK                            x       y       z     vdW  Elec       q    Type
REMARK                         _______ _______ _______ _____ _____    ______ ____
ROOT
ATOM      1  O   UNL     1      31.118 -12.106 -23.074  0.00  0.00    -0.273 OA
ATOM      2  N   UNL     1      33.042  -7.792 -21.732  0.00  0.00    -0.286 N 
ATOM      3  N   UNL     1      32.275 -11.855 -21.072  0.00  0.00    -0.303 N 
ATOM      4  C   UNL     1      33.527 -11.895 -23.138  0.00  0.00    +0.153 C 
ATOM      5  C   UNL     1      33.645 -10.633 -24.006  0.00  0.00    +0.057 C 
ATOM      6  C   UNL     1      33.261  -9.366 -23.303  0.00  0.00    -0.004 C 
ATOM      7  C   UNL     1      33.184  -7.097 -20.462  0.00  0.00    +0.096 C 
ATOM      8  C   UNL     1      32.317  -8.388 -23.758  0.00  0.00    +0.011 C 
ATOM      9  C   UNL     1      32.216  -7.405 -22.768  0.00  0.00    +0.051 C 
ATOM     10  C   UNL     1      31.950  -7.198 -19.553  0.00  0.00    +0.022 C 
ATOM     11  C   UNL     1      33.737  -8.918 -22.085  0.00  0.00    +0.061 C 
ATOM     12  C   UNL     1      32.028  -8.272 -18.461  0.00  0.00    +0.002 C 
ATOM     13  C   UNL     1      32.160  -9.721 -18.930  0.00  0.00    +0.002 C 
ATOM     14  C   UNL     1      30.977 -10.217 -19.772  0.00  0.00    +0.021 C 
ATOM     15  C   UNL     1      32.168 -11.977 -22.450  0.00  0.00    +0.241 C 
ATOM     16  C   UNL     1      31.137 -11.684 -20.185  0.00  0.00    +0.089 C 
ATOM     17  C   UNL     1      31.531  -8.255 -24.923  0.00  0.00    +0.001 C 
ATOM     18  C   UNL     1      31.373  -6.290 -22.909  0.00  0.00    +0.015 C 
ATOM     19  C   UNL     1      30.688  -7.148 -25.070  0.00  0.00    +0.000 C 
ATOM     20  C   UNL     1      30.614  -6.178 -24.075  0.00  0.00    +0.001 C 
ATOM     21  H   UNL     1      33.173 -11.888 -20.673  0.00  0.00    +0.149 HD
ENDROOT
BRANCH   4  23
ATOM     22  O   UNL     1      34.000 -14.562 -22.190  0.00  0.00    -0.275 OA
ATOM     23  N   UNL     1      33.650 -13.084 -23.942  0.00  0.00    -0.298 N 
ATOM     24  C   UNL     1      33.879 -14.336 -23.393  0.00  0.00    +0.223 C 
ATOM     25  H   UNL     1      33.567 -13.004 -24.920  0.00  0.00    +0.150 HD
BRANCH  24  26
ATOM     26  C   UNL     1      33.974 -15.464 -24.421  0.00  0.00    +0.086 C 
BRANCH  26  27
ATOM     27  C   UNL     1      35.108 -16.457 -24.099  0.00  0.00    +0.010 C 
BRANCH  27  28
ATOM     28  C   UNL     1      34.645 -17.820 -23.540  0.00  0.00    +0.000 C 
ATOM     29  C   UNL     1      35.602 -18.377 -22.487  0.00  0.00    +0.000 C 
ATOM     30  C   UNL     1      34.502 -18.824 -24.688  0.00  0.00    +0.000 C 
ENDBRANCH  27  28
ENDBRANCH  26  27
BRANCH  26  31
ATOM     31  C   UNL     1      34.135 -14.877 -25.835  0.00  0.00    +0.096 C 
BRANCH  31  34
ATOM     32  O   UNL     1      32.277 -15.970 -26.894  0.00  0.00    -0.273 OA
ATOM     33  N   UNL     1      32.379 -13.660 -26.946  0.00  0.00    -0.197 N 
ATOM     34  C   UNL     1      32.831 -14.910 -26.607  0.00  0.00    +0.245 C 
ATOM     35  H   UNL     1      32.864 -12.842 -26.691  0.00  0.00    +0.182 HD
BRANCH  33  36
ATOM     36  O   UNL     1      31.186 -13.620 -27.678  0.00  0.00    -0.295 OA
ATOM     37  H   UNL     1      30.718 -14.464 -27.582  0.00  0.00    +0.241 HD
ENDBRANCH  33  36
ENDBRANCH  31  34
ENDBRANCH  26  31
ENDBRANCH  24  26
ENDBRANCH   4  23
TORSDOF 7
ENDMDL
