MODEL 1
REMARK VINA RESULT:      -9.5      0.000      0.000
REMARK  Name = 151434
REMARK  8 active torsions:
REMARK  status: ('A' for Active; 'I' for Inactive)
REMARK    1  A    between atoms: C_7  and  C_16
REMARK    2  A    between atoms: C_16  and  O_17
REMARK    3  A    between atoms: O_17  and  P_18
REMARK    4  A    between atoms: P_18  and  O_20
REMARK    5  A    between atoms: P_18  and  O_22
REMARK    6  A    between atoms: O_22  and  P_23
REMARK    7  A    between atoms: P_23  and  O_25
REMARK    8  A    between atoms: P_23  and  O_27
REMARK                            x       y       z     vdW  Elec       q    Type
REMARK                         _______ _______ _______ _____ _____    ______ ____
ROOT
ATOM      1  O   UNL     1      34.332 -23.019 -17.618  0.00  0.00    -0.206 OA
ATOM      2  N   UNL     1      34.795 -23.716 -15.082  0.00  0.00    -0.391 NA
ATOM      3  N   UNL     1      31.170 -23.283 -15.187  0.00  0.00    -0.259 N 
ATOM      4  N   UNL     1      32.590 -23.910 -13.353  0.00  0.00    -0.246 NA
ATOM      5  N   UNL     1      32.057 -22.832 -17.351  0.00  0.00    -0.300 NA
ATOM      6  N   UNL     1      29.761 -22.689 -16.897  0.00  0.00    -0.320 N 
ATOM      7  C   UNL     1      34.933 -24.061 -13.789  0.00  0.00    +0.143 C 
ATOM      8  C   UNL     1      33.531 -23.472 -15.484  0.00  0.00    +0.255 C 
ATOM      9  C   UNL     1      32.429 -23.562 -14.648  0.00  0.00    +0.173 C 
ATOM     10  C   UNL     1      33.852 -24.156 -12.941  0.00  0.00    +0.184 C 
ATOM     11  C   UNL     1      33.339 -23.090 -16.901  0.00  0.00    +0.240 C 
ATOM     12  C   UNL     1      31.055 -22.933 -16.514  0.00  0.00    +0.249 C 
ATOM     13  H   UNL     1      30.367 -23.338 -14.619  0.00  0.00    +0.157 HD
ATOM     14  H   UNL     1      29.029 -22.773 -16.244  0.00  0.00    +0.146 HD
ATOM     15  H   UNL     1      29.563 -22.431 -17.826  0.00  0.00    +0.146 HD
ENDROOT
BRANCH   7  16
ATOM     16  C   UNL     1      36.309 -24.341 -13.293  0.00  0.00    +0.210 C 
BRANCH  16  17
ATOM     17  O   UNL     1      36.624 -25.711 -13.517  0.00  0.00    -0.266 OA
BRANCH  17  18
ATOM     18  P   UNL     1      37.272 -26.165 -14.925  0.00  0.00    +0.484 P 
ATOM     19  O   UNL     1      36.418 -27.099 -15.732  0.00  0.00    -0.227 OA
BRANCH  18  20
ATOM     20  O   UNL     1      37.632 -24.776 -15.674  0.00  0.00    -0.302 OA
ATOM     21  H   UNL     1      37.260 -24.033 -15.172  0.00  0.00    +0.222 HD
ENDBRANCH  18  20
BRANCH  18  22
ATOM     22  O   UNL     1      38.723 -26.762 -14.535  0.00  0.00    -0.186 OA
BRANCH  22  23
ATOM     23  P   UNL     1      40.184 -26.072 -14.521  0.00  0.00    +0.481 P 
ATOM     24  O   UNL     1      41.249 -26.874 -13.832  0.00  0.00    -0.227 OA
BRANCH  23  25
ATOM     25  O   UNL     1      39.896 -24.615 -13.884  0.00  0.00    -0.302 OA
ATOM     26  H   UNL     1      39.362 -24.092 -14.501  0.00  0.00    +0.222 HD
ENDBRANCH  23  25
BRANCH  23  27
ATOM     27  O   UNL     1      40.461 -25.753 -16.082  0.00  0.00    -0.302 OA
ATOM     28  H   UNL     1      41.008 -26.458 -16.463  0.00  0.00    +0.222 HD
ENDBRANCH  23  27
ENDBRANCH  22  23
ENDBRANCH  18  22
ENDBRANCH  17  18
ENDBRANCH  16  17
ENDBRANCH   7  16
TORSDOF 8
ENDMDL
MODEL 2
REMARK VINA RESULT:      -9.3      1.813      2.559
REMARK  Name = 151434
REMARK  8 active torsions:
REMARK  status: ('A' for Active; 'I' for Inactive)
REMARK    1  A    between atoms: C_7  and  C_16
REMARK    2  A    between atoms: C_16  and  O_17
REMARK    3  A    between atoms: O_17  and  P_18
REMARK    4  A    between atoms: P_18  and  O_20
REMARK    5  A    between atoms: P_18  and  O_22
REMARK    6  A    between atoms: O_22  and  P_23
REMARK    7  A    between atoms: P_23  and  O_25
REMARK    8  A    between atoms: P_23  and  O_27
REMARK                            x       y       z     vdW  Elec       q    Type
REMARK                         _______ _______ _______ _____ _____    ______ ____
ROOT
ATOM      1  O   UNL     1      36.854 -21.663 -18.418  0.00  0.00    -0.206 OA
ATOM      2  N   UNL     1      35.859 -22.963 -16.308  0.00  0.00    -0.391 NA
ATOM      3  N   UNL     1      32.929 -22.417 -18.418  0.00  0.00    -0.259 N 
ATOM      4  N   UNL     1      33.104 -23.506 -16.284  0.00  0.00    -0.246 NA
ATOM      5  N   UNL     1      34.834 -21.482 -19.500  0.00  0.00    -0.300 NA
ATOM      6  N   UNL     1      32.696 -21.390 -20.457  0.00  0.00    -0.320 N 
ATOM      7  C   UNL     1      35.270 -23.612 -15.287  0.00  0.00    +0.143 C 
ATOM      8  C   UNL     1      35.036 -22.594 -17.311  0.00  0.00    +0.255 C 
ATOM      9  C   UNL     1      33.674 -22.852 -17.319  0.00  0.00    +0.173 C 
ATOM     10  C   UNL     1      33.919 -23.879 -15.276  0.00  0.00    +0.184 C 
ATOM     11  C   UNL     1      35.646 -21.877 -18.452  0.00  0.00    +0.240 C 
ATOM     12  C   UNL     1      33.554 -21.754 -19.451  0.00  0.00    +0.249 C 
ATOM     13  H   UNL     1      31.959 -22.585 -18.456  0.00  0.00    +0.157 HD
ATOM     14  H   UNL     1      31.738 -21.608 -20.391  0.00  0.00    +0.146 HD
ATOM     15  H   UNL     1      33.037 -20.909 -21.245  0.00  0.00    +0.146 HD
ENDROOT
BRANCH   7  16
ATOM     16  C   UNL     1      36.135 -24.042 -14.153  0.00  0.00    +0.210 C 
BRANCH  16  17
ATOM     17  O   UNL     1      37.169 -24.891 -14.640  0.00  0.00    -0.266 OA
BRANCH  17  18
ATOM     18  P   UNL     1      37.293 -26.403 -14.087  0.00  0.00    +0.484 P 
ATOM     19  O   UNL     1      36.991 -26.560 -12.625  0.00  0.00    -0.227 OA
BRANCH  18  20
ATOM     20  O   UNL     1      36.338 -27.272 -15.062  0.00  0.00    -0.302 OA
ATOM     21  H   UNL     1      35.419 -26.974 -14.963  0.00  0.00    +0.222 HD
ENDBRANCH  18  20
BRANCH  18  22
ATOM     22  O   UNL     1      38.781 -26.874 -14.511  0.00  0.00    -0.186 OA
BRANCH  22  23
ATOM     23  P   UNL     1      40.177 -26.062 -14.555  0.00  0.00    +0.481 P 
ATOM     24  O   UNL     1      41.353 -26.808 -13.995  0.00  0.00    -0.227 OA
BRANCH  23  25
ATOM     25  O   UNL     1      39.819 -24.676 -13.805  0.00  0.00    -0.302 OA
ATOM     26  H   UNL     1      40.448 -23.990 -14.077  0.00  0.00    +0.222 HD
ENDBRANCH  23  25
BRANCH  23  27
ATOM     27  O   UNL     1      40.309 -25.629 -16.107  0.00  0.00    -0.302 OA
ATOM     28  H   UNL     1      39.471 -25.803 -16.563  0.00  0.00    +0.222 HD
ENDBRANCH  23  27
ENDBRANCH  22  23
ENDBRANCH  18  22
ENDBRANCH  17  18
ENDBRANCH  16  17
ENDBRANCH   7  16
TORSDOF 8
ENDMDL
MODEL 3
REMARK VINA RESULT:      -9.2      2.322      3.721
REMARK  Name = 151434
REMARK  8 active torsions:
REMARK  status: ('A' for Active; 'I' for Inactive)
REMARK    1  A    between atoms: C_7  and  C_16
REMARK    2  A    between atoms: C_16  and  O_17
REMARK    3  A    between atoms: O_17  and  P_18
REMARK    4  A    between atoms: P_18  and  O_20
REMARK    5  A    between atoms: P_18  and  O_22
REMARK    6  A    between atoms: O_22  and  P_23
REMARK    7  A    between atoms: P_23  and  O_25
REMARK    8  A    between atoms: P_23  and  O_27
REMARK                            x       y       z     vdW  Elec       q    Type
REMARK                         _______ _______ _______ _____ _____    ______ ____
ROOT
ATOM      1  O   UNL     1      31.591 -23.536 -12.981  0.00  0.00    -0.206 OA
ATOM      2  N   UNL     1      33.599 -23.628 -14.740  0.00  0.00    -0.391 NA
ATOM      3  N   UNL     1      30.713 -22.761 -16.803  0.00  0.00    -0.259 N 
ATOM      4  N   UNL     1      33.009 -23.086 -17.431  0.00  0.00    -0.246 NA
ATOM      5  N   UNL     1      29.996 -22.989 -14.543  0.00  0.00    -0.300 NA
ATOM      6  N   UNL     1      28.506 -22.436 -16.267  0.00  0.00    -0.320 N 
ATOM      7  C   UNL     1      34.547 -23.651 -15.695  0.00  0.00    +0.143 C 
ATOM      8  C   UNL     1      32.355 -23.328 -15.166  0.00  0.00    +0.255 C 
ATOM      9  C   UNL     1      32.042 -23.058 -16.489  0.00  0.00    +0.173 C 
ATOM     10  C   UNL     1      34.258 -23.385 -17.014  0.00  0.00    +0.184 C 
ATOM     11  C   UNL     1      31.285 -23.293 -14.144  0.00  0.00    +0.240 C 
ATOM     12  C   UNL     1      29.762 -22.743 -15.808  0.00  0.00    +0.249 C 
ATOM     13  H   UNL     1      30.458 -22.564 -17.734  0.00  0.00    +0.157 HD
ATOM     14  H   UNL     1      28.362 -22.257 -17.225  0.00  0.00    +0.146 HD
ATOM     15  H   UNL     1      27.748 -22.396 -15.640  0.00  0.00    +0.146 HD
ENDROOT
BRANCH   7  16
ATOM     16  C   UNL     1      35.939 -23.977 -15.277  0.00  0.00    +0.210 C 
BRANCH  16  17
ATOM     17  O   UNL     1      35.935 -25.172 -14.504  0.00  0.00    -0.266 OA
BRANCH  17  18
ATOM     18  P   UNL     1      37.159 -25.480 -13.496  0.00  0.00    +0.484 P 
ATOM     19  O   UNL     1      37.896 -26.756 -13.781  0.00  0.00    -0.227 OA
BRANCH  18  20
ATOM     20  O   UNL     1      38.080 -24.151 -13.557  0.00  0.00    -0.302 OA
ATOM     21  H   UNL     1      37.648 -23.484 -14.115  0.00  0.00    +0.222 HD
ENDBRANCH  18  20
BRANCH  18  22
ATOM     22  O   UNL     1      36.503 -25.408 -12.020  0.00  0.00    -0.186 OA
BRANCH  22  23
ATOM     23  P   UNL     1      35.963 -24.152 -11.160  0.00  0.00    +0.481 P 
ATOM     24  O   UNL     1      36.999 -23.108 -10.860  0.00  0.00    -0.227 OA
BRANCH  23  25
ATOM     25  O   UNL     1      35.294 -24.853  -9.866  0.00  0.00    -0.302 OA
ATOM     26  H   UNL     1      35.830 -24.662  -9.082  0.00  0.00    +0.222 HD
ENDBRANCH  23  25
BRANCH  23  27
ATOM     27  O   UNL     1      34.689 -23.636 -12.011  0.00  0.00    -0.302 OA
ATOM     28  H   UNL     1      34.203 -24.400 -12.359  0.00  0.00    +0.222 HD
ENDBRANCH  23  27
ENDBRANCH  22  23
ENDBRANCH  18  22
ENDBRANCH  17  18
ENDBRANCH  16  17
ENDBRANCH   7  16
TORSDOF 8
ENDMDL
MODEL 4
REMARK VINA RESULT:      -9.2      1.836      2.840
REMARK  Name = 151434
REMARK  8 active torsions:
REMARK  status: ('A' for Active; 'I' for Inactive)
REMARK    1  A    between atoms: C_7  and  C_16
REMARK    2  A    between atoms: C_16  and  O_17
REMARK    3  A    between atoms: O_17  and  P_18
REMARK    4  A    between atoms: P_18  and  O_20
REMARK    5  A    between atoms: P_18  and  O_22
REMARK    6  A    between atoms: O_22  and  P_23
REMARK    7  A    between atoms: P_23  and  O_25
REMARK    8  A    between atoms: P_23  and  O_27
REMARK                            x       y       z     vdW  Elec       q    Type
REMARK                         _______ _______ _______ _____ _____    ______ ____
ROOT
ATOM      1  O   UNL     1      36.458 -22.674 -16.946  0.00  0.00    -0.206 OA
ATOM      2  N   UNL     1      34.773 -23.534 -15.060  0.00  0.00    -0.391 NA
ATOM      3  N   UNL     1      32.570 -22.765 -17.869  0.00  0.00    -0.259 N 
ATOM      4  N   UNL     1      32.036 -23.609 -15.684  0.00  0.00    -0.246 NA
ATOM      5  N   UNL     1      34.815 -22.291 -18.507  0.00  0.00    -0.300 NA
ATOM      6  N   UNL     1      33.013 -21.961 -19.972  0.00  0.00    -0.320 N 
ATOM      7  C   UNL     1      33.853 -23.953 -14.173  0.00  0.00    +0.143 C 
ATOM      8  C   UNL     1      34.290 -23.155 -16.261  0.00  0.00    +0.255 C 
ATOM      9  C   UNL     1      32.944 -23.184 -16.589  0.00  0.00    +0.173 C 
ATOM     10  C   UNL     1      32.511 -23.990 -14.479  0.00  0.00    +0.184 C 
ATOM     11  C   UNL     1      35.273 -22.688 -17.264  0.00  0.00    +0.240 C 
ATOM     12  C   UNL     1      33.531 -22.341 -18.759  0.00  0.00    +0.249 C 
ATOM     13  H   UNL     1      31.621 -22.774 -18.134  0.00  0.00    +0.157 HD
ATOM     14  H   UNL     1      32.043 -22.010 -20.130  0.00  0.00    +0.146 HD
ATOM     15  H   UNL     1      33.612 -21.640 -20.684  0.00  0.00    +0.146 HD
ENDROOT
BRANCH   7  16
ATOM     16  C   UNL     1      34.334 -24.383 -12.830  0.00  0.00    +0.210 C 
BRANCH  16  17
ATOM     17  O   UNL     1      35.527 -23.677 -12.506  0.00  0.00    -0.266 OA
BRANCH  17  18
ATOM     18  P   UNL     1      36.897 -24.493 -12.249  0.00  0.00    +0.484 P 
ATOM     19  O   UNL     1      37.526 -24.251 -10.908  0.00  0.00    -0.227 OA
BRANCH  18  20
ATOM     20  O   UNL     1      36.509 -26.038 -12.534  0.00  0.00    -0.302 OA
ATOM     21  H   UNL     1      35.568 -26.098 -12.761  0.00  0.00    +0.222 HD
ENDBRANCH  18  20
BRANCH  18  22
ATOM     22  O   UNL     1      37.843 -24.111 -13.504  0.00  0.00    -0.186 OA
BRANCH  22  23
ATOM     23  P   UNL     1      38.375 -25.004 -14.740  0.00  0.00    +0.481 P 
ATOM     24  O   UNL     1      39.223 -26.178 -14.345  0.00  0.00    -0.227 OA
BRANCH  23  25
ATOM     25  O   UNL     1      39.101 -23.918 -15.692  0.00  0.00    -0.302 OA
ATOM     26  H   UNL     1      38.550 -23.754 -16.473  0.00  0.00    +0.222 HD
ENDBRANCH  23  25
BRANCH  23  27
ATOM     27  O   UNL     1      37.022 -25.369 -15.547  0.00  0.00    -0.302 OA
ATOM     28  H   UNL     1      36.819 -26.311 -15.427  0.00  0.00    +0.222 HD
ENDBRANCH  23  27
ENDBRANCH  22  23
ENDBRANCH  18  22
ENDBRANCH  17  18
ENDBRANCH  16  17
ENDBRANCH   7  16
TORSDOF 8
ENDMDL
MODEL 5
REMARK VINA RESULT:      -9.2      2.757      3.841
REMARK  Name = 151434
REMARK  8 active torsions:
REMARK  status: ('A' for Active; 'I' for Inactive)
REMARK    1  A    between atoms: C_7  and  C_16
REMARK    2  A    between atoms: C_16  and  O_17
REMARK    3  A    between atoms: O_17  and  P_18
REMARK    4  A    between atoms: P_18  and  O_20
REMARK    5  A    between atoms: P_18  and  O_22
REMARK    6  A    between atoms: O_22  and  P_23
REMARK    7  A    between atoms: P_23  and  O_25
REMARK    8  A    between atoms: P_23  and  O_27
REMARK                            x       y       z     vdW  Elec       q    Type
REMARK                         _______ _______ _______ _____ _____    ______ ____
ROOT
ATOM      1  O   UNL     1      32.999 -23.105 -18.305  0.00  0.00    -0.206 OA
ATOM      2  N   UNL     1      35.018 -23.201 -16.559  0.00  0.00    -0.391 NA
ATOM      3  N   UNL     1      36.228 -20.893 -19.118  0.00  0.00    -0.259 N 
ATOM      4  N   UNL     1      37.297 -21.655 -17.106  0.00  0.00    -0.246 NA
ATOM      5  N   UNL     1      34.045 -21.630 -19.724  0.00  0.00    -0.300 NA
ATOM      6  N   UNL     1      35.260 -20.127 -21.052  0.00  0.00    -0.320 N 
ATOM      7  C   UNL     1      36.082 -23.188 -15.737  0.00  0.00    +0.143 C 
ATOM      8  C   UNL     1      35.124 -22.425 -17.657  0.00  0.00    +0.255 C 
ATOM      9  C   UNL     1      36.240 -21.655 -17.946  0.00  0.00    +0.173 C 
ATOM     10  C   UNL     1      37.200 -22.429 -16.005  0.00  0.00    +0.184 C 
ATOM     11  C   UNL     1      33.973 -22.414 -18.586  0.00  0.00    +0.240 C 
ATOM     12  C   UNL     1      35.126 -20.924 -19.943  0.00  0.00    +0.249 C 
ATOM     13  H   UNL     1      37.004 -20.334 -19.352  0.00  0.00    +0.157 HD
ATOM     14  H   UNL     1      36.085 -19.608 -21.189  0.00  0.00    +0.146 HD
ATOM     15  H   UNL     1      34.531 -20.074 -21.711  0.00  0.00    +0.146 HD
ENDROOT
BRANCH   7  16
ATOM     16  C   UNL     1      36.016 -24.028 -14.509  0.00  0.00    +0.210 C 
BRANCH  16  17
ATOM     17  O   UNL     1      37.209 -23.857 -13.752  0.00  0.00    -0.266 OA
BRANCH  17  18
ATOM     18  P   UNL     1      37.625 -24.961 -12.648  0.00  0.00    +0.484 P 
ATOM     19  O   UNL     1      37.614 -24.463 -11.232  0.00  0.00    -0.227 OA
BRANCH  18  20
ATOM     20  O   UNL     1      36.629 -26.206 -12.924  0.00  0.00    -0.302 OA
ATOM     21  H   UNL     1      36.389 -26.621 -12.080  0.00  0.00    +0.222 HD
ENDBRANCH  18  20
BRANCH  18  22
ATOM     22  O   UNL     1      39.060 -25.517 -13.145  0.00  0.00    -0.186 OA
BRANCH  22  23
ATOM     23  P   UNL     1      39.629 -25.804 -14.629  0.00  0.00    +0.481 P 
ATOM     24  O   UNL     1      40.886 -26.623 -14.671  0.00  0.00    -0.227 OA
BRANCH  23  25
ATOM     25  O   UNL     1      39.748 -24.324 -15.269  0.00  0.00    -0.302 OA
ATOM     26  H   UNL     1      39.958 -23.686 -14.570  0.00  0.00    +0.222 HD
ENDBRANCH  23  25
BRANCH  23  27
ATOM     27  O   UNL     1      38.360 -26.446 -15.398  0.00  0.00    -0.302 OA
ATOM     28  H   UNL     1      38.670 -26.949 -16.168  0.00  0.00    +0.222 HD
ENDBRANCH  23  27
ENDBRANCH  22  23
ENDBRANCH  18  22
ENDBRANCH  17  18
ENDBRANCH  16  17
ENDBRANCH   7  16
TORSDOF 8
ENDMDL
MODEL 6
REMARK VINA RESULT:      -9.2      2.009      2.931
REMARK  Name = 151434
REMARK  8 active torsions:
REMARK  status: ('A' for Active; 'I' for Inactive)
REMARK    1  A    between atoms: C_7  and  C_16
REMARK    2  A    between atoms: C_16  and  O_17
REMARK    3  A    between atoms: O_17  and  P_18
REMARK    4  A    between atoms: P_18  and  O_20
REMARK    5  A    between atoms: P_18  and  O_22
REMARK    6  A    between atoms: O_22  and  P_23
REMARK    7  A    between atoms: P_23  and  O_25
REMARK    8  A    between atoms: P_23  and  O_27
REMARK                            x       y       z     vdW  Elec       q    Type
REMARK                         _______ _______ _______ _____ _____    ______ ____
ROOT
ATOM      1  O   UNL     1      30.730 -24.283 -12.757  0.00  0.00    -0.206 OA
ATOM      2  N   UNL     1      33.298 -24.272 -13.490  0.00  0.00    -0.391 NA
ATOM      3  N   UNL     1      31.570 -23.037 -16.461  0.00  0.00    -0.259 N 
ATOM      4  N   UNL     1      33.915 -23.400 -16.087  0.00  0.00    -0.246 NA
ATOM      5  N   UNL     1      29.955 -23.485 -14.768  0.00  0.00    -0.300 NA
ATOM      6  N   UNL     1      29.344 -22.667 -16.879  0.00  0.00    -0.320 N 
ATOM      7  C   UNL     1      34.564 -24.234 -13.946  0.00  0.00    +0.143 C 
ATOM      8  C   UNL     1      32.355 -23.866 -14.365  0.00  0.00    +0.255 C 
ATOM      9  C   UNL     1      32.638 -23.432 -15.650  0.00  0.00    +0.173 C 
ATOM     10  C   UNL     1      34.866 -23.806 -15.219  0.00  0.00    +0.184 C 
ATOM     11  C   UNL     1      30.951 -23.895 -13.900  0.00  0.00    +0.240 C 
ATOM     12  C   UNL     1      30.284 -23.085 -15.971  0.00  0.00    +0.249 C 
ATOM     13  H   UNL     1      31.737 -22.723 -17.379  0.00  0.00    +0.157 HD
ATOM     14  H   UNL     1      29.623 -22.373 -17.777  0.00  0.00    +0.146 HD
ATOM     15  H   UNL     1      28.391 -22.662 -16.634  0.00  0.00    +0.146 HD
ENDROOT
BRANCH   7  16
ATOM     16  C   UNL     1      35.644 -24.672 -13.019  0.00  0.00    +0.210 C 
BRANCH  16  17
ATOM     17  O   UNL     1      36.891 -24.147 -13.462  0.00  0.00    -0.266 OA
BRANCH  17  18
ATOM     18  P   UNL     1      38.086 -23.914 -12.401  0.00  0.00    +0.484 P 
ATOM     19  O   UNL     1      38.261 -22.489 -11.962  0.00  0.00    -0.227 OA
BRANCH  18  20
ATOM     20  O   UNL     1      37.768 -24.948 -11.197  0.00  0.00    -0.302 OA
ATOM     21  H   UNL     1      36.816 -25.137 -11.177  0.00  0.00    +0.222 HD
ENDBRANCH  18  20
BRANCH  18  22
ATOM     22  O   UNL     1      39.391 -24.556 -13.106  0.00  0.00    -0.186 OA
BRANCH  22  23
ATOM     23  P   UNL     1      39.570 -25.299 -14.529  0.00  0.00    +0.481 P 
ATOM     24  O   UNL     1      40.977 -25.713 -14.848  0.00  0.00    -0.227 OA
BRANCH  23  25
ATOM     25  O   UNL     1      38.903 -24.260 -15.572  0.00  0.00    -0.302 OA
ATOM     26  H   UNL     1      39.205 -23.361 -15.371  0.00  0.00    +0.222 HD
ENDBRANCH  23  25
BRANCH  23  27
ATOM     27  O   UNL     1      38.495 -26.505 -14.458  0.00  0.00    -0.302 OA
ATOM     28  H   UNL     1      38.155 -26.582 -13.552  0.00  0.00    +0.222 HD
ENDBRANCH  23  27
ENDBRANCH  22  23
ENDBRANCH  18  22
ENDBRANCH  17  18
ENDBRANCH  16  17
ENDBRANCH   7  16
TORSDOF 8
ENDMDL
MODEL 7
REMARK VINA RESULT:      -9.1      1.618      2.596
REMARK  Name = 151434
REMARK  8 active torsions:
REMARK  status: ('A' for Active; 'I' for Inactive)
REMARK    1  A    between atoms: C_7  and  C_16
REMARK    2  A    between atoms: C_16  and  O_17
REMARK    3  A    between atoms: O_17  and  P_18
REMARK    4  A    between atoms: P_18  and  O_20
REMARK    5  A    between atoms: P_18  and  O_22
REMARK    6  A    between atoms: O_22  and  P_23
REMARK    7  A    between atoms: P_23  and  O_25
REMARK    8  A    between atoms: P_23  and  O_27
REMARK                            x       y       z     vdW  Elec       q    Type
REMARK                         _______ _______ _______ _____ _____    ______ ____
ROOT
ATOM      1  O   UNL     1      31.461 -23.524 -13.045  0.00  0.00    -0.206 OA
ATOM      2  N   UNL     1      33.491 -23.423 -14.778  0.00  0.00    -0.391 NA
ATOM      3  N   UNL     1      30.562 -22.837 -16.879  0.00  0.00    -0.259 N 
ATOM      4  N   UNL     1      32.887 -22.941 -17.477  0.00  0.00    -0.246 NA
ATOM      5  N   UNL     1      29.841 -23.133 -14.628  0.00  0.00    -0.300 NA
ATOM      6  N   UNL     1      28.327 -22.726 -16.372  0.00  0.00    -0.320 N 
ATOM      7  C   UNL     1      34.449 -23.356 -15.720  0.00  0.00    +0.143 C 
ATOM      8  C   UNL     1      32.230 -23.244 -15.220  0.00  0.00    +0.255 C 
ATOM      9  C   UNL     1      31.909 -23.006 -16.547  0.00  0.00    +0.173 C 
ATOM     10  C   UNL     1      34.152 -23.119 -17.044  0.00  0.00    +0.184 C 
ATOM     11  C   UNL     1      31.148 -23.312 -14.212  0.00  0.00    +0.240 C 
ATOM     12  C   UNL     1      29.600 -22.911 -15.896  0.00  0.00    +0.249 C 
ATOM     13  H   UNL     1      30.301 -22.666 -17.813  0.00  0.00    +0.157 HD
ATOM     14  H   UNL     1      28.179 -22.561 -17.331  0.00  0.00    +0.146 HD
ATOM     15  H   UNL     1      27.561 -22.758 -15.755  0.00  0.00    +0.146 HD
ENDROOT
BRANCH   7  16
ATOM     16  C   UNL     1      35.860 -23.547 -15.284  0.00  0.00    +0.210 C 
BRANCH  16  17
ATOM     17  O   UNL     1      36.317 -24.828 -15.702  0.00  0.00    -0.266 OA
BRANCH  17  18
ATOM     18  P   UNL     1      36.789 -25.910 -14.600  0.00  0.00    +0.484 P 
ATOM     19  O   UNL     1      36.594 -25.478 -13.176  0.00  0.00    -0.227 OA
BRANCH  18  20
ATOM     20  O   UNL     1      36.001 -27.266 -14.999  0.00  0.00    -0.302 OA
ATOM     21  H   UNL     1      35.731 -27.221 -15.930  0.00  0.00    +0.222 HD
ENDBRANCH  18  20
BRANCH  18  22
ATOM     22  O   UNL     1      38.323 -26.246 -14.987  0.00  0.00    -0.186 OA
BRANCH  22  23
ATOM     23  P   UNL     1      39.675 -25.381 -14.806  0.00  0.00    +0.481 P 
ATOM     24  O   UNL     1      40.941 -26.126 -15.113  0.00  0.00    -0.227 OA
BRANCH  23  25
ATOM     25  O   UNL     1      39.553 -24.821 -13.295  0.00  0.00    -0.302 OA
ATOM     26  H   UNL     1      40.118 -25.347 -12.709  0.00  0.00    +0.222 HD
ENDBRANCH  23  25
BRANCH  23  27
ATOM     27  O   UNL     1      39.406 -24.073 -15.717  0.00  0.00    -0.302 OA
ATOM     28  H   UNL     1      40.097 -23.413 -15.547  0.00  0.00    +0.222 HD
ENDBRANCH  23  27
ENDBRANCH  22  23
ENDBRANCH  18  22
ENDBRANCH  17  18
ENDBRANCH  16  17
ENDBRANCH   7  16
TORSDOF 8
ENDMDL
MODEL 8
REMARK VINA RESULT:      -9.0      1.377      1.971
REMARK  Name = 151434
REMARK  8 active torsions:
REMARK  status: ('A' for Active; 'I' for Inactive)
REMARK    1  A    between atoms: C_7  and  C_16
REMARK    2  A    between atoms: C_16  and  O_17
REMARK    3  A    between atoms: O_17  and  P_18
REMARK    4  A    between atoms: P_18  and  O_20
REMARK    5  A    between atoms: P_18  and  O_22
REMARK    6  A    between atoms: O_22  and  P_23
REMARK    7  A    between atoms: P_23  and  O_25
REMARK    8  A    between atoms: P_23  and  O_27
REMARK                            x       y       z     vdW  Elec       q    Type
REMARK                         _______ _______ _______ _____ _____    ______ ____
ROOT
ATOM      1  O   UNL     1      32.599 -22.962 -17.913  0.00  0.00    -0.206 OA
ATOM      2  N   UNL     1      33.929 -23.840 -15.770  0.00  0.00    -0.391 NA
ATOM      3  N   UNL     1      30.590 -23.149 -14.463  0.00  0.00    -0.259 N 
ATOM      4  N   UNL     1      32.540 -23.983 -13.334  0.00  0.00    -0.246 NA
ATOM      5  N   UNL     1      30.622 -22.632 -16.788  0.00  0.00    -0.300 NA
ATOM      6  N   UNL     1      28.693 -22.357 -15.483  0.00  0.00    -0.320 N 
ATOM      7  C   UNL     1      34.518 -24.270 -14.640  0.00  0.00    +0.143 C 
ATOM      8  C   UNL     1      32.633 -23.485 -15.649  0.00  0.00    +0.255 C 
ATOM      9  C   UNL     1      31.930 -23.547 -14.457  0.00  0.00    +0.173 C 
ATOM     10  C   UNL     1      33.837 -24.340 -13.445  0.00  0.00    +0.184 C 
ATOM     11  C   UNL     1      31.951 -23.006 -16.872  0.00  0.00    +0.240 C 
ATOM     12  C   UNL     1      30.009 -22.713 -15.633  0.00  0.00    +0.249 C 
ATOM     13  H   UNL     1      30.061 -23.182 -13.632  0.00  0.00    +0.157 HD
ATOM     14  H   UNL     1      28.261 -22.429 -14.601  0.00  0.00    +0.146 HD
ATOM     15  H   UNL     1      28.180 -22.030 -16.256  0.00  0.00    +0.146 HD
ENDROOT
BRANCH   7  16
ATOM     16  C   UNL     1      35.949 -24.675 -14.719  0.00  0.00    +0.210 C 
BRANCH  16  17
ATOM     17  O   UNL     1      36.677 -24.053 -13.666  0.00  0.00    -0.266 OA
BRANCH  17  18
ATOM     18  P   UNL     1      37.399 -24.962 -12.543  0.00  0.00    +0.484 P 
ATOM     19  O   UNL     1      37.196 -24.491 -11.133  0.00  0.00    -0.227 OA
BRANCH  18  20
ATOM     20  O   UNL     1      36.863 -26.462 -12.828  0.00  0.00    -0.302 OA
ATOM     21  H   UNL     1      36.191 -26.437 -13.528  0.00  0.00    +0.222 HD
ENDBRANCH  18  20
BRANCH  18  22
ATOM     22  O   UNL     1      38.948 -25.029 -13.004  0.00  0.00    -0.186 OA
BRANCH  22  23
ATOM     23  P   UNL     1      39.624 -25.551 -14.375  0.00  0.00    +0.481 P 
ATOM     24  O   UNL     1      41.091 -25.852 -14.275  0.00  0.00    -0.227 OA
BRANCH  23  25
ATOM     25  O   UNL     1      39.226 -24.404 -15.441  0.00  0.00    -0.302 OA
ATOM     26  H   UNL     1      39.621 -24.611 -16.302  0.00  0.00    +0.222 HD
ENDBRANCH  23  25
BRANCH  23  27
ATOM     27  O   UNL     1      38.690 -26.801 -14.799  0.00  0.00    -0.302 OA
ATOM     28  H   UNL     1      39.138 -27.631 -14.571  0.00  0.00    +0.222 HD
ENDBRANCH  23  27
ENDBRANCH  22  23
ENDBRANCH  18  22
ENDBRANCH  17  18
ENDBRANCH  16  17
ENDBRANCH   7  16
TORSDOF 8
ENDMDL
MODEL 9
REMARK VINA RESULT:      -8.9      2.862      4.120
REMARK  Name = 151434
REMARK  8 active torsions:
REMARK  status: ('A' for Active; 'I' for Inactive)
REMARK    1  A    between atoms: C_7  and  C_16
REMARK    2  A    between atoms: C_16  and  O_17
REMARK    3  A    between atoms: O_17  and  P_18
REMARK    4  A    between atoms: P_18  and  O_20
REMARK    5  A    between atoms: P_18  and  O_22
REMARK    6  A    between atoms: O_22  and  P_23
REMARK    7  A    between atoms: P_23  and  O_25
REMARK    8  A    between atoms: P_23  and  O_27
REMARK                            x       y       z     vdW  Elec       q    Type
REMARK                         _______ _______ _______ _____ _____    ______ ____
ROOT
ATOM      1  O   UNL     1      36.843 -20.883 -19.179  0.00  0.00    -0.206 OA
ATOM      2  N   UNL     1      36.267 -22.502 -17.134  0.00  0.00    -0.391 NA
ATOM      3  N   UNL     1      33.054 -22.105 -18.824  0.00  0.00    -0.259 N 
ATOM      4  N   UNL     1      33.612 -23.376 -16.864  0.00  0.00    -0.246 NA
ATOM      5  N   UNL     1      34.696 -20.841 -19.998  0.00  0.00    -0.300 NA
ATOM      6  N   UNL     1      32.457 -20.913 -20.692  0.00  0.00    -0.320 N 
ATOM      7  C   UNL     1      35.885 -23.318 -16.135  0.00  0.00    +0.143 C 
ATOM      8  C   UNL     1      35.289 -22.136 -17.989  0.00  0.00    +0.255 C 
ATOM      9  C   UNL     1      33.974 -22.556 -17.873  0.00  0.00    +0.173 C 
ATOM     10  C   UNL     1      34.583 -23.748 -16.003  0.00  0.00    +0.184 C 
ATOM     11  C   UNL     1      35.671 -21.238 -19.101  0.00  0.00    +0.240 C 
ATOM     12  C   UNL     1      33.469 -21.270 -19.837  0.00  0.00    +0.249 C 
ATOM     13  H   UNL     1      32.111 -22.386 -18.771  0.00  0.00    +0.157 HD
ATOM     14  H   UNL     1      31.544 -21.252 -20.544  0.00  0.00    +0.146 HD
ATOM     15  H   UNL     1      32.642 -20.317 -21.453  0.00  0.00    +0.146 HD
ENDROOT
BRANCH   7  16
ATOM     16  C   UNL     1      36.927 -23.753 -15.163  0.00  0.00    +0.210 C 
BRANCH  16  17
ATOM     17  O   UNL     1      36.351 -24.650 -14.220  0.00  0.00    -0.266 OA
BRANCH  17  18
ATOM     18  P   UNL     1      37.307 -25.503 -13.237  0.00  0.00    +0.484 P 
ATOM     19  O   UNL     1      37.610 -26.894 -13.713  0.00  0.00    -0.227 OA
BRANCH  18  20
ATOM     20  O   UNL     1      38.613 -24.570 -13.030  0.00  0.00    -0.302 OA
ATOM     21  H   UNL     1      38.333 -23.658 -12.854  0.00  0.00    +0.222 HD
ENDBRANCH  18  20
BRANCH  18  22
ATOM     22  O   UNL     1      36.574 -25.440 -11.797  0.00  0.00    -0.186 OA
BRANCH  22  23
ATOM     23  P   UNL     1      35.922 -24.200 -10.993  0.00  0.00    +0.481 P 
ATOM     24  O   UNL     1      35.366 -24.550  -9.644  0.00  0.00    -0.227 OA
BRANCH  23  25
ATOM     25  O   UNL     1      34.852 -23.602 -12.047  0.00  0.00    -0.302 OA
ATOM     26  H   UNL     1      35.106 -22.698 -12.288  0.00  0.00    +0.222 HD
ENDBRANCH  23  25
BRANCH  23  27
ATOM     27  O   UNL     1      37.103 -23.096 -10.988  0.00  0.00    -0.302 OA
ATOM     28  H   UNL     1      37.320 -22.860 -10.072  0.00  0.00    +0.222 HD
ENDBRANCH  23  27
ENDBRANCH  22  23
ENDBRANCH  18  22
ENDBRANCH  17  18
ENDBRANCH  16  17
ENDBRANCH   7  16
TORSDOF 8
ENDMDL
