MODEL 1
REMARK VINA RESULT:      -8.7      0.000      0.000
REMARK  Name = 5359371
REMARK  3 active torsions:
REMARK  status: ('A' for Active; 'I' for Inactive)
REMARK    1  A    between atoms: N_1  and  C_21
REMARK    2  A    between atoms: C_16  and  O_19
REMARK    3  A    between atoms: C_21  and  C_22
REMARK                            x       y       z     vdW  Elec       q    Type
REMARK                         _______ _______ _______ _____ _____    ______ ____
ROOT
ATOM      1  N   UNL     1      31.441  -6.241 -23.222  0.00  0.00    +0.391 N 
ATOM      2  C   UNL     1      31.511  -9.100 -22.584  0.00  0.00    +0.015 C 
ATOM      3  C   UNL     1      31.802  -7.983 -21.542  0.00  0.00    -0.015 C 
ATOM      4  C   UNL     1      32.436  -6.781 -22.270  0.00  0.00    -0.053 C 
ATOM      5  C   UNL     1      30.513  -8.513 -23.620  0.00  0.00    -0.019 C 
ATOM      6  C   UNL     1      30.830 -10.279 -21.836  0.00  0.00    +0.004 C 
ATOM      7  C   UNL     1      32.635  -8.487 -20.346  0.00  0.00    -0.002 C 
ATOM      8  C   UNL     1      32.792  -9.490 -23.345  0.00  0.00    -0.024 C 
ATOM      9  C   UNL     1      33.797  -7.181 -22.876  0.00  0.00    +0.005 C 
ATOM     10  C   UNL     1      30.996  -7.194 -24.241  0.00  0.00    -0.076 C 
ATOM     11  C   UNL     1      31.655 -10.794 -20.655  0.00  0.00    +0.000 C 
ATOM     12  C   UNL     1      31.964  -9.676 -19.664  0.00  0.00    -0.000 C 
ATOM     13  C   UNL     1      33.849  -8.564 -23.486  0.00  0.00    -0.028 C 
ATOM     14  C   UNL     1      32.917 -10.741 -23.977  0.00  0.00    +0.032 C 
ATOM     15  C   UNL     1      35.007  -8.923 -24.197  0.00  0.00    -0.002 C 
ATOM     16  C   UNL     1      34.071 -11.083 -24.686  0.00  0.00    +0.133 C 
ATOM     17  C   UNL     1      35.118 -10.176 -24.791  0.00  0.00    +0.036 C 
ATOM     18  H   UNL     1      30.627  -6.054 -22.636  0.00  0.00    -0.079 HD
ENDROOT
BRANCH  16  19
ATOM     19  O   UNL     1      34.166 -12.303 -25.281  0.00  0.00    -0.506 OA
ATOM     20  H   UNL     1      33.556 -12.548 -25.949  0.00  0.00    +0.292 HD
ENDBRANCH  16  19
BRANCH   1  21
ATOM     21  C   UNL     1      31.840  -4.971 -23.821  0.00  0.00    -0.050 C 
BRANCH  21  22
ATOM     22  C   UNL     1      31.971  -5.148 -25.297  0.00  0.00    -0.049 C 
ATOM     23  C   UNL     1      33.136  -5.097 -25.954  0.00  0.00    -0.007 C 
ENDBRANCH  21  22
ENDBRANCH   1  21
TORSDOF 3
ENDMDL
MODEL 2
REMARK VINA RESULT:      -6.6      2.631      4.843
REMARK  Name = 5359371
REMARK  3 active torsions:
REMARK  status: ('A' for Active; 'I' for Inactive)
REMARK    1  A    between atoms: N_1  and  C_21
REMARK    2  A    between atoms: C_16  and  O_19
REMARK    3  A    between atoms: C_21  and  C_22
REMARK                            x       y       z     vdW  Elec       q    Type
REMARK                         _______ _______ _______ _____ _____    ______ ____
ROOT
ATOM      1  N   UNL     1      34.426  -9.372 -23.882  0.00  0.00    +0.391 N 
ATOM      2  C   UNL     1      33.165  -7.794 -21.760  0.00  0.00    +0.015 C 
ATOM      3  C   UNL     1      32.889  -9.308 -21.979  0.00  0.00    -0.015 C 
ATOM      4  C   UNL     1      33.023  -9.622 -23.482  0.00  0.00    -0.053 C 
ATOM      5  C   UNL     1      34.617  -7.517 -22.236  0.00  0.00    -0.019 C 
ATOM      6  C   UNL     1      33.070  -7.513 -20.235  0.00  0.00    +0.004 C 
ATOM      7  C   UNL     1      31.545  -9.763 -21.374  0.00  0.00    -0.002 C 
ATOM      8  C   UNL     1      32.222  -6.932 -22.620  0.00  0.00    -0.024 C 
ATOM      9  C   UNL     1      31.950  -8.860 -24.286  0.00  0.00    +0.005 C 
ATOM     10  C   UNL     1      34.880  -7.995 -23.673  0.00  0.00    -0.076 C 
ATOM     11  C   UNL     1      31.735  -7.949 -19.628  0.00  0.00    +0.000 C 
ATOM     12  C   UNL     1      31.464  -9.427 -19.887  0.00  0.00    -0.000 C 
ATOM     13  C   UNL     1      31.676  -7.448 -23.817  0.00  0.00    -0.028 C 
ATOM     14  C   UNL     1      31.938  -5.596 -22.284  0.00  0.00    +0.032 C 
ATOM     15  C   UNL     1      30.831  -6.648 -24.604  0.00  0.00    -0.002 C 
ATOM     16  C   UNL     1      31.102  -4.810 -23.080  0.00  0.00    +0.133 C 
ATOM     17  C   UNL     1      30.543  -5.338 -24.237  0.00  0.00    +0.036 C 
ATOM     18  H   UNL     1      34.965  -9.948 -23.236  0.00  0.00    -0.079 HD
ENDROOT
BRANCH  16  19
ATOM     19  O   UNL     1      30.838  -3.523 -22.724  0.00  0.00    -0.506 OA
ATOM     20  H   UNL     1      31.533  -2.968 -22.426  0.00  0.00    +0.292 HD
ENDBRANCH  16  19
BRANCH   1  21
ATOM     21  C   UNL     1      34.737  -9.833 -25.231  0.00  0.00    -0.050 C 
BRANCH  21  22
ATOM     22  C   UNL     1      34.553 -11.313 -25.296  0.00  0.00    -0.049 C 
ATOM     23  C   UNL     1      33.797 -11.932 -26.210  0.00  0.00    -0.007 C 
ENDBRANCH  21  22
ENDBRANCH   1  21
TORSDOF 3
ENDMDL
MODEL 3
REMARK VINA RESULT:      -6.4      1.262      4.472
REMARK  Name = 5359371
REMARK  3 active torsions:
REMARK  status: ('A' for Active; 'I' for Inactive)
REMARK    1  A    between atoms: N_1  and  C_21
REMARK    2  A    between atoms: C_16  and  O_19
REMARK    3  A    between atoms: C_21  and  C_22
REMARK                            x       y       z     vdW  Elec       q    Type
REMARK                         _______ _______ _______ _____ _____    ______ ____
ROOT
ATOM      1  N   UNL     1      31.856  -8.198 -20.668  0.00  0.00    +0.391 N 
ATOM      2  C   UNL     1      33.205  -7.356 -23.128  0.00  0.00    +0.015 C 
ATOM      3  C   UNL     1      31.676  -7.201 -22.896  0.00  0.00    -0.015 C 
ATOM      4  C   UNL     1      31.196  -8.348 -21.984  0.00  0.00    -0.053 C 
ATOM      5  C   UNL     1      33.894  -7.260 -21.739  0.00  0.00    -0.019 C 
ATOM      6  C   UNL     1      33.672  -6.164 -24.009  0.00  0.00    +0.004 C 
ATOM      7  C   UNL     1      30.881  -7.088 -24.212  0.00  0.00    -0.002 C 
ATOM      8  C   UNL     1      33.535  -8.741 -23.715  0.00  0.00    -0.024 C 
ATOM      9  C   UNL     1      31.398  -9.707 -22.685  0.00  0.00    +0.005 C 
ATOM     10  C   UNL     1      33.319  -8.248 -20.713  0.00  0.00    -0.076 C 
ATOM     11  C   UNL     1      32.897  -6.052 -25.323  0.00  0.00    +0.000 C 
ATOM     12  C   UNL     1      31.397  -5.940 -25.076  0.00  0.00    -0.000 C 
ATOM     13  C   UNL     1      32.679  -9.839 -23.477  0.00  0.00    -0.028 C 
ATOM     14  C   UNL     1      34.723  -8.969 -24.435  0.00  0.00    +0.032 C 
ATOM     15  C   UNL     1      32.998 -11.103 -24.002  0.00  0.00    -0.002 C 
ATOM     16  C   UNL     1      35.030 -10.232 -24.945  0.00  0.00    +0.133 C 
ATOM     17  C   UNL     1      34.165 -11.298 -24.733  0.00  0.00    +0.036 C 
ATOM     18  H   UNL     1      31.614  -7.248 -20.387  0.00  0.00    -0.079 HD
ENDROOT
BRANCH  16  19
ATOM     19  O   UNL     1      36.183 -10.420 -25.644  0.00  0.00    -0.506 OA
ATOM     20  H   UNL     1      36.147 -10.640 -26.555  0.00  0.00    +0.292 HD
ENDBRANCH  16  19
BRANCH   1  21
ATOM     21  C   UNL     1      31.326  -9.096 -19.647  0.00  0.00    -0.050 C 
BRANCH  21  22
ATOM     22  C   UNL     1      32.191 -10.310 -19.568  0.00  0.00    -0.049 C 
ATOM     23  C   UNL     1      31.722 -11.563 -19.589  0.00  0.00    -0.007 C 
ENDBRANCH  21  22
ENDBRANCH   1  21
TORSDOF 3
ENDMDL
MODEL 4
REMARK VINA RESULT:      -6.4     15.834     18.644
REMARK  Name = 5359371
REMARK  3 active torsions:
REMARK  status: ('A' for Active; 'I' for Inactive)
REMARK    1  A    between atoms: N_1  and  C_21
REMARK    2  A    between atoms: C_16  and  O_19
REMARK    3  A    between atoms: C_21  and  C_22
REMARK                            x       y       z     vdW  Elec       q    Type
REMARK                         _______ _______ _______ _____ _____    ______ ____
ROOT
ATOM      1  N   UNL     1      33.723 -23.777 -13.636  0.00  0.00    +0.391 N 
ATOM      2  C   UNL     1      36.387 -23.140 -14.677  0.00  0.00    +0.015 C 
ATOM      3  C   UNL     1      35.079 -22.933 -15.490  0.00  0.00    -0.015 C 
ATOM      4  C   UNL     1      34.055 -24.001 -15.061  0.00  0.00    -0.053 C 
ATOM      5  C   UNL     1      36.028 -22.965 -13.175  0.00  0.00    -0.019 C 
ATOM      6  C   UNL     1      37.384 -22.024 -15.093  0.00  0.00    +0.004 C 
ATOM      7  C   UNL     1      35.324 -22.892 -17.012  0.00  0.00    -0.002 C 
ATOM      8  C   UNL     1      36.928 -24.570 -14.860  0.00  0.00    -0.024 C 
ATOM      9  C   UNL     1      34.573 -25.410 -15.415  0.00  0.00    +0.005 C 
ATOM     10  C   UNL     1      34.867 -23.865 -12.726  0.00  0.00    -0.076 C 
ATOM     11  C   UNL     1      37.643 -21.984 -16.600  0.00  0.00    +0.000 C 
ATOM     12  C   UNL     1      36.345 -21.819 -17.382  0.00  0.00    -0.000 C 
ATOM     13  C   UNL     1      36.052 -25.628 -15.190  0.00  0.00    -0.028 C 
ATOM     14  C   UNL     1      38.283 -24.876 -14.636  0.00  0.00    +0.032 C 
ATOM     15  C   UNL     1      36.552 -26.933 -15.338  0.00  0.00    -0.002 C 
ATOM     16  C   UNL     1      38.766 -26.179 -14.780  0.00  0.00    +0.133 C 
ATOM     17  C   UNL     1      37.901 -27.207 -15.137  0.00  0.00    +0.036 C 
ATOM     18  H   UNL     1      33.418 -22.804 -13.613  0.00  0.00    -0.079 HD
ENDROOT
BRANCH  16  19
ATOM     19  O   UNL     1      40.083 -26.443 -14.564  0.00  0.00    -0.506 OA
ATOM     20  H   UNL     1      40.407 -27.319 -14.657  0.00  0.00    +0.292 HD
ENDBRANCH  16  19
BRANCH   1  21
ATOM     21  C   UNL     1      32.606 -24.589 -13.165  0.00  0.00    -0.050 C 
BRANCH  21  22
ATOM     22  C   UNL     1      31.384 -24.239 -13.947  0.00  0.00    -0.049 C 
ATOM     23  C   UNL     1      30.520 -25.143 -14.425  0.00  0.00    -0.007 C 
ENDBRANCH  21  22
ENDBRANCH   1  21
TORSDOF 3
ENDMDL
MODEL 5
REMARK VINA RESULT:      -6.3     17.052     19.565
REMARK  Name = 5359371
REMARK  3 active torsions:
REMARK  status: ('A' for Active; 'I' for Inactive)
REMARK    1  A    between atoms: N_1  and  C_21
REMARK    2  A    between atoms: C_16  and  O_19
REMARK    3  A    between atoms: C_21  and  C_22
REMARK                            x       y       z     vdW  Elec       q    Type
REMARK                         _______ _______ _______ _____ _____    ______ ____
ROOT
ATOM      1  N   UNL     1      38.352 -25.069 -15.500  0.00  0.00    +0.391 N 
ATOM      2  C   UNL     1      35.667 -24.964 -14.331  0.00  0.00    +0.015 C 
ATOM      3  C   UNL     1      36.135 -24.034 -15.486  0.00  0.00    -0.015 C 
ATOM      4  C   UNL     1      37.647 -23.778 -15.334  0.00  0.00    -0.053 C 
ATOM      5  C   UNL     1      36.452 -26.297 -14.468  0.00  0.00    -0.019 C 
ATOM      6  C   UNL     1      34.153 -25.244 -14.533  0.00  0.00    +0.004 C 
ATOM      7  C   UNL     1      35.299 -22.741 -15.585  0.00  0.00    -0.002 C 
ATOM      8  C   UNL     1      36.019 -24.357 -12.960  0.00  0.00    -0.024 C 
ATOM      9  C   UNL     1      37.932 -23.022 -14.020  0.00  0.00    +0.005 C 
ATOM     10  C   UNL     1      37.974 -26.096 -14.527  0.00  0.00    -0.076 C 
ATOM     11  C   UNL     1      33.314 -23.967 -14.620  0.00  0.00    +0.000 C 
ATOM     12  C   UNL     1      33.812 -23.051 -15.733  0.00  0.00    -0.000 C 
ATOM     13  C   UNL     1      37.103 -23.459 -12.833  0.00  0.00    -0.028 C 
ATOM     14  C   UNL     1      35.328 -24.731 -11.793  0.00  0.00    +0.032 C 
ATOM     15  C   UNL     1      37.427 -22.924 -11.575  0.00  0.00    -0.002 C 
ATOM     16  C   UNL     1      35.666 -24.197 -10.547  0.00  0.00    +0.133 C 
ATOM     17  C   UNL     1      36.712 -23.289 -10.439  0.00  0.00    +0.036 C 
ATOM     18  H   UNL     1      38.025 -25.404 -16.406  0.00  0.00    -0.079 HD
ENDROOT
BRANCH  16  19
ATOM     19  O   UNL     1      34.973 -24.572  -9.437  0.00  0.00    -0.506 OA
ATOM     20  H   UNL     1      35.232 -24.254  -8.594  0.00  0.00    +0.292 HD
ENDBRANCH  16  19
BRANCH   1  21
ATOM     21  C   UNL     1      39.802 -24.931 -15.590  0.00  0.00    -0.050 C 
BRANCH  21  22
ATOM     22  C   UNL     1      40.417 -25.404 -14.315  0.00  0.00    -0.049 C 
ATOM     23  C   UNL     1      41.026 -26.587 -14.174  0.00  0.00    -0.007 C 
ENDBRANCH  21  22
ENDBRANCH   1  21
TORSDOF 3
ENDMDL
