MODEL 1
REMARK VINA RESULT:      -9.1      0.000      0.000
REMARK  Name = 10072851
REMARK  4 active torsions:
REMARK  status: ('A' for Active; 'I' for Inactive)
REMARK    1  A    between atoms: C_6  and  N_12
REMARK    2  A    between atoms: C_6  and  C_25
REMARK    3  A    between atoms: C_30  and  O_31
REMARK    4  A    between atoms: O_31  and  C_32
REMARK                            x       y       z     vdW  Elec       q    Type
REMARK                         _______ _______ _______ _____ _____    ______ ____
ROOT
ATOM      1  O   UNL     1      35.326  -7.893 -22.689  0.00  0.00    -0.276 OA
ATOM      2  O   UNL     1      30.583  -8.334 -23.380  0.00  0.00    -0.276 OA
ATOM      3  O   UNL     1      32.303  -6.705 -19.458  0.00  0.00    -0.252 OA
ATOM      4  N   UNL     1      33.787  -7.308 -21.101  0.00  0.00    -0.240 N 
ATOM      5  N   UNL     1      31.476  -7.525 -21.436  0.00  0.00    -0.240 N 
ATOM      6  C   UNL     1      32.996  -8.200 -23.264  0.00  0.00    +0.119 C 
ATOM      7  C   UNL     1      34.146  -7.794 -22.346  0.00  0.00    +0.223 C 
ATOM      8  C   UNL     1      31.578  -8.033 -22.719  0.00  0.00    +0.223 C 
ATOM      9  C   UNL     1      32.508  -7.150 -20.589  0.00  0.00    +0.312 C 
ATOM     10  H   UNL     1      34.527  -7.044 -20.507  0.00  0.00    +0.159 HD
ATOM     11  H   UNL     1      30.563  -7.420 -21.081  0.00  0.00    +0.159 HD
ENDROOT
BRANCH   6  12
ATOM     12  N   UNL     1      33.081  -7.309 -24.416  0.00  0.00    +0.405 N 
ATOM     13  N   UNL     1      33.308  -5.184 -26.169  0.00  0.00    -0.257 N 
ATOM     14  N   UNL     1      34.103  -4.733 -28.338  0.00  0.00    -0.203 NA
ATOM     15  N   UNL     1      31.996  -3.838 -27.587  0.00  0.00    -0.181 NA
ATOM     16  C   UNL     1      34.412  -6.724 -24.558  0.00  0.00    -0.053 C 
ATOM     17  C   UNL     1      32.028  -6.284 -24.383  0.00  0.00    -0.053 C 
ATOM     18  C   UNL     1      34.510  -5.986 -25.901  0.00  0.00    +0.079 C 
ATOM     19  C   UNL     1      32.434  -4.947 -25.021  0.00  0.00    +0.079 C 
ATOM     20  C   UNL     1      33.131  -4.566 -27.403  0.00  0.00    +0.090 C 
ATOM     21  C   UNL     1      33.898  -4.121 -29.524  0.00  0.00    +0.165 C 
ATOM     22  C   UNL     1      31.856  -3.254 -28.795  0.00  0.00    +0.108 C 
ATOM     23  C   UNL     1      32.783  -3.361 -29.811  0.00  0.00    +0.022 C 
ATOM     24  H   UNL     1      32.922  -7.877 -25.249  0.00  0.00    -0.078 HD
ENDBRANCH   6  12
BRANCH   6  25
ATOM     25  C   UNL     1      33.190  -9.628 -23.684  0.00  0.00    -0.024 C 
ATOM     26  C   UNL     1      34.053  -9.925 -24.732  0.00  0.00    -0.002 C 
ATOM     27  C   UNL     1      32.505 -10.639 -23.021  0.00  0.00    -0.002 C 
ATOM     28  C   UNL     1      34.235 -11.251 -25.123  0.00  0.00    +0.037 C 
ATOM     29  C   UNL     1      32.687 -11.966 -23.411  0.00  0.00    +0.037 C 
ATOM     30  C   UNL     1      33.551 -12.273 -24.462  0.00  0.00    +0.145 C 
BRANCH  30  31
ATOM     31  O   UNL     1      33.728 -13.567 -24.843  0.00  0.00    -0.453 OA
BRANCH  31  32
ATOM     32  C   UNL     1      34.085 -14.483 -23.867  0.00  0.00    +0.145 C 
ATOM     33  C   UNL     1      34.288 -15.803 -24.226  0.00  0.00    +0.037 C 
ATOM     34  C   UNL     1      34.230 -14.052 -22.561  0.00  0.00    +0.037 C 
ATOM     35  C   UNL     1      34.650 -16.725 -23.244  0.00  0.00    +0.003 C 
ATOM     36  C   UNL     1      34.591 -14.976 -21.579  0.00  0.00    +0.003 C 
ATOM     37  C   UNL     1      34.800 -16.312 -21.920  0.00  0.00    +0.000 C 
ENDBRANCH  31  32
ENDBRANCH  30  31
ENDBRANCH   6  25
TORSDOF 4
ENDMDL
MODEL 2
REMARK VINA RESULT:      -8.1      7.470     13.603
REMARK  Name = 10072851
REMARK  4 active torsions:
REMARK  status: ('A' for Active; 'I' for Inactive)
REMARK    1  A    between atoms: C_6  and  N_12
REMARK    2  A    between atoms: C_6  and  C_25
REMARK    3  A    between atoms: C_30  and  O_31
REMARK    4  A    between atoms: O_31  and  C_32
REMARK                            x       y       z     vdW  Elec       q    Type
REMARK                         _______ _______ _______ _____ _____    ______ ____
ROOT
ATOM      1  O   UNL     1      36.783 -17.645 -21.961  0.00  0.00    -0.276 OA
ATOM      2  O   UNL     1      32.431 -19.690 -21.754  0.00  0.00    -0.276 OA
ATOM      3  O   UNL     1      34.989 -19.853 -25.552  0.00  0.00    -0.252 OA
ATOM      4  N   UNL     1      35.856 -18.758 -23.732  0.00  0.00    -0.240 N 
ATOM      5  N   UNL     1      33.735 -19.752 -23.632  0.00  0.00    -0.240 N 
ATOM      6  C   UNL     1      34.584 -18.595 -21.620  0.00  0.00    +0.119 C 
ATOM      7  C   UNL     1      35.840 -18.283 -22.432  0.00  0.00    +0.223 C 
ATOM      8  C   UNL     1      33.483 -19.390 -22.321  0.00  0.00    +0.223 C 
ATOM      9  C   UNL     1      34.868 -19.479 -24.384  0.00  0.00    +0.312 C 
ATOM     10  H   UNL     1      36.666 -18.559 -24.256  0.00  0.00    +0.159 HD
ATOM     11  H   UNL     1      33.025 -20.262 -24.086  0.00  0.00    +0.159 HD
ENDROOT
BRANCH   6  12
ATOM     12  N   UNL     1      35.031 -19.434 -20.514  0.00  0.00    +0.405 N 
ATOM     13  N   UNL     1      35.811 -21.481 -18.828  0.00  0.00    -0.257 N 
ATOM     14  N   UNL     1      37.244 -21.838 -16.995  0.00  0.00    -0.203 NA
ATOM     15  N   UNL     1      35.016 -22.757 -17.015  0.00  0.00    -0.181 NA
ATOM     16  C   UNL     1      36.346 -20.018 -20.767  0.00  0.00    -0.053 C 
ATOM     17  C   UNL     1      34.030 -20.455 -20.175  0.00  0.00    -0.053 C 
ATOM     18  C   UNL     1      36.863 -20.697 -19.490  0.00  0.00    +0.079 C 
ATOM     19  C   UNL     1      34.626 -21.764 -19.636  0.00  0.00    +0.079 C 
ATOM     20  C   UNL     1      36.031 -22.043 -17.574  0.00  0.00    +0.090 C 
ATOM     21  C   UNL     1      37.423 -22.397 -15.778  0.00  0.00    +0.165 C 
ATOM     22  C   UNL     1      35.263 -23.287 -15.799  0.00  0.00    +0.108 C 
ATOM     23  C   UNL     1      36.458 -23.138 -15.127  0.00  0.00    +0.022 C 
ATOM     24  H   UNL     1      35.133 -18.830 -19.698  0.00  0.00    -0.078 HD
ENDBRANCH   6  12
BRANCH   6  25
ATOM     25  C   UNL     1      34.005 -17.309 -21.108  0.00  0.00    -0.024 C 
ATOM     26  C   UNL     1      34.851 -16.255 -20.781  0.00  0.00    -0.002 C 
ATOM     27  C   UNL     1      32.628 -17.183 -20.965  0.00  0.00    -0.002 C 
ATOM     28  C   UNL     1      34.313 -15.060 -20.306  0.00  0.00    +0.037 C 
ATOM     29  C   UNL     1      32.089 -15.987 -20.490  0.00  0.00    +0.037 C 
ATOM     30  C   UNL     1      32.932 -14.925 -20.160  0.00  0.00    +0.145 C 
BRANCH  30  31
ATOM     31  O   UNL     1      32.407 -13.759 -19.695  0.00  0.00    -0.453 OA
BRANCH  31  32
ATOM     32  C   UNL     1      32.143 -12.759 -20.617  0.00  0.00    +0.145 C 
ATOM     33  C   UNL     1      31.623 -11.557 -20.175  0.00  0.00    +0.037 C 
ATOM     34  C   UNL     1      32.406 -12.991 -21.955  0.00  0.00    +0.037 C 
ATOM     35  C   UNL     1      31.358 -10.549 -21.102  0.00  0.00    +0.003 C 
ATOM     36  C   UNL     1      32.140 -11.982 -22.883  0.00  0.00    +0.003 C 
ATOM     37  C   UNL     1      31.615 -10.763 -22.457  0.00  0.00    +0.000 C 
ENDBRANCH  31  32
ENDBRANCH  30  31
ENDBRANCH   6  25
TORSDOF 4
ENDMDL
MODEL 3
REMARK VINA RESULT:      -7.4      2.634      8.364
REMARK  Name = 10072851
REMARK  4 active torsions:
REMARK  status: ('A' for Active; 'I' for Inactive)
REMARK    1  A    between atoms: C_6  and  N_12
REMARK    2  A    between atoms: C_6  and  C_25
REMARK    3  A    between atoms: C_30  and  O_31
REMARK    4  A    between atoms: O_31  and  C_32
REMARK                            x       y       z     vdW  Elec       q    Type
REMARK                         _______ _______ _______ _____ _____    ______ ____
ROOT
ATOM      1  O   UNL     1      30.465  -7.542 -23.522  0.00  0.00    -0.276 OA
ATOM      2  O   UNL     1      35.185  -7.686 -22.593  0.00  0.00    -0.276 OA
ATOM      3  O   UNL     1      32.098  -7.015 -19.274  0.00  0.00    -0.252 OA
ATOM      4  N   UNL     1      31.317  -7.286 -21.415  0.00  0.00    -0.240 N 
ATOM      5  N   UNL     1      33.616  -7.353 -20.962  0.00  0.00    -0.240 N 
ATOM      6  C   UNL     1      32.871  -7.656 -23.298  0.00  0.00    +0.119 C 
ATOM      7  C   UNL     1      31.445  -7.493 -22.777  0.00  0.00    +0.223 C 
ATOM      8  C   UNL     1      34.001  -7.571 -22.273  0.00  0.00    +0.223 C 
ATOM      9  C   UNL     1      32.328  -7.206 -20.470  0.00  0.00    +0.312 C 
ATOM     10  H   UNL     1      30.398  -7.183 -21.076  0.00  0.00    +0.159 HD
ATOM     11  H   UNL     1      34.343  -7.295 -20.300  0.00  0.00    +0.159 HD
ENDROOT
BRANCH   6  12
ATOM     12  N   UNL     1      32.938  -9.007 -23.844  0.00  0.00    +0.405 N 
ATOM     13  N   UNL     1      33.662 -11.523 -24.731  0.00  0.00    -0.257 N 
ATOM     14  N   UNL     1      32.733 -13.674 -24.958  0.00  0.00    -0.203 NA
ATOM     15  N   UNL     1      34.061 -12.712 -26.724  0.00  0.00    -0.181 NA
ATOM     16  C   UNL     1      33.230 -10.000 -22.813  0.00  0.00    -0.053 C 
ATOM     17  C   UNL     1      33.880  -9.087 -24.969  0.00  0.00    -0.053 C 
ATOM     18  C   UNL     1      33.062 -11.411 -23.394  0.00  0.00    +0.079 C 
ATOM     19  C   UNL     1      34.578 -10.448 -25.108  0.00  0.00    +0.079 C 
ATOM     20  C   UNL     1      33.480 -12.672 -25.494  0.00  0.00    +0.090 C 
ATOM     21  C   UNL     1      32.575 -14.773 -25.726  0.00  0.00    +0.165 C 
ATOM     22  C   UNL     1      33.863 -13.841 -27.437  0.00  0.00    +0.108 C 
ATOM     23  C   UNL     1      33.123 -14.913 -26.985  0.00  0.00    +0.022 C 
ATOM     24  H   UNL     1      32.012  -9.231 -24.210  0.00  0.00    -0.078 HD
ENDBRANCH   6  12
BRANCH   6  25
ATOM     25  C   UNL     1      33.114  -6.638 -24.375  0.00  0.00    -0.024 C 
ATOM     26  C   UNL     1      34.335  -6.618 -25.039  0.00  0.00    -0.002 C 
ATOM     27  C   UNL     1      32.116  -5.726 -24.697  0.00  0.00    -0.002 C 
ATOM     28  C   UNL     1      34.561  -5.673 -26.040  0.00  0.00    +0.037 C 
ATOM     29  C   UNL     1      32.341  -4.782 -25.698  0.00  0.00    +0.037 C 
ATOM     30  C   UNL     1      33.564  -4.754 -26.370  0.00  0.00    +0.145 C 
BRANCH  30  31
ATOM     31  O   UNL     1      33.785  -3.832 -27.345  0.00  0.00    -0.453 OA
BRANCH  31  32
ATOM     32  C   UNL     1      32.694  -3.399 -28.081  0.00  0.00    +0.145 C 
ATOM     33  C   UNL     1      31.952  -2.328 -27.616  0.00  0.00    +0.037 C 
ATOM     34  C   UNL     1      32.376  -4.048 -29.260  0.00  0.00    +0.037 C 
ATOM     35  C   UNL     1      30.854  -1.891 -28.357  0.00  0.00    +0.003 C 
ATOM     36  C   UNL     1      31.277  -3.610 -30.000  0.00  0.00    +0.003 C 
ATOM     37  C   UNL     1      30.516  -2.532 -29.548  0.00  0.00    +0.000 C 
ENDBRANCH  31  32
ENDBRANCH  30  31
ENDBRANCH   6  25
TORSDOF 4
ENDMDL
MODEL 4
REMARK VINA RESULT:      -7.4      3.788      6.886
REMARK  Name = 10072851
REMARK  4 active torsions:
REMARK  status: ('A' for Active; 'I' for Inactive)
REMARK    1  A    between atoms: C_6  and  N_12
REMARK    2  A    between atoms: C_6  and  C_25
REMARK    3  A    between atoms: C_30  and  O_31
REMARK    4  A    between atoms: O_31  and  C_32
REMARK                            x       y       z     vdW  Elec       q    Type
REMARK                         _______ _______ _______ _____ _____    ______ ____
ROOT
ATOM      1  O   UNL     1      33.432  -1.792 -26.244  0.00  0.00    -0.276 OA
ATOM      2  O   UNL     1      33.058  -5.436 -29.367  0.00  0.00    -0.276 OA
ATOM      3  O   UNL     1      30.206  -1.852 -29.497  0.00  0.00    -0.252 OA
ATOM      4  N   UNL     1      31.837  -1.855 -27.883  0.00  0.00    -0.240 N 
ATOM      5  N   UNL     1      31.652  -3.632 -29.403  0.00  0.00    -0.240 N 
ATOM      6  C   UNL     1      33.441  -3.725 -27.700  0.00  0.00    +0.119 C 
ATOM      7  C   UNL     1      32.920  -2.379 -27.200  0.00  0.00    +0.223 C 
ATOM      8  C   UNL     1      32.717  -4.352 -28.890  0.00  0.00    +0.223 C 
ATOM      9  C   UNL     1      31.167  -2.409 -28.963  0.00  0.00    +0.312 C 
ATOM     10  H   UNL     1      31.500  -0.986 -27.563  0.00  0.00    +0.159 HD
ATOM     11  H   UNL     1      31.183  -4.035 -30.168  0.00  0.00    +0.159 HD
ENDROOT
BRANCH   6  12
ATOM     12  N   UNL     1      34.803  -3.473 -28.157  0.00  0.00    +0.405 N 
ATOM     13  N   UNL     1      37.158  -3.166 -29.572  0.00  0.00    -0.257 N 
ATOM     14  N   UNL     1      39.103  -1.841 -29.539  0.00  0.00    -0.203 NA
ATOM     15  N   UNL     1      39.238  -4.218 -29.906  0.00  0.00    -0.181 NA
ATOM     16  C   UNL     1      34.875  -2.325 -29.058  0.00  0.00    -0.053 C 
ATOM     17  C   UNL     1      35.403  -4.677 -28.748  0.00  0.00    -0.053 C 
ATOM     18  C   UNL     1      36.344  -1.968 -29.323  0.00  0.00    +0.079 C 
ATOM     19  C   UNL     1      36.414  -4.389 -29.869  0.00  0.00    +0.079 C 
ATOM     20  C   UNL     1      38.542  -3.071 -29.676  0.00  0.00    +0.090 C 
ATOM     21  C   UNL     1      40.448  -1.786 -29.644  0.00  0.00    +0.165 C 
ATOM     22  C   UNL     1      40.578  -4.090 -30.000  0.00  0.00    +0.108 C 
ATOM     23  C   UNL     1      41.244  -2.888 -29.877  0.00  0.00    +0.022 C 
ATOM     24  H   UNL     1      35.358  -3.232 -27.335  0.00  0.00    -0.078 HD
ENDBRANCH   6  12
BRANCH   6  25
ATOM     25  C   UNL     1      33.438  -4.701 -26.560  0.00  0.00    -0.024 C 
ATOM     26  C   UNL     1      32.268  -4.913 -25.840  0.00  0.00    -0.002 C 
ATOM     27  C   UNL     1      34.604  -5.383 -26.235  0.00  0.00    -0.002 C 
ATOM     28  C   UNL     1      32.264  -5.821 -24.781  0.00  0.00    +0.037 C 
ATOM     29  C   UNL     1      34.601  -6.292 -25.177  0.00  0.00    +0.037 C 
ATOM     30  C   UNL     1      33.431  -6.510 -24.448  0.00  0.00    +0.145 C 
BRANCH  30  31
ATOM     31  O   UNL     1      33.427  -7.395 -23.415  0.00  0.00    -0.453 OA
BRANCH  31  32
ATOM     32  C   UNL     1      33.562  -8.740 -23.718  0.00  0.00    +0.145 C 
ATOM     33  C   UNL     1      34.672  -9.161 -24.427  0.00  0.00    +0.037 C 
ATOM     34  C   UNL     1      32.584  -9.625 -23.302  0.00  0.00    +0.037 C 
ATOM     35  C   UNL     1      34.809 -10.516 -24.731  0.00  0.00    +0.003 C 
ATOM     36  C   UNL     1      32.722 -10.980 -23.608  0.00  0.00    +0.003 C 
ATOM     37  C   UNL     1      33.833 -11.425 -24.323  0.00  0.00    +0.000 C 
ENDBRANCH  31  32
ENDBRANCH  30  31
ENDBRANCH   6  25
TORSDOF 4
ENDMDL
MODEL 5
REMARK VINA RESULT:      -7.2      2.702      8.138
REMARK  Name = 10072851
REMARK  4 active torsions:
REMARK  status: ('A' for Active; 'I' for Inactive)
REMARK    1  A    between atoms: C_6  and  N_12
REMARK    2  A    between atoms: C_6  and  C_25
REMARK    3  A    between atoms: C_30  and  O_31
REMARK    4  A    between atoms: O_31  and  C_32
REMARK                            x       y       z     vdW  Elec       q    Type
REMARK                         _______ _______ _______ _____ _____    ______ ____
ROOT
ATOM      1  O   UNL     1      30.489  -7.562 -23.215  0.00  0.00    -0.276 OA
ATOM      2  O   UNL     1      35.290  -7.508 -22.873  0.00  0.00    -0.276 OA
ATOM      3  O   UNL     1      32.609  -6.990 -19.194  0.00  0.00    -0.252 OA
ATOM      4  N   UNL     1      31.583  -7.282 -21.225  0.00  0.00    -0.240 N 
ATOM      5  N   UNL     1      33.921  -7.252 -21.058  0.00  0.00    -0.240 N 
ATOM      6  C   UNL     1      32.908  -7.573 -23.289  0.00  0.00    +0.119 C 
ATOM      7  C   UNL     1      31.551  -7.475 -22.595  0.00  0.00    +0.223 C 
ATOM      8  C   UNL     1      34.150  -7.446 -22.409  0.00  0.00    +0.223 C 
ATOM      9  C   UNL     1      32.698  -7.163 -20.411  0.00  0.00    +0.312 C 
ATOM     10  H   UNL     1      30.708  -7.219 -20.775  0.00  0.00    +0.159 HD
ATOM     11  H   UNL     1      34.721  -7.167 -20.490  0.00  0.00    +0.159 HD
ENDROOT
BRANCH   6  12
ATOM     12  N   UNL     1      32.963  -8.917 -23.854  0.00  0.00    +0.405 N 
ATOM     13  N   UNL     1      33.658 -11.441 -24.741  0.00  0.00    -0.257 N 
ATOM     14  N   UNL     1      32.675 -13.557 -25.060  0.00  0.00    -0.203 NA
ATOM     15  N   UNL     1      34.135 -12.612 -26.728  0.00  0.00    -0.181 NA
ATOM     16  C   UNL     1      33.162  -9.935 -22.825  0.00  0.00    -0.053 C 
ATOM     17  C   UNL     1      33.967  -9.010 -24.923  0.00  0.00    -0.053 C 
ATOM     18  C   UNL     1      32.984 -11.331 -23.439  0.00  0.00    +0.079 C 
ATOM     19  C   UNL     1      34.628 -10.391 -25.045  0.00  0.00    +0.079 C 
ATOM     20  C   UNL     1      33.484 -12.572 -25.533  0.00  0.00    +0.090 C 
ATOM     21  C   UNL     1      32.528 -14.638 -25.854  0.00  0.00    +0.165 C 
ATOM     22  C   UNL     1      33.943 -13.722 -27.470  0.00  0.00    +0.108 C 
ATOM     23  C   UNL     1      33.144 -14.776 -27.081  0.00  0.00    +0.022 C 
ATOM     24  H   UNL     1      32.054  -9.105 -24.277  0.00  0.00    -0.078 HD
ENDBRANCH   6  12
BRANCH   6  25
ATOM     25  C   UNL     1      32.973  -6.540 -24.376  0.00  0.00    -0.024 C 
ATOM     26  C   UNL     1      34.121  -6.431 -25.153  0.00  0.00    -0.002 C 
ATOM     27  C   UNL     1      31.887  -5.702 -24.595  0.00  0.00    -0.002 C 
ATOM     28  C   UNL     1      34.183  -5.472 -26.163  0.00  0.00    +0.037 C 
ATOM     29  C   UNL     1      31.947  -4.743 -25.606  0.00  0.00    +0.037 C 
ATOM     30  C   UNL     1      33.096  -4.627 -26.390  0.00  0.00    +0.145 C 
BRANCH  30  31
ATOM     31  O   UNL     1      33.156  -3.691 -27.375  0.00  0.00    -0.453 OA
BRANCH  31  32
ATOM     32  C   UNL     1      34.352  -3.555 -28.062  0.00  0.00    +0.145 C 
ATOM     33  C   UNL     1      35.331  -2.723 -27.550  0.00  0.00    +0.037 C 
ATOM     34  C   UNL     1      34.534  -4.255 -29.241  0.00  0.00    +0.037 C 
ATOM     35  C   UNL     1      36.536  -2.588 -28.240  0.00  0.00    +0.003 C 
ATOM     36  C   UNL     1      35.739  -4.118 -29.931  0.00  0.00    +0.003 C 
ATOM     37  C   UNL     1      36.739  -3.284 -29.432  0.00  0.00    +0.000 C 
ENDBRANCH  31  32
ENDBRANCH  30  31
ENDBRANCH   6  25
TORSDOF 4
ENDMDL
MODEL 6
REMARK VINA RESULT:      -7.2      2.557      8.585
REMARK  Name = 10072851
REMARK  4 active torsions:
REMARK  status: ('A' for Active; 'I' for Inactive)
REMARK    1  A    between atoms: C_6  and  N_12
REMARK    2  A    between atoms: C_6  and  C_25
REMARK    3  A    between atoms: C_30  and  O_31
REMARK    4  A    between atoms: O_31  and  C_32
REMARK                            x       y       z     vdW  Elec       q    Type
REMARK                         _______ _______ _______ _____ _____    ______ ____
ROOT
ATOM      1  O   UNL     1      30.448  -7.511 -24.520  0.00  0.00    -0.276 OA
ATOM      2  O   UNL     1      34.033  -6.718 -21.407  0.00  0.00    -0.276 OA
ATOM      3  O   UNL     1      29.780  -5.212 -20.614  0.00  0.00    -0.252 OA
ATOM      4  N   UNL     1      30.152  -6.370 -22.559  0.00  0.00    -0.240 N 
ATOM      5  N   UNL     1      31.899  -5.981 -21.044  0.00  0.00    -0.240 N 
ATOM      6  C   UNL     1      32.397  -7.239 -23.112  0.00  0.00    +0.119 C 
ATOM      7  C   UNL     1      30.924  -7.064 -23.474  0.00  0.00    +0.223 C 
ATOM      8  C   UNL     1      32.865  -6.634 -21.789  0.00  0.00    +0.223 C 
ATOM      9  C   UNL     1      30.558  -5.814 -21.356  0.00  0.00    +0.312 C 
ATOM     10  H   UNL     1      29.201  -6.257 -22.790  0.00  0.00    +0.159 HD
ATOM     11  H   UNL     1      32.199  -5.587 -20.192  0.00  0.00    +0.159 HD
ENDROOT
BRANCH   6  12
ATOM     12  N   UNL     1      32.600  -8.678 -22.978  0.00  0.00    +0.405 N 
ATOM     13  N   UNL     1      32.390 -11.433 -22.898  0.00  0.00    -0.257 N 
ATOM     14  N   UNL     1      33.735 -13.337 -23.224  0.00  0.00    -0.203 NA
ATOM     15  N   UNL     1      32.215 -13.207 -21.359  0.00  0.00    -0.181 NA
ATOM     16  C   UNL     1      32.530  -9.362 -24.267  0.00  0.00    -0.053 C 
ATOM     17  C   UNL     1      31.678  -9.262 -21.994  0.00  0.00    -0.053 C 
ATOM     18  C   UNL     1      32.973 -10.822 -24.101  0.00  0.00    +0.079 C 
ATOM     19  C   UNL     1      31.270 -10.711 -22.299  0.00  0.00    +0.079 C 
ATOM     20  C   UNL     1      32.792 -12.698 -22.482  0.00  0.00    +0.090 C 
ATOM     21  C   UNL     1      34.102 -14.562 -22.791  0.00  0.00    +0.165 C 
ATOM     22  C   UNL     1      32.629 -14.435 -20.984  0.00  0.00    +0.108 C 
ATOM     23  C   UNL     1      33.578 -15.166 -21.667  0.00  0.00    +0.022 C 
ATOM     24  H   UNL     1      33.546  -8.818 -22.625  0.00  0.00    -0.078 HD
ENDBRANCH   6  12
BRANCH   6  25
ATOM     25  C   UNL     1      33.241  -6.687 -24.224  0.00  0.00    -0.024 C 
ATOM     26  C   UNL     1      32.724  -5.698 -25.052  0.00  0.00    -0.002 C 
ATOM     27  C   UNL     1      34.529  -7.171 -24.416  0.00  0.00    -0.002 C 
ATOM     28  C   UNL     1      33.508  -5.184 -26.085  0.00  0.00    +0.037 C 
ATOM     29  C   UNL     1      35.313  -6.658 -25.448  0.00  0.00    +0.037 C 
ATOM     30  C   UNL     1      34.802  -5.664 -26.284  0.00  0.00    +0.145 C 
BRANCH  30  31
ATOM     31  O   UNL     1      35.566  -5.164 -27.293  0.00  0.00    -0.453 OA
BRANCH  31  32
ATOM     32  C   UNL     1      35.036  -4.132 -28.050  0.00  0.00    +0.145 C 
ATOM     33  C   UNL     1      34.281  -4.437 -29.168  0.00  0.00    +0.037 C 
ATOM     34  C   UNL     1      35.277  -2.824 -27.669  0.00  0.00    +0.037 C 
ATOM     35  C   UNL     1      33.746  -3.398 -29.930  0.00  0.00    +0.003 C 
ATOM     36  C   UNL     1      34.742  -1.785 -28.432  0.00  0.00    +0.003 C 
ATOM     37  C   UNL     1      33.977  -2.073 -29.563  0.00  0.00    +0.000 C 
ENDBRANCH  31  32
ENDBRANCH  30  31
ENDBRANCH   6  25
TORSDOF 4
ENDMDL
MODEL 7
REMARK VINA RESULT:      -7.0      2.817      8.501
REMARK  Name = 10072851
REMARK  4 active torsions:
REMARK  status: ('A' for Active; 'I' for Inactive)
REMARK    1  A    between atoms: C_6  and  N_12
REMARK    2  A    between atoms: C_6  and  C_25
REMARK    3  A    between atoms: C_30  and  O_31
REMARK    4  A    between atoms: O_31  and  C_32
REMARK                            x       y       z     vdW  Elec       q    Type
REMARK                         _______ _______ _______ _____ _____    ______ ____
ROOT
ATOM      1  O   UNL     1      30.452  -7.547 -24.467  0.00  0.00    -0.276 OA
ATOM      2  O   UNL     1      34.258  -6.711 -21.640  0.00  0.00    -0.276 OA
ATOM      3  O   UNL     1      30.089  -5.122 -20.597  0.00  0.00    -0.252 OA
ATOM      4  N   UNL     1      30.309  -6.343 -22.526  0.00  0.00    -0.240 N 
ATOM      5  N   UNL     1      32.163  -5.933 -21.151  0.00  0.00    -0.240 N 
ATOM      6  C   UNL     1      32.499  -7.260 -23.208  0.00  0.00    +0.119 C 
ATOM      7  C   UNL     1      31.006  -7.075 -23.472  0.00  0.00    +0.223 C 
ATOM      8  C   UNL     1      33.066  -6.621 -21.942  0.00  0.00    +0.223 C 
ATOM      9  C   UNL     1      30.805  -5.757 -21.373  0.00  0.00    +0.312 C 
ATOM     10  H   UNL     1      29.345  -6.224 -22.693  0.00  0.00    +0.159 HD
ATOM     11  H   UNL     1      32.527  -5.518 -20.335  0.00  0.00    +0.159 HD
ENDROOT
BRANCH   6  12
ATOM     12  N   UNL     1      32.693  -8.696 -23.045  0.00  0.00    +0.405 N 
ATOM     13  N   UNL     1      32.471 -11.449 -22.916  0.00  0.00    -0.257 N 
ATOM     14  N   UNL     1      33.813 -13.364 -23.186  0.00  0.00    -0.203 NA
ATOM     15  N   UNL     1      32.265 -13.193 -21.347  0.00  0.00    -0.181 NA
ATOM     16  C   UNL     1      32.640  -9.404 -24.322  0.00  0.00    -0.053 C 
ATOM     17  C   UNL     1      31.754  -9.258 -22.064  0.00  0.00    -0.053 C 
ATOM     18  C   UNL     1      33.075 -10.863 -24.121  0.00  0.00    +0.079 C 
ATOM     19  C   UNL     1      31.345 -10.711 -22.348  0.00  0.00    +0.079 C 
ATOM     20  C   UNL     1      32.862 -12.708 -22.470  0.00  0.00    +0.090 C 
ATOM     21  C   UNL     1      34.169 -14.582 -22.724  0.00  0.00    +0.165 C 
ATOM     22  C   UNL     1      32.668 -14.415 -20.943  0.00  0.00    +0.108 C 
ATOM     23  C   UNL     1      33.624 -15.163 -21.597  0.00  0.00    +0.022 C 
ATOM     24  H   UNL     1      33.634  -8.834 -22.675  0.00  0.00    -0.078 HD
ENDBRANCH   6  12
BRANCH   6  25
ATOM     25  C   UNL     1      33.268  -6.754 -24.394  0.00  0.00    -0.024 C 
ATOM     26  C   UNL     1      34.572  -7.187 -24.604  0.00  0.00    -0.002 C 
ATOM     27  C   UNL     1      32.669  -5.857 -25.270  0.00  0.00    -0.002 C 
ATOM     28  C   UNL     1      35.286  -6.718 -25.706  0.00  0.00    +0.037 C 
ATOM     29  C   UNL     1      33.383  -5.388 -26.373  0.00  0.00    +0.037 C 
ATOM     30  C   UNL     1      34.692  -5.818 -26.591  0.00  0.00    +0.145 C 
BRANCH  30  31
ATOM     31  O   UNL     1      35.390  -5.359 -27.665  0.00  0.00    -0.453 OA
BRANCH  31  32
ATOM     32  C   UNL     1      36.088  -4.171 -27.520  0.00  0.00    +0.145 C 
ATOM     33  C   UNL     1      37.469  -4.207 -27.449  0.00  0.00    +0.037 C 
ATOM     34  C   UNL     1      35.386  -2.982 -27.451  0.00  0.00    +0.037 C 
ATOM     35  C   UNL     1      38.173  -3.011 -27.305  0.00  0.00    +0.003 C 
ATOM     36  C   UNL     1      36.090  -1.786 -27.306  0.00  0.00    +0.003 C 
ATOM     37  C   UNL     1      37.483  -1.801 -27.232  0.00  0.00    +0.000 C 
ENDBRANCH  31  32
ENDBRANCH  30  31
ENDBRANCH   6  25
TORSDOF 4
ENDMDL
MODEL 8
REMARK VINA RESULT:      -6.9     12.734     17.155
REMARK  Name = 10072851
REMARK  4 active torsions:
REMARK  status: ('A' for Active; 'I' for Inactive)
REMARK    1  A    between atoms: C_6  and  N_12
REMARK    2  A    between atoms: C_6  and  C_25
REMARK    3  A    between atoms: C_30  and  O_31
REMARK    4  A    between atoms: O_31  and  C_32
REMARK                            x       y       z     vdW  Elec       q    Type
REMARK                         _______ _______ _______ _____ _____    ______ ____
ROOT
ATOM      1  O   UNL     1      35.069 -21.648 -14.074  0.00  0.00    -0.276 OA
ATOM      2  O   UNL     1      34.553 -25.621 -16.743  0.00  0.00    -0.276 OA
ATOM      3  O   UNL     1      36.562 -25.730 -12.627  0.00  0.00    -0.252 OA
ATOM      4  N   UNL     1      35.799 -23.704 -13.384  0.00  0.00    -0.240 N 
ATOM      5  N   UNL     1      35.551 -25.638 -14.685  0.00  0.00    -0.240 N 
ATOM      6  C   UNL     1      34.696 -23.501 -15.585  0.00  0.00    +0.119 C 
ATOM      7  C   UNL     1      35.194 -22.854 -14.294  0.00  0.00    +0.223 C 
ATOM      8  C   UNL     1      34.916 -25.005 -15.739  0.00  0.00    +0.223 C 
ATOM      9  C   UNL     1      36.008 -25.068 -13.506  0.00  0.00    +0.312 C 
ATOM     10  H   UNL     1      36.120 -23.289 -12.550  0.00  0.00    +0.159 HD
ATOM     11  H   UNL     1      35.696 -26.607 -14.783  0.00  0.00    +0.159 HD
ENDROOT
BRANCH   6  12
ATOM     12  N   UNL     1      33.249 -23.314 -15.583  0.00  0.00    +0.405 N 
ATOM     13  N   UNL     1      30.499 -23.563 -15.717  0.00  0.00    -0.257 N 
ATOM     14  N   UNL     1      28.571 -22.616 -14.755  0.00  0.00    -0.203 NA
ATOM     15  N   UNL     1      28.684 -23.042 -17.124  0.00  0.00    -0.181 NA
ATOM     16  C   UNL     1      32.607 -24.023 -14.479  0.00  0.00    -0.053 C 
ATOM     17  C   UNL     1      32.660 -23.668 -16.882  0.00  0.00    -0.053 C 
ATOM     18  C   UNL     1      31.131 -23.610 -14.390  0.00  0.00    +0.079 C 
ATOM     19  C   UNL     1      31.232 -24.228 -16.793  0.00  0.00    +0.079 C 
ATOM     20  C   UNL     1      29.211 -23.059 -15.869  0.00  0.00    +0.090 C 
ATOM     21  C   UNL     1      27.324 -22.132 -14.940  0.00  0.00    +0.165 C 
ATOM     22  C   UNL     1      27.435 -22.546 -17.235  0.00  0.00    +0.108 C 
ATOM     23  C   UNL     1      26.700 -22.072 -16.169  0.00  0.00    +0.022 C 
ATOM     24  H   UNL     1      33.073 -22.321 -15.434  0.00  0.00    -0.078 HD
ENDBRANCH   6  12
BRANCH   6  25
ATOM     25  C   UNL     1      35.319 -22.796 -16.754  0.00  0.00    -0.024 C 
ATOM     26  C   UNL     1      34.604 -22.666 -17.939  0.00  0.00    -0.002 C 
ATOM     27  C   UNL     1      36.605 -22.280 -16.641  0.00  0.00    -0.002 C 
ATOM     28  C   UNL     1      35.182 -22.011 -19.026  0.00  0.00    +0.037 C 
ATOM     29  C   UNL     1      37.183 -21.624 -17.727  0.00  0.00    +0.037 C 
ATOM     30  C   UNL     1      36.472 -21.489 -18.920  0.00  0.00    +0.145 C 
BRANCH  30  31
ATOM     31  O   UNL     1      37.037 -20.851 -19.981  0.00  0.00    -0.453 OA
BRANCH  31  32
ATOM     32  C   UNL     1      36.250 -19.954 -20.685  0.00  0.00    +0.145 C 
ATOM     33  C   UNL     1      34.874 -20.087 -20.641  0.00  0.00    +0.037 C 
ATOM     34  C   UNL     1      36.861 -18.950 -21.414  0.00  0.00    +0.037 C 
ATOM     35  C   UNL     1      34.081 -19.183 -21.349  0.00  0.00    +0.003 C 
ATOM     36  C   UNL     1      36.068 -18.047 -22.123  0.00  0.00    +0.003 C 
ATOM     37  C   UNL     1      34.678 -18.164 -22.091  0.00  0.00    +0.000 C 
ENDBRANCH  31  32
ENDBRANCH  30  31
ENDBRANCH   6  25
TORSDOF 4
ENDMDL
MODEL 9
REMARK VINA RESULT:      -6.7     12.288     16.550
REMARK  Name = 10072851
REMARK  4 active torsions:
REMARK  status: ('A' for Active; 'I' for Inactive)
REMARK    1  A    between atoms: C_6  and  N_12
REMARK    2  A    between atoms: C_6  and  C_25
REMARK    3  A    between atoms: C_30  and  O_31
REMARK    4  A    between atoms: O_31  and  C_32
REMARK                            x       y       z     vdW  Elec       q    Type
REMARK                         _______ _______ _______ _____ _____    ______ ____
ROOT
ATOM      1  O   UNL     1      34.583 -25.521 -17.042  0.00  0.00    -0.276 OA
ATOM      2  O   UNL     1      34.614 -21.544 -14.331  0.00  0.00    -0.276 OA
ATOM      3  O   UNL     1      37.546 -24.985 -13.589  0.00  0.00    -0.252 OA
ATOM      4  N   UNL     1      36.049 -25.217 -15.312  0.00  0.00    -0.240 N 
ATOM      5  N   UNL     1      36.063 -23.281 -13.989  0.00  0.00    -0.240 N 
ATOM      6  C   UNL     1      34.413 -23.438 -15.822  0.00  0.00    +0.119 C 
ATOM      7  C   UNL     1      35.006 -24.812 -16.127  0.00  0.00    +0.223 C 
ATOM      8  C   UNL     1      35.023 -22.659 -14.658  0.00  0.00    +0.223 C 
ATOM      9  C   UNL     1      36.615 -24.525 -14.252  0.00  0.00    +0.312 C 
ATOM     10  H   UNL     1      36.435 -26.102 -15.507  0.00  0.00    +0.159 HD
ATOM     11  H   UNL     1      36.455 -22.781 -13.237  0.00  0.00    +0.159 HD
ENDROOT
BRANCH   6  12
ATOM     12  N   UNL     1      34.665 -22.630 -17.011  0.00  0.00    +0.405 N 
ATOM     13  N   UNL     1      35.555 -21.542 -19.390  0.00  0.00    -0.257 N 
ATOM     14  N   UNL     1      34.744 -20.233 -21.171  0.00  0.00    -0.203 NA
ATOM     15  N   UNL     1      36.909 -19.796 -20.207  0.00  0.00    -0.181 NA
ATOM     16  C   UNL     1      34.243 -23.309 -18.233  0.00  0.00    -0.053 C 
ATOM     17  C   UNL     1      36.067 -22.194 -17.077  0.00  0.00    -0.053 C 
ATOM     18  C   UNL     1      34.318 -22.334 -19.417  0.00  0.00    +0.079 C 
ATOM     19  C   UNL     1      36.608 -22.038 -18.506  0.00  0.00    +0.079 C 
ATOM     20  C   UNL     1      35.741 -20.492 -20.284  0.00  0.00    +0.090 C 
ATOM     21  C   UNL     1      34.957 -19.206 -22.022  0.00  0.00    +0.165 C 
ATOM     22  C   UNL     1      37.055 -18.785 -21.087  0.00  0.00    +0.108 C 
ATOM     23  C   UNL     1      36.105 -18.441 -22.026  0.00  0.00    +0.022 C 
ATOM     24  H   UNL     1      34.092 -21.790 -16.932  0.00  0.00    -0.078 HD
ENDBRANCH   6  12
BRANCH   6  25
ATOM     25  C   UNL     1      32.938 -23.587 -15.588  0.00  0.00    -0.024 C 
ATOM     26  C   UNL     1      32.039 -22.938 -16.426  0.00  0.00    -0.002 C 
ATOM     27  C   UNL     1      32.485 -24.373 -14.535  0.00  0.00    -0.002 C 
ATOM     28  C   UNL     1      30.669 -23.076 -16.209  0.00  0.00    +0.037 C 
ATOM     29  C   UNL     1      31.114 -24.512 -14.317  0.00  0.00    +0.037 C 
ATOM     30  C   UNL     1      30.205 -23.863 -15.154  0.00  0.00    +0.145 C 
BRANCH  30  31
ATOM     31  O   UNL     1      28.868 -23.998 -14.942  0.00  0.00    -0.453 OA
BRANCH  31  32
ATOM     32  C   UNL     1      28.012 -23.255 -15.738  0.00  0.00    +0.145 C 
ATOM     33  C   UNL     1      28.081 -23.395 -17.113  0.00  0.00    +0.037 C 
ATOM     34  C   UNL     1      27.111 -22.395 -15.139  0.00  0.00    +0.037 C 
ATOM     35  C   UNL     1      27.218 -22.649 -17.916  0.00  0.00    +0.003 C 
ATOM     36  C   UNL     1      26.248 -21.648 -15.942  0.00  0.00    +0.003 C 
ATOM     37  C   UNL     1      26.302 -21.774 -17.330  0.00  0.00    +0.000 C 
ENDBRANCH  31  32
ENDBRANCH  30  31
ENDBRANCH   6  25
TORSDOF 4
ENDMDL
